#       Name:                EN300-260862_i002
#       Creating user name   fsindt
#       Creation time:       Wed Mar  1 14:19:49 2023


#       File generated by GOLD software.
#

@<TRIPOS>MOLECULE
EN300-260862_i002|amine_1|mol2|10990|dock3
    36    36     1
SMALL
USER_CHARGES


@<TRIPOS>ATOM
      1 C1           1.7311 -15.9815  12.8452 C.3            1 <1>                0.0000
      2 C2           0.2053 -15.9859  12.9580 C.3            1 <1>                0.0000
      3 C3          -0.3664 -17.1160  12.0994 C.3            1 <1>                0.0000
      4 C4          -0.1977 -16.2009  14.4183 C.3            1 <1>                0.0000
      5 O5          -0.3180 -14.7134  12.4939 O.3            1 <1>                0.0000
      6 C6          -0.0983 -14.3960  11.2041 C.2            1 <1>                0.0000
      7 O7           0.6153 -15.1007  10.5180 O.2            1 <1>                0.0000
      8 N8          -0.6699 -13.2966  10.6738 N.am           1 <1>                0.0000
      9 C9          -0.5160 -12.8355   9.2863 C.3            1 <1>                0.0000
     10 C10         -1.3266 -11.5300   9.1449 C.3            1 <1>                0.0000
     11 C11         -1.4311 -11.0254  10.6083 C.3            1 <1>                0.0000
     12 O12         -0.2516 -10.3147  10.9905 O.3            1 <1>                0.0000
     13 C13         -2.6769 -10.1587  10.8021 C.3            1 <1>                0.0000
     14 N14         -2.6140  -9.0019   9.8991 N.4            1 <1>                1.0000
     15 C15         -1.5580 -12.3610  11.3873 C.3            1 <1>                0.0000
     16 H16          2.0181 -15.8284  11.8049 H              1 <1>                0.0000
     17 H17          2.1383 -15.1764  13.4568 H              1 <1>                0.0000
     18 H18          2.1239 -16.9368  13.1937 H              1 <1>                0.0000
     19 H19          0.0264 -18.0713  12.4479 H              1 <1>                0.0000
     20 H20         -1.4534 -17.1191  12.1798 H              1 <1>                0.0000
     21 H21         -0.0794 -16.9628  11.0592 H              1 <1>                0.0000
     22 H22          0.2096 -15.3958  15.0299 H              1 <1>                0.0000
     23 H23         -1.2847 -16.2041  14.4985 H              1 <1>                0.0000
     24 H24          0.1952 -17.1562  14.7667 H              1 <1>                0.0000
     25 H25          0.5358 -12.6436   9.0740 H              1 <1>                0.0000
     26 H26         -0.9034 -13.5887   8.6002 H              1 <1>                0.0000
     27 H27         -0.7923 -10.8095   8.5256 H              1 <1>                0.0000
     28 H28         -2.3162 -11.7330   8.7353 H              1 <1>                0.0000
     29 H29         -3.5670 -10.7468  10.5780 H              1 <1>                0.0000
     30 H30         -2.7211  -9.8118  11.8345 H              1 <1>                0.0000
     31 H31         -2.5883 -12.7164  11.3655 H              1 <1>                0.0000
     32 H32         -1.2215 -12.2335  12.4161 H              1 <1>                0.0000
     33 H33         -0.3745  -9.7278  11.7490 H              1 <1>                0.0000
     34 H34         -1.7344  -9.0084   9.4049 H              1 <1>                0.0000
     35 H35         -3.3728  -9.0512   9.2358 H              1 <1>                0.0000
     36 H36         -2.6917  -8.1513  10.4363 H              1 <1>                0.0000
@<TRIPOS>BOND
    1    1    2 1     
    2    1   16 1     
    3    1   17 1     
    4    1   18 1     
    5    2    3 1     
    6    2    4 1     
    7    2    5 1     
    8    3   19 1     
    9    3   20 1     
   10    3   21 1     
   11    4   22 1     
   12    4   23 1     
   13    4   24 1     
   14    5    6 1     
   15    6    7 2     
   16    6    8 am    
   17    8    9 1     
   18    8   15 1     
   19    9   10 1     
   20    9   25 1     
   21    9   26 1     
   22   10   11 1     
   23   10   27 1     
   24   10   28 1     
   25   11   12 1     
   26   11   13 1     
   27   11   15 1     
   28   12   33 1     
   29   13   14 1     
   30   13   29 1     
   31   13   30 1     
   32   14   34 1     
   33   14   35 1     
   34   14   36 1     
   35   15   31 1     
   36   15   32 1     
@<TRIPOS>SUBSTRUCTURE
      1 ****           1
@<TRIPOS>SET
DONOR_HYDROGENS      STATIC     ATOMS    <user>   **** ""
4 33 34 35 36
ATOM$RED        STATIC     ATOMS    COLORGROUP SYSTEM
4 33 34 35 36
@<TRIPOS>COMMENT
> <Gold.Version>
2022.2.0

> <Gold.Id.Protein>
3pbl|protein|mol2

> <Gold.Protein.RotatedTorsions>
[ 1303 1298 1297 1294 ] final  164.50 input  179.99 | X-H torsion
[ 2461 2456 2455 2452 ] final   94.57 input   30.03 | X-H torsion
[ 2515 2510 2509 2506 ] final -100.75 input  -89.99 | X-H torsion
[ 3721 3712 3711 3710 ] final   55.98 input -179.91 | X-H torsion
[ 3841 3832 3831 3830 ] final  113.78 input -179.91 | X-H torsion
[ 3767 3762 3761 3758 ] final   96.21 input  -89.99 | X-H torsion
[ 2472 2467 2466 2463 ] final  102.88 input  -89.97 | X-H torsion

> <Gold.Protein.ActiveResidues>
 VAL82   VAL86   LEU89   PHE106  VAL107  ASP110  VAL111  MET112  CYS114  THR115 
 CYS181  SER182  ILE183  PHE188  VAL189  ILE190  SER192  SER193  SER196  TRP342 
 PHE345  PHE346  HIS349  VAL350  TYR365  THR369  GLY372  TYR373 

> <Gold.Protein.RotatedAtoms>
    4.9068   -9.0925    4.8014 H   0  0  0  0  0  0  0  0  0  0  0  0  # atno 1303 bound_to 1298
    2.1517   -8.3475    7.7773 H   0  0  0  0  0  0  0  0  0  0  0  0  # atno 2461 bound_to 2456
   -5.2604   -4.9815    7.9195 H   0  0  0  0  0  0  0  0  0  0  0  0  # atno 2472 bound_to 2467
    2.7939   -9.0529    4.7360 H   0  0  0  0  0  0  0  0  0  0  0  0  # atno 2515 bound_to 2510
   -2.5709  -17.9355   13.4339 H   0  0  0  0  0  0  0  0  0  0  0  0  # atno 3721 bound_to 3712
   -4.1294  -23.3153   10.5802 H   0  0  0  0  0  0  0  0  0  0  0  0  # atno 3767 bound_to 3762
    3.0465  -20.7782    9.0084 H   0  0  0  0  0  0  0  0  0  0  0  0  # atno 3841 bound_to 3832
    3.8031  -10.2533    4.4842 LP  0  0  0  0  0  0  0  0  0  0  0  0  # atno 4297 bound_to 1298
    3.6520   -8.7756    3.8058 LP  0  0  0  0  0  0  0  0  0  0  0  0  # atno 4298 bound_to 1298
    0.6778   -8.1789    7.0943 LP  0  0  0  0  0  0  0  0  0  0  0  0  # atno 4299 bound_to 2456
    0.9085   -9.2816    8.2765 LP  0  0  0  0  0  0  0  0  0  0  0  0  # atno 4300 bound_to 2456
    2.0961   -8.4753    6.0944 LP  0  0  0  0  0  0  0  0  0  0  0  0  # atno 4301 bound_to 2510
    2.4065   -7.4706    4.8451 LP  0  0  0  0  0  0  0  0  0  0  0  0  # atno 4302 bound_to 2510
   -3.0171  -17.3612   14.8653 LP  0  0  0  0  0  0  0  0  0  0  0  0  # atno 4306 bound_to 3712
   -3.5423  -16.6583   13.4881 LP  0  0  0  0  0  0  0  0  0  0  0  0  # atno 4307 bound_to 3712
    1.5164  -20.5386    9.4297 LP  0  0  0  0  0  0  0  0  0  0  0  0  # atno 4314 bound_to 3832
    2.1938  -19.6648    8.2279 LP  0  0  0  0  0  0  0  0  0  0  0  0  # atno 4315 bound_to 3832
   -5.4793  -22.4252   10.3514 LP  0  0  0  0  0  0  0  0  0  0  0  0  # atno 4318 bound_to 3762
   -4.5184  -22.1348   11.6394 LP  0  0  0  0  0  0  0  0  0  0  0  0  # atno 4319 bound_to 3762
   -3.6766   -4.9491    8.3154 LP  0  0  0  0  0  0  0  0  0  0  0  0  # atno 4320 bound_to 2467
   -4.7800   -5.4629    9.4041 LP  0  0  0  0  0  0  0  0  0  0  0  0  # atno 4321 bound_to 2467

> <Gold.Score>
     Score     S(PLP)   S(hbond)     S(cho)   S(metal)  DE(clash)   DE(tors)     intcor
     46.87     -44.65       1.00       0.00       0.00       1.07       0.07       0.43

> <Gold.PLP.Fitness>
46.8654

> <Gold.PLP.PLP>
-44.6475

> <Gold.PLP.part.hbond>
-0.9523

> <Gold.PLP.part.metal>
0.0000

> <Gold.PLP.part.buried>
-6.6977

> <Gold.PLP.part.nonpolar>
-38.2979

> <Gold.PLP.part.repulsive>
0.2822

> <Gold.PLP.ligand.clash>
1.0719

> <Gold.PLP.ligand.torsion>
0.0710

> <Gold.PLP.Chemscore.Hbond>
1.0000

> <Gold.PLP.Chemscore.CHOScore>
0.0000

> <Gold.PLP.Chemscore.Metal>
0.0000

> <Gold.Chemscore.Hbonds>
donor molecule, donor type, donor heavy atom, donor atom, acceptor molecule, acceptor atom, score
      L1  H    14    36       P1  2398  1.00

> <Gold.PLP.Chemscore.Internal.Correction>
0.4317

