#       Name:                EN300-260862_i002
#       Creating user name   fsindt
#       Creation time:       Wed Mar  1 14:20:00 2023


#       File generated by GOLD software.
#

@<TRIPOS>MOLECULE
EN300-260862_i002|amine_1|mol2|10990|dock16
    36    36     1
SMALL
USER_CHARGES


@<TRIPOS>ATOM
      1 C1          -0.8094 -21.4269  14.5026 C.3            1 <1>                0.0000
      2 C2           0.2407 -21.7868  13.4498 C.3            1 <1>                0.0000
      3 C3           1.2872 -22.7151  14.0697 C.3            1 <1>                0.0000
      4 C4          -0.4368 -22.4947  12.2747 C.3            1 <1>                0.0000
      5 O5           0.8874 -20.5756  12.9774 O.3            1 <1>                0.0000
      6 C6           1.3366 -19.7178  13.9129 C.2            1 <1>                0.0000
      7 O7           1.7034 -20.1349  14.9937 O.2            1 <1>                0.0000
      8 N8           1.3795 -18.3965  13.6507 N.am           1 <1>                0.0000
      9 C9           1.8456 -17.3540  14.5765 C.3            1 <1>                0.0000
     10 C10          1.6891 -15.9982  13.8562 C.3            1 <1>                0.0000
     11 C11          0.6161 -16.2998  12.7770 C.3            1 <1>                0.0000
     12 O12         -0.7004 -16.2201  13.3273 O.3            1 <1>                0.0000
     13 C13          0.7641 -15.3602  11.5786 C.3            1 <1>                0.0000
     14 N14          2.1576 -15.3747  11.1142 N.4            1 <1>                1.0000
     15 C15          0.9728 -17.7579  12.3856 C.3            1 <1>                0.0000
     16 H16         -0.3267 -20.9227  15.3397 H              1 <1>                0.0000
     17 H17         -1.5549 -20.7656  14.0610 H              1 <1>                0.0000
     18 H18         -1.2949 -22.3362  14.8572 H              1 <1>                0.0000
     19 H19          0.8017 -23.6243  14.4243 H              1 <1>                0.0000
     20 H20          2.0354 -22.9714  13.3196 H              1 <1>                0.0000
     21 H21          1.7699 -22.2108  14.9067 H              1 <1>                0.0000
     22 H22         -1.1823 -21.8333  11.8331 H              1 <1>                0.0000
     23 H23          0.3114 -22.7511  11.5247 H              1 <1>                0.0000
     24 H24         -0.9223 -23.4040  12.6293 H              1 <1>                0.0000
     25 H25          1.2394 -17.3646  15.4823 H              1 <1>                0.0000
     26 H26          2.8931 -17.5220  14.8270 H              1 <1>                0.0000
     27 H27          1.3365 -15.2327  14.5474 H              1 <1>                0.0000
     28 H28          2.6286 -15.6971  13.3924 H              1 <1>                0.0000
     29 H29          0.1091 -15.6927  10.7732 H              1 <1>                0.0000
     30 H30          0.4903 -14.3476  11.8749 H              1 <1>                0.0000
     31 H31          1.7937 -17.7682  11.6684 H              1 <1>                0.0000
     32 H32          0.1005 -18.2641  11.9724 H              1 <1>                0.0000
     33 H33         -0.7259 -15.9091  14.2425 H              1 <1>                0.0000
     34 H34          2.4247 -14.4464  10.8227 H              1 <1>                0.0000
     35 H35          2.7594 -15.6775  11.8654 H              1 <1>                0.0000
     36 H36          2.2460 -16.0102  10.3355 H              1 <1>                0.0000
@<TRIPOS>BOND
    1    1    2 1     
    2    1   16 1     
    3    1   17 1     
    4    1   18 1     
    5    2    3 1     
    6    2    4 1     
    7    2    5 1     
    8    3   19 1     
    9    3   20 1     
   10    3   21 1     
   11    4   22 1     
   12    4   23 1     
   13    4   24 1     
   14    5    6 1     
   15    6    7 2     
   16    6    8 am    
   17    8    9 1     
   18    8   15 1     
   19    9   10 1     
   20    9   25 1     
   21    9   26 1     
   22   10   11 1     
   23   10   27 1     
   24   10   28 1     
   25   11   12 1     
   26   11   13 1     
   27   11   15 1     
   28   12   33 1     
   29   13   14 1     
   30   13   29 1     
   31   13   30 1     
   32   14   34 1     
   33   14   35 1     
   34   14   36 1     
   35   15   31 1     
   36   15   32 1     
@<TRIPOS>SUBSTRUCTURE
      1 ****           1
@<TRIPOS>SET
DONOR_HYDROGENS      STATIC     ATOMS    <user>   **** ""
4 33 34 35 36
ATOM$RED        STATIC     ATOMS    COLORGROUP SYSTEM
4 33 34 35 36
@<TRIPOS>COMMENT
> <Gold.Version>
2022.2.0

> <Gold.Id.Protein>
3pbl|protein|mol2

> <Gold.Protein.RotatedTorsions>
[ 1303 1298 1297 1294 ] final -113.79 input  179.99 | X-H torsion
[ 2461 2456 2455 2452 ] final  -97.81 input   30.03 | X-H torsion
[ 2515 2510 2509 2506 ] final -139.58 input  -89.99 | X-H torsion
[ 3721 3712 3711 3710 ] final  106.35 input -179.91 | X-H torsion
[ 3841 3832 3831 3830 ] final  -33.62 input -179.91 | X-H torsion
[ 3767 3762 3761 3758 ] final -101.56 input  -89.99 | X-H torsion
[ 2472 2467 2466 2463 ] final   -9.39 input  -89.97 | X-H torsion

> <Gold.Protein.ActiveResidues>
 VAL82   VAL86   LEU89   PHE106  VAL107  ASP110  VAL111  MET112  CYS114  THR115 
 CYS181  SER182  ILE183  PHE188  VAL189  ILE190  SER192  SER193  SER196  TRP342 
 PHE345  PHE346  HIS349  VAL350  TYR365  THR369  GLY372  TYR373 

> <Gold.Protein.RotatedAtoms>
    4.1477   -8.4891    4.0397 H   0  0  0  0  0  0  0  0  0  0  0  0  # atno 1303 bound_to 1298
    0.3897   -8.9885    7.8025 H   0  0  0  0  0  0  0  0  0  0  0  0  # atno 2461 bound_to 2456
   -3.7219   -4.9141    8.2020 H   0  0  0  0  0  0  0  0  0  0  0  0  # atno 2472 bound_to 2467
    2.6017   -9.2574    5.2962 H   0  0  0  0  0  0  0  0  0  0  0  0  # atno 2515 bound_to 2510
   -2.9062  -17.4118   13.0381 H   0  0  0  0  0  0  0  0  0  0  0  0  # atno 3721 bound_to 3712
   -5.0914  -21.9158   11.3470 H   0  0  0  0  0  0  0  0  0  0  0  0  # atno 3767 bound_to 3762
    1.5648  -20.0885    9.3085 H   0  0  0  0  0  0  0  0  0  0  0  0  # atno 3841 bound_to 3832
    4.7921   -9.6819    4.9498 LP  0  0  0  0  0  0  0  0  0  0  0  0  # atno 4297 bound_to 1298
    3.4224   -9.9507    4.1022 LP  0  0  0  0  0  0  0  0  0  0  0  0  # atno 4298 bound_to 1298
    1.9547   -8.9011    8.2615 LP  0  0  0  0  0  0  0  0  0  0  0  0  # atno 4299 bound_to 2456
    1.3932   -7.9187    7.0841 LP  0  0  0  0  0  0  0  0  0  0  0  0  # atno 4300 bound_to 2456
    2.0302   -7.8709    5.9418 LP  0  0  0  0  0  0  0  0  0  0  0  0  # atno 4301 bound_to 2510
    2.6648   -7.8704    4.4372 LP  0  0  0  0  0  0  0  0  0  0  0  0  # atno 4302 bound_to 2510
   -2.6766  -18.0106   14.5100 LP  0  0  0  0  0  0  0  0  0  0  0  0  # atno 4306 bound_to 3712
   -3.4958  -16.6135   14.3003 LP  0  0  0  0  0  0  0  0  0  0  0  0  # atno 4307 bound_to 3712
    2.6408  -19.8729    8.1373 LP  0  0  0  0  0  0  0  0  0  0  0  0  # atno 4314 bound_to 3832
    2.7810  -21.1271    9.1736 LP  0  0  0  0  0  0  0  0  0  0  0  0  # atno 4315 bound_to 3832
   -3.9075  -23.0236   11.1523 LP  0  0  0  0  0  0  0  0  0  0  0  0  # atno 4318 bound_to 3762
   -5.1287  -22.9353   10.0719 LP  0  0  0  0  0  0  0  0  0  0  0  0  # atno 4319 bound_to 3762
   -4.6550   -5.4574    9.4270 LP  0  0  0  0  0  0  0  0  0  0  0  0  # atno 4320 bound_to 2467
   -5.3399   -5.0220    8.0100 LP  0  0  0  0  0  0  0  0  0  0  0  0  # atno 4321 bound_to 2467

> <Gold.Score>
     Score     S(PLP)   S(hbond)     S(cho)   S(metal)  DE(clash)   DE(tors)     intcor
     39.26     -33.82       2.00       0.00       0.00       0.00       0.49       0.42

> <Gold.PLP.Fitness>
39.2574

> <Gold.PLP.PLP>
-33.8165

> <Gold.PLP.part.hbond>
-2.0000

> <Gold.PLP.part.metal>
0.0000

> <Gold.PLP.part.buried>
-3.9563

> <Gold.PLP.part.nonpolar>
-28.3442

> <Gold.PLP.part.repulsive>
0.1028

> <Gold.PLP.ligand.clash>
0.0000

> <Gold.PLP.ligand.torsion>
0.4916

> <Gold.PLP.Chemscore.Hbond>
2.0000

> <Gold.PLP.Chemscore.CHOScore>
0.0000

> <Gold.PLP.Chemscore.Metal>
0.0000

> <Gold.Chemscore.Hbonds>
donor molecule, donor type, donor heavy atom, donor atom, acceptor molecule, acceptor atom, score
      L1  H    14    36       P1  1227  2.00

> <Gold.PLP.Chemscore.Internal.Correction>
0.4241

