#       Name:                EN300-260862_i002
#       Creating user name   fsindt
#       Creation time:       Wed Mar  1 14:20:03 2023


#       File generated by GOLD software.
#

@<TRIPOS>MOLECULE
EN300-260862_i002|amine_1|mol2|10990|dock19
    36    36     1
SMALL
USER_CHARGES


@<TRIPOS>ATOM
      1 C1          -1.9466  -9.4807   9.2977 C.3            1 <1>                0.0000
      2 C2          -1.5179 -10.6047  10.2431 C.3            1 <1>                0.0000
      3 C3          -0.1324 -10.2919  10.8121 C.3            1 <1>                0.0000
      4 C4          -2.5256 -10.7200  11.3885 C.3            1 <1>                0.0000
      5 O5          -1.4693 -11.8589   9.5131 O.3            1 <1>                0.0000
      6 C6          -0.5006 -11.9902   8.5873 C.2            1 <1>                0.0000
      7 O7           0.0698 -11.0056   8.1609 O.2            1 <1>                0.0000
      8 N8          -0.1634 -13.2137   8.1335 N.am           1 <1>                0.0000
      9 C9          -0.7695 -14.4831   8.5610 C.3            1 <1>                0.0000
     10 C10         -0.0512 -15.6144   7.7956 C.3            1 <1>                0.0000
     11 C11          1.3011 -14.9636   7.4021 C.3            1 <1>                0.0000
     12 O12          2.2345 -15.0290   8.4822 O.3            1 <1>                0.0000
     13 C13          1.8774 -15.6147   6.1431 C.3            1 <1>                0.0000
     14 N14          1.8663 -17.0753   6.2983 N.4            1 <1>                1.0000
     15 C15          0.8697 -13.5001   7.1216 C.3            1 <1>                0.0000
     16 H16         -1.2286  -9.3985   8.4818 H              1 <1>                0.0000
     17 H17         -2.9336  -9.7035   8.8923 H              1 <1>                0.0000
     18 H18         -1.9831  -8.5391   9.8458 H              1 <1>                0.0000
     19 H19         -0.1689  -9.3503  11.3602 H              1 <1>                0.0000
     20 H20          0.1730 -11.0927  11.4856 H              1 <1>                0.0000
     21 H21          0.5854 -10.2098   9.9961 H              1 <1>                0.0000
     22 H22         -3.5126 -10.9428  10.9831 H              1 <1>                0.0000
     23 H23         -2.2201 -11.5207  12.0619 H              1 <1>                0.0000
     24 H24         -2.5621  -9.7784  11.9366 H              1 <1>                0.0000
     25 H25         -0.6325 -14.6165   9.6341 H              1 <1>                0.0000
     26 H26         -1.8320 -14.4872   8.3175 H              1 <1>                0.0000
     27 H27          0.1095 -16.4764   8.4430 H              1 <1>                0.0000
     28 H28         -0.6158 -15.8979   6.9072 H              1 <1>                0.0000
     29 H29          1.2720 -15.3362   5.2805 H              1 <1>                0.0000
     30 H30          2.9016 -15.2729   5.9937 H              1 <1>                0.0000
     31 H31          0.4581 -13.4120   6.1161 H              1 <1>                0.0000
     32 H32          1.7160 -12.8246   7.2466 H              1 <1>                0.0000
     33 H33          2.2357 -15.8751   8.9504 H              1 <1>                0.0000
     34 H34          1.7873 -17.5095   5.3909 H              1 <1>                0.0000
     35 H35          2.7231 -17.3731   6.7402 H              1 <1>                0.0000
     36 H36          1.0808 -17.3468   6.8706 H              1 <1>                0.0000
@<TRIPOS>BOND
    1    1    2 1     
    2    1   16 1     
    3    1   17 1     
    4    1   18 1     
    5    2    3 1     
    6    2    4 1     
    7    2    5 1     
    8    3   19 1     
    9    3   20 1     
   10    3   21 1     
   11    4   22 1     
   12    4   23 1     
   13    4   24 1     
   14    5    6 1     
   15    6    7 2     
   16    6    8 am    
   17    8    9 1     
   18    8   15 1     
   19    9   10 1     
   20    9   25 1     
   21    9   26 1     
   22   10   11 1     
   23   10   27 1     
   24   10   28 1     
   25   11   12 1     
   26   11   13 1     
   27   11   15 1     
   28   12   33 1     
   29   13   14 1     
   30   13   29 1     
   31   13   30 1     
   32   14   34 1     
   33   14   35 1     
   34   14   36 1     
   35   15   31 1     
   36   15   32 1     
@<TRIPOS>SUBSTRUCTURE
      1 ****           1
@<TRIPOS>SET
DONOR_HYDROGENS      STATIC     ATOMS    <user>   **** ""
4 33 34 35 36
ATOM$RED        STATIC     ATOMS    COLORGROUP SYSTEM
4 33 34 35 36
@<TRIPOS>COMMENT
> <Gold.Version>
2022.2.0

> <Gold.Id.Protein>
3pbl|protein|mol2

> <Gold.Protein.RotatedTorsions>
[ 1303 1298 1297 1294 ] final  135.28 input  179.99 | X-H torsion
[ 2461 2456 2455 2452 ] final -115.70 input   30.03 | X-H torsion
[ 2515 2510 2509 2506 ] final -146.55 input  -89.99 | X-H torsion
[ 3721 3712 3711 3710 ] final -147.13 input -179.91 | X-H torsion
[ 3841 3832 3831 3830 ] final  117.50 input -179.91 | X-H torsion
[ 3767 3762 3761 3758 ] final   24.75 input  -89.99 | X-H torsion
[ 2472 2467 2466 2463 ] final   33.44 input  -89.97 | X-H torsion

> <Gold.Protein.ActiveResidues>
 VAL82   VAL86   LEU89   PHE106  VAL107  ASP110  VAL111  MET112  CYS114  THR115 
 CYS181  SER182  ILE183  PHE188  VAL189  ILE190  SER192  SER193  SER196  TRP342 
 PHE345  PHE346  HIS349  VAL350  TYR365  THR369  GLY372  TYR373 

> <Gold.Protein.RotatedAtoms>
    4.8493   -9.5448    4.9370 H   0  0  0  0  0  0  0  0  0  0  0  0  # atno 1303 bound_to 1298
    0.5307   -9.1441    8.0072 H   0  0  0  0  0  0  0  0  0  0  0  0  # atno 2461 bound_to 2456
   -4.2174   -4.8012    7.7376 H   0  0  0  0  0  0  0  0  0  0  0  0  # atno 2472 bound_to 2467
    2.5560   -9.2506    5.4010 H   0  0  0  0  0  0  0  0  0  0  0  0  # atno 2515 bound_to 2510
   -3.3204  -16.5348   14.0314 H   0  0  0  0  0  0  0  0  0  0  0  0  # atno 3721 bound_to 3712
   -5.0506  -23.0033   10.0636 H   0  0  0  0  0  0  0  0  0  0  0  0  # atno 3767 bound_to 3762
    3.0683  -20.7470    8.9670 H   0  0  0  0  0  0  0  0  0  0  0  0  # atno 3841 bound_to 3832
    3.4897  -10.0519    4.1883 LP  0  0  0  0  0  0  0  0  0  0  0  0  # atno 4297 bound_to 1298
    4.0229   -8.5245    3.9661 LP  0  0  0  0  0  0  0  0  0  0  0  0  # atno 4298 bound_to 1298
    2.0983   -8.6970    8.1077 LP  0  0  0  0  0  0  0  0  0  0  0  0  # atno 4299 bound_to 2456
    1.1086   -7.9673    7.0333 LP  0  0  0  0  0  0  0  0  0  0  0  0  # atno 4300 bound_to 2456
    2.0376   -7.7772    5.8763 LP  0  0  0  0  0  0  0  0  0  0  0  0  # atno 4301 bound_to 2510
    2.7031   -7.9709    4.3978 LP  0  0  0  0  0  0  0  0  0  0  0  0  # atno 4302 bound_to 2510
   -2.9653  -17.7369   13.0280 LP  0  0  0  0  0  0  0  0  0  0  0  0  # atno 4306 bound_to 3712
   -2.7290  -17.8997   14.6356 LP  0  0  0  0  0  0  0  0  0  0  0  0  # atno 4307 bound_to 3712
    1.5473  -20.5869    9.4537 LP  0  0  0  0  0  0  0  0  0  0  0  0  # atno 4314 bound_to 3832
    2.1376  -19.6525    8.2516 LP  0  0  0  0  0  0  0  0  0  0  0  0  # atno 4315 bound_to 3832
   -5.1669  -21.9152   11.2758 LP  0  0  0  0  0  0  0  0  0  0  0  0  # atno 4318 bound_to 3762
   -3.9100  -22.9567   11.2314 LP  0  0  0  0  0  0  0  0  0  0  0  0  # atno 4319 bound_to 3762
   -3.9980   -5.3277    9.2677 LP  0  0  0  0  0  0  0  0  0  0  0  0  # atno 4320 bound_to 2467
   -5.5015   -5.2646    8.6336 LP  0  0  0  0  0  0  0  0  0  0  0  0  # atno 4321 bound_to 2467

> <Gold.Score>
     Score     S(PLP)   S(hbond)     S(cho)   S(metal)  DE(clash)   DE(tors)     intcor
     43.09     -31.87       3.90       0.00       0.00       0.00       0.45       0.42

> <Gold.PLP.Fitness>
43.0875

> <Gold.PLP.PLP>
-31.8734

> <Gold.PLP.part.hbond>
-5.3217

> <Gold.PLP.part.metal>
0.0000

> <Gold.PLP.part.buried>
4.7751

> <Gold.PLP.part.nonpolar>
-33.3902

> <Gold.PLP.part.repulsive>
0.0203

> <Gold.PLP.ligand.clash>
0.0000

> <Gold.PLP.ligand.torsion>
0.4550

> <Gold.PLP.Chemscore.Hbond>
3.9000

> <Gold.PLP.Chemscore.CHOScore>
0.0000

> <Gold.PLP.Chemscore.Metal>
0.0000

> <Gold.Chemscore.Hbonds>
donor molecule, donor type, donor heavy atom, donor atom, acceptor molecule, acceptor atom, score
      L1  H    12    33       P1  1227  1.00
      L1  H    14    35       P1  1226  1.90
      P1  H  2456  2461       L1     7  1.00

> <Gold.PLP.Chemscore.Internal.Correction>
0.4241

