#       Name:                EN300-260862_i002
#       Creating user name   fsindt
#       Creation time:       Wed Mar  1 14:19:57 2023


#       File generated by GOLD software.
#

@<TRIPOS>MOLECULE
EN300-260862_i002|amine_1|mol2|10990|dock13
    36    36     1
SMALL
USER_CHARGES


@<TRIPOS>ATOM
      1 C1          -3.6154 -11.0170   9.8998 C.3            1 <1>                0.0000
      2 C2          -2.1243 -10.7012   9.7663 C.3            1 <1>                0.0000
      3 C3          -1.8852  -9.9006   8.4845 C.3            1 <1>                0.0000
      4 C4          -1.6668  -9.8799  10.9734 C.3            1 <1>                0.0000
      5 O5          -1.3702 -11.9407   9.7105 O.3            1 <1>                0.0000
      6 C6          -1.2813 -12.6540  10.8489 C.2            1 <1>                0.0000
      7 O7          -2.1054 -12.4997  11.7285 O.2            1 <1>                0.0000
      8 N8          -0.2784 -13.5393  11.0130 N.am           1 <1>                0.0000
      9 C9           0.7818 -13.8238  10.0351 C.3            1 <1>                0.0000
     10 C10          1.6845 -14.9178  10.6433 C.3            1 <1>                0.0000
     11 C11          0.7575 -15.5916  11.6892 C.3            1 <1>                0.0000
     12 O12         -0.0920 -16.5607  11.0717 O.3            1 <1>                0.0000
     13 C13          1.5732 -16.2225  12.8195 C.3            1 <1>                0.0000
     14 N14          2.5637 -17.1467  12.2516 N.4            1 <1>                1.0000
     15 C15         -0.0592 -14.3779  12.2055 C.3            1 <1>                0.0000
     16 H16         -3.9413 -11.6020   9.0398 H              1 <1>                0.0000
     17 H17         -3.7857 -11.5873  10.8129 H              1 <1>                0.0000
     18 H18         -4.1815 -10.0864   9.9417 H              1 <1>                0.0000
     19 H19         -2.4514  -8.9701   8.5265 H              1 <1>                0.0000
     20 H20         -0.8229  -9.6757   8.3895 H              1 <1>                0.0000
     21 H21         -2.2111 -10.4857   7.6246 H              1 <1>                0.0000
     22 H22         -1.8372 -10.4503  11.8866 H              1 <1>                0.0000
     23 H23         -0.6046  -9.6550  10.8783 H              1 <1>                0.0000
     24 H24         -2.2330  -8.9494  11.0154 H              1 <1>                0.0000
     25 H25          0.3414 -14.1818   9.1045 H              1 <1>                0.0000
     26 H26          1.3658 -12.9225   9.8487 H              1 <1>                0.0000
     27 H27          1.9900 -15.6339   9.8805 H              1 <1>                0.0000
     28 H28          2.5546 -14.4745  11.1279 H              1 <1>                0.0000
     29 H29          2.0854 -15.4395  13.3787 H              1 <1>                0.0000
     30 H30          0.9070 -16.7692  13.4869 H              1 <1>                0.0000
     31 H31          0.5077 -13.8326  12.9602 H              1 <1>                0.0000
     32 H32         -1.0143 -14.7091  12.6131 H              1 <1>                0.0000
     33 H33          0.0211 -16.6294  10.1138 H              1 <1>                0.0000
     34 H34          3.4910 -16.8513  12.5180 H              1 <1>                0.0000
     35 H35          2.3940 -18.0779  12.6010 H              1 <1>                0.0000
     36 H36          2.4865 -17.1458  11.2455 H              1 <1>                0.0000
@<TRIPOS>BOND
    1    1    2 1     
    2    1   16 1     
    3    1   17 1     
    4    1   18 1     
    5    2    3 1     
    6    2    4 1     
    7    2    5 1     
    8    3   19 1     
    9    3   20 1     
   10    3   21 1     
   11    4   22 1     
   12    4   23 1     
   13    4   24 1     
   14    5    6 1     
   15    6    7 2     
   16    6    8 am    
   17    8    9 1     
   18    8   15 1     
   19    9   10 1     
   20    9   25 1     
   21    9   26 1     
   22   10   11 1     
   23   10   27 1     
   24   10   28 1     
   25   11   12 1     
   26   11   13 1     
   27   11   15 1     
   28   12   33 1     
   29   13   14 1     
   30   13   29 1     
   31   13   30 1     
   32   14   34 1     
   33   14   35 1     
   34   14   36 1     
   35   15   31 1     
   36   15   32 1     
@<TRIPOS>SUBSTRUCTURE
      1 ****           1
@<TRIPOS>SET
DONOR_HYDROGENS      STATIC     ATOMS    <user>   **** ""
4 33 34 35 36
ATOM$RED        STATIC     ATOMS    COLORGROUP SYSTEM
4 33 34 35 36
@<TRIPOS>COMMENT
> <Gold.Version>
2022.2.0

> <Gold.Id.Protein>
3pbl|protein|mol2

> <Gold.Protein.RotatedTorsions>
[ 1303 1298 1297 1294 ] final -102.55 input  179.99 | X-H torsion
[ 2461 2456 2455 2452 ] final   93.03 input   30.03 | X-H torsion
[ 2515 2510 2509 2506 ] final  -53.51 input  -89.99 | X-H torsion
[ 3721 3712 3711 3710 ] final -164.57 input -179.91 | X-H torsion
[ 3841 3832 3831 3830 ] final -176.62 input -179.91 | X-H torsion
[ 3767 3762 3761 3758 ] final -177.06 input  -89.99 | X-H torsion
[ 2472 2467 2466 2463 ] final -114.00 input  -89.97 | X-H torsion

> <Gold.Protein.ActiveResidues>
 VAL82   VAL86   LEU89   PHE106  VAL107  ASP110  VAL111  MET112  CYS114  THR115 
 CYS181  SER182  ILE183  PHE188  VAL189  ILE190  SER192  SER193  SER196  TRP342 
 PHE345  PHE346  HIS349  VAL350  TYR365  THR369  GLY372  TYR373 

> <Gold.Protein.RotatedAtoms>
    3.9931   -8.5363    3.9506 H   0  0  0  0  0  0  0  0  0  0  0  0  # atno 1303 bound_to 1298
    2.1479   -8.3306    7.7590 H   0  0  0  0  0  0  0  0  0  0  0  0  # atno 2461 bound_to 2456
   -4.4041   -5.4297    9.4247 H   0  0  0  0  0  0  0  0  0  0  0  0  # atno 2472 bound_to 2467
    2.8094   -8.3961    4.3637 H   0  0  0  0  0  0  0  0  0  0  0  0  # atno 2515 bound_to 2510
   -3.3388  -16.5432   13.7696 H   0  0  0  0  0  0  0  0  0  0  0  0  # atno 3721 bound_to 3712
   -4.1219  -22.4966   11.5835 H   0  0  0  0  0  0  0  0  0  0  0  0  # atno 3767 bound_to 3762
    2.9276  -20.0119    8.3960 H   0  0  0  0  0  0  0  0  0  0  0  0  # atno 3841 bound_to 3832
    4.8609   -9.5115    4.9314 LP  0  0  0  0  0  0  0  0  0  0  0  0  # atno 4297 bound_to 1298
    3.5083  -10.0739    4.2097 LP  0  0  0  0  0  0  0  0  0  0  0  0  # atno 4298 bound_to 1298
    0.6588   -8.1935    7.1023 LP  0  0  0  0  0  0  0  0  0  0  0  0  # atno 4299 bound_to 2456
    0.9314   -9.2840    8.2868 LP  0  0  0  0  0  0  0  0  0  0  0  0  # atno 4300 bound_to 2456
    2.3682   -9.1005    5.7690 LP  0  0  0  0  0  0  0  0  0  0  0  0  # atno 4301 bound_to 2510
    2.1190   -7.5025    5.5430 LP  0  0  0  0  0  0  0  0  0  0  0  0  # atno 4302 bound_to 2510
   -2.8317  -17.9468   13.1774 LP  0  0  0  0  0  0  0  0  0  0  0  0  # atno 4306 bound_to 3712
   -2.8413  -17.6800   14.7884 LP  0  0  0  0  0  0  0  0  0  0  0  0  # atno 4307 bound_to 3712
    2.4239  -21.1472    9.4127 LP  0  0  0  0  0  0  0  0  0  0  0  0  # atno 4314 bound_to 3832
    1.4237  -19.9413    8.9523 LP  0  0  0  0  0  0  0  0  0  0  0  0  # atno 4315 bound_to 3832
   -4.5291  -23.2945   10.2181 LP  0  0  0  0  0  0  0  0  0  0  0  0  # atno 4318 bound_to 3762
   -5.4762  -22.0839   10.7697 LP  0  0  0  0  0  0  0  0  0  0  0  0  # atno 4319 bound_to 3762
   -5.4554   -5.1094    8.2170 LP  0  0  0  0  0  0  0  0  0  0  0  0  # atno 4320 bound_to 2467
   -3.8574   -4.8545    7.9976 LP  0  0  0  0  0  0  0  0  0  0  0  0  # atno 4321 bound_to 2467

> <Gold.Score>
     Score     S(PLP)   S(hbond)     S(cho)   S(metal)  DE(clash)   DE(tors)     intcor
     41.68     -36.20       2.00       0.00       0.00       0.00       0.48       0.43

> <Gold.PLP.Fitness>
41.6758

> <Gold.PLP.PLP>
-36.2029

> <Gold.PLP.part.hbond>
-2.2452

> <Gold.PLP.part.metal>
0.0000

> <Gold.PLP.part.buried>
3.3131

> <Gold.PLP.part.nonpolar>
-37.7180

> <Gold.PLP.part.repulsive>
0.0909

> <Gold.PLP.ligand.clash>
0.0000

> <Gold.PLP.ligand.torsion>
0.4788

> <Gold.PLP.Chemscore.Hbond>
2.0000

> <Gold.PLP.Chemscore.CHOScore>
0.0000

> <Gold.PLP.Chemscore.Metal>
0.0000

> <Gold.Chemscore.Hbonds>
donor molecule, donor type, donor heavy atom, donor atom, acceptor molecule, acceptor atom, score
      L1  H    14    36       P1  1227  2.00

> <Gold.PLP.Chemscore.Internal.Correction>
0.4304

