#       Name:                EN300-260862_i002
#       Creating user name   fsindt
#       Creation time:       Wed Mar  1 14:20:02 2023


#       File generated by GOLD software.
#

@<TRIPOS>MOLECULE
EN300-260862_i002|amine_1|mol2|10990|dock18
    36    36     1
SMALL
USER_CHARGES


@<TRIPOS>ATOM
      1 C1          -0.3263 -24.0635  14.6285 C.3            1 <1>                0.0000
      2 C2          -1.2870 -23.6095  13.5277 C.3            1 <1>                0.0000
      3 C3          -1.5931 -24.7872  12.6001 C.3            1 <1>                0.0000
      4 C4          -2.5865 -23.1071  14.1600 C.3            1 <1>                0.0000
      5 O5          -0.6749 -22.5375  12.7630 O.3            1 <1>                0.0000
      6 C6          -0.5848 -21.3345  13.3608 C.2            1 <1>                0.0000
      7 O7          -0.5813 -21.2574  14.5734 O.2            1 <1>                0.0000
      8 N8          -0.4986 -20.2157  12.6142 N.am           1 <1>                0.0000
      9 C9          -0.4925 -20.1646  11.1449 C.3            1 <1>                0.0000
     10 C10         -0.3527 -18.6823  10.7387 C.3            1 <1>                0.0000
     11 C11          0.2806 -18.0350  11.9984 C.3            1 <1>                0.0000
     12 O12          1.6976 -18.2204  12.0121 O.3            1 <1>                0.0000
     13 C13         -0.0760 -16.5499  12.0902 C.3            1 <1>                0.0000
     14 N14          0.5280 -15.8306  10.9609 N.4            1 <1>                1.0000
     15 C15         -0.4012 -18.8402  13.1356 C.3            1 <1>                0.0000
     16 H16          0.5994 -24.4214  14.1779 H              1 <1>                0.0000
     17 H17         -0.1083 -23.2245  15.2892 H              1 <1>                0.0000
     18 H18         -0.7859 -24.8682  15.2025 H              1 <1>                0.0000
     19 H19         -2.0526 -25.5918  13.1742 H              1 <1>                0.0000
     20 H20         -2.2775 -24.4636  11.8158 H              1 <1>                0.0000
     21 H21         -0.6674 -25.1450  12.1496 H              1 <1>                0.0000
     22 H22         -2.3684 -22.2681  14.8208 H              1 <1>                0.0000
     23 H23         -3.2708 -22.7836  13.3757 H              1 <1>                0.0000
     24 H24         -3.0460 -23.9117  14.7341 H              1 <1>                0.0000
     25 H25          0.3509 -20.7361  10.7576 H              1 <1>                0.0000
     26 H26         -1.4270 -20.5690  10.7560 H              1 <1>                0.0000
     27 H27          0.3083 -18.5790   9.8782 H              1 <1>                0.0000
     28 H28         -1.3296 -18.2457  10.5305 H              1 <1>                0.0000
     29 H29         -1.1594 -16.4338  12.0575 H              1 <1>                0.0000
     30 H30          0.3050 -16.1420  13.0265 H              1 <1>                0.0000
     31 H31         -1.3922 -18.4371  13.3444 H              1 <1>                0.0000
     32 H32          0.2140 -18.8218  14.0351 H              1 <1>                0.0000
     33 H33          2.1336 -17.9810  11.1829 H              1 <1>                0.0000
     34 H34          1.2222 -16.4163  10.5215 H              1 <1>                0.0000
     35 H35         -0.1880 -15.5962  10.2897 H              1 <1>                0.0000
     36 H36          0.9648 -14.9849  11.2957 H              1 <1>                0.0000
@<TRIPOS>BOND
    1    1    2 1     
    2    1   16 1     
    3    1   17 1     
    4    1   18 1     
    5    2    3 1     
    6    2    4 1     
    7    2    5 1     
    8    3   19 1     
    9    3   20 1     
   10    3   21 1     
   11    4   22 1     
   12    4   23 1     
   13    4   24 1     
   14    5    6 1     
   15    6    7 2     
   16    6    8 am    
   17    8    9 1     
   18    8   15 1     
   19    9   10 1     
   20    9   25 1     
   21    9   26 1     
   22   10   11 1     
   23   10   27 1     
   24   10   28 1     
   25   11   12 1     
   26   11   13 1     
   27   11   15 1     
   28   12   33 1     
   29   13   14 1     
   30   13   29 1     
   31   13   30 1     
   32   14   34 1     
   33   14   35 1     
   34   14   36 1     
   35   15   31 1     
   36   15   32 1     
@<TRIPOS>SUBSTRUCTURE
      1 ****           1
@<TRIPOS>SET
DONOR_HYDROGENS      STATIC     ATOMS    <user>   **** ""
4 33 34 35 36
ATOM$RED        STATIC     ATOMS    COLORGROUP SYSTEM
4 33 34 35 36
@<TRIPOS>COMMENT
> <Gold.Version>
2022.2.0

> <Gold.Id.Protein>
3pbl|protein|mol2

> <Gold.Protein.RotatedTorsions>
[ 1303 1298 1297 1294 ] final   79.13 input  179.99 | X-H torsion
[ 2461 2456 2455 2452 ] final   64.88 input   30.03 | X-H torsion
[ 2515 2510 2509 2506 ] final   93.36 input  -89.99 | X-H torsion
[ 3721 3712 3711 3710 ] final   85.02 input -179.91 | X-H torsion
[ 3841 3832 3831 3830 ] final   12.45 input -179.91 | X-H torsion
[ 3767 3762 3761 3758 ] final  134.69 input  -89.99 | X-H torsion
[ 2472 2467 2466 2463 ] final  -44.96 input  -89.97 | X-H torsion

> <Gold.Protein.ActiveResidues>
 VAL82   VAL86   LEU89   PHE106  VAL107  ASP110  VAL111  MET112  CYS114  THR115 
 CYS181  SER182  ILE183  PHE188  VAL189  ILE190  SER192  SER193  SER196  TRP342 
 PHE345  PHE346  HIS349  VAL350  TYR365  THR369  GLY372  TYR373 

> <Gold.Protein.RotatedAtoms>
    4.2709  -10.2012    4.7897 H   0  0  0  0  0  0  0  0  0  0  0  0  # atno 1303 bound_to 1298
    1.9669   -8.0656    7.4312 H   0  0  0  0  0  0  0  0  0  0  0  0  # atno 2461 bound_to 2456
   -3.6505   -5.1009    8.7421 H   0  0  0  0  0  0  0  0  0  0  0  0  # atno 2472 bound_to 2467
    2.0380   -7.7762    5.8753 H   0  0  0  0  0  0  0  0  0  0  0  0  # atno 2515 bound_to 2510
   -2.7480  -17.6725   13.1373 H   0  0  0  0  0  0  0  0  0  0  0  0  # atno 3721 bound_to 3712
   -3.9100  -23.0610   11.1030 H   0  0  0  0  0  0  0  0  0  0  0  0  # atno 3767 bound_to 3762
    1.8578  -20.6224    9.6050 H   0  0  0  0  0  0  0  0  0  0  0  0  # atno 3841 bound_to 3832
    3.3728   -9.2623    3.8007 LP  0  0  0  0  0  0  0  0  0  0  0  0  # atno 4297 bound_to 1298
    4.7184   -8.6575    4.5010 LP  0  0  0  0  0  0  0  0  0  0  0  0  # atno 4298 bound_to 1298
    0.3970   -8.5016    7.3186 LP  0  0  0  0  0  0  0  0  0  0  0  0  # atno 4299 bound_to 2456
    1.3741   -9.2408    8.3982 LP  0  0  0  0  0  0  0  0  0  0  0  0  # atno 4300 bound_to 2456
    2.7036   -7.9723    4.3973 LP  0  0  0  0  0  0  0  0  0  0  0  0  # atno 4301 bound_to 2510
    2.5553   -9.2508    5.4023 LP  0  0  0  0  0  0  0  0  0  0  0  0  # atno 4302 bound_to 2510
   -2.7954  -17.7677   14.7393 LP  0  0  0  0  0  0  0  0  0  0  0  0  # atno 4306 bound_to 3712
   -3.5597  -16.5554   13.9565 LP  0  0  0  0  0  0  0  0  0  0  0  0  # atno 4307 bound_to 3712
    1.9615  -19.6344    8.3444 LP  0  0  0  0  0  0  0  0  0  0  0  0  # atno 4314 bound_to 3832
    3.1218  -20.7489    8.6240 LP  0  0  0  0  0  0  0  0  0  0  0  0  # atno 4315 bound_to 3832
   -5.1725  -22.8929   10.0809 LP  0  0  0  0  0  0  0  0  0  0  0  0  # atno 4318 bound_to 3762
   -5.0446  -21.9214   11.3872 LP  0  0  0  0  0  0  0  0  0  0  0  0  # atno 4319 bound_to 3762
   -5.1829   -5.4330    9.1982 LP  0  0  0  0  0  0  0  0  0  0  0  0  # atno 4320 bound_to 2467
   -4.8833   -4.8597    7.6988 LP  0  0  0  0  0  0  0  0  0  0  0  0  # atno 4321 bound_to 2467

> <Gold.Score>
     Score     S(PLP)   S(hbond)     S(cho)   S(metal)  DE(clash)   DE(tors)     intcor
     38.24     -29.76       3.00       0.00       0.00       0.00       0.47       0.42

> <Gold.PLP.Fitness>
38.2402

> <Gold.PLP.PLP>
-29.7584

> <Gold.PLP.part.hbond>
-1.9777

> <Gold.PLP.part.metal>
0.0000

> <Gold.PLP.part.buried>
-3.0125

> <Gold.PLP.part.nonpolar>
-24.5846

> <Gold.PLP.part.repulsive>
0.0000

> <Gold.PLP.ligand.clash>
0.0000

> <Gold.PLP.ligand.torsion>
0.4712

> <Gold.PLP.Chemscore.Hbond>
3.0000

> <Gold.PLP.Chemscore.CHOScore>
0.0000

> <Gold.PLP.Chemscore.Metal>
0.0000

> <Gold.Chemscore.Hbonds>
donor molecule, donor type, donor heavy atom, donor atom, acceptor molecule, acceptor atom, score
      L1  H    12    33       P1  1227  1.00
      L1  H    14    34       P1  1227  2.00

> <Gold.PLP.Chemscore.Internal.Correction>
0.4241

