#       Name:                EN300-260862_i002
#       Creating user name   fsindt
#       Creation time:       Wed Mar  1 14:19:47 2023


#       File generated by GOLD software.
#

@<TRIPOS>MOLECULE
EN300-260862_i002
    36    36     1
SMALL
USER_CHARGES


@<TRIPOS>ATOM
      1 C1          -3.5798   0.7941  -1.1319 C.3            1 <1>                0.0000
      2 C2          -3.2795  -0.0152   0.1313 C.3            1 <1>                0.0000
      3 C3          -3.3263   0.9072   1.3512 C.3            1 <1>                0.0000
      4 C4          -4.3241  -1.1220   0.2884 C.3            1 <1>                0.0000
      5 O5          -1.9585  -0.6083   0.0235 O.3            1 <1>                0.0000
      6 C6          -0.9195   0.2357  -0.1210 C.2            1 <1>                0.0000
      7 O7          -1.1113   1.4351  -0.1560 O.2            1 <1>                0.0000
      8 N8           0.3334  -0.2497  -0.2268 N.am           1 <1>                0.0000
      9 C9           0.7064  -1.6715  -0.2007 C.3            1 <1>                0.0000
     10 C10          2.2427  -1.7445  -0.3275 C.3            1 <1>                0.0000
     11 C11          2.6980  -0.3405   0.1507 C.3            1 <1>                0.0000
     12 O12          2.7649  -0.2820   1.5770 O.3            1 <1>                0.0000
     13 C13          4.0407   0.0432  -0.4745 C.3            1 <1>                0.0000
     14 N14          4.4390   1.3751   0.0000 N.4            1 <1>                1.0000
     15 C15          1.5560   0.5569  -0.3943 C.3            1 <1>                0.0000
     16 H16         -2.8356   1.5826  -1.2437 H              1 <1>                0.0000
     17 H17         -3.5464   0.1370  -2.0009 H              1 <1>                0.0000
     18 H18         -4.5715   1.2393  -1.0509 H              1 <1>                0.0000
     19 H19         -4.3180   1.3524   1.4321 H              1 <1>                0.0000
     20 H20         -3.1123   0.3306   2.2511 H              1 <1>                0.0000
     21 H21         -2.5821   1.6956   1.2393 H              1 <1>                0.0000
     22 H22         -4.2907  -1.7791  -0.5807 H              1 <1>                0.0000
     23 H23         -4.1101  -1.6985   1.1883 H              1 <1>                0.0000
     24 H24         -5.3158  -0.6768   0.3693 H              1 <1>                0.0000
     25 H25          0.3905  -2.1204   0.7410 H              1 <1>                0.0000
     26 H26          0.2402  -2.1925  -1.0370 H              1 <1>                0.0000
     27 H27          2.6466  -2.5224   0.3204 H              1 <1>                0.0000
     28 H28          2.5366  -1.9131  -1.3636 H              1 <1>                0.0000
     29 H29          4.7974  -0.6866  -0.1864 H              1 <1>                0.0000
     30 H30          3.9449   0.0579  -1.5602 H              1 <1>                0.0000
     31 H31          1.7237   0.7871  -1.4465 H              1 <1>                0.0000
     32 H32          1.4837   1.4749   0.1889 H              1 <1>                0.0000
     33 H33          3.0451   0.5765   1.9227 H              1 <1>                0.0000
     34 H34          3.7386   2.0506  -0.2667 H              1 <1>                0.0000
     35 H35          4.5277   1.3615   1.0050 H              1 <1>                0.0000
     36 H36          5.3245   1.6281  -0.4123 H              1 <1>                0.0000
@<TRIPOS>BOND
    1    1    2 1     
    2    1   16 1     
    3    1   17 1     
    4    1   18 1     
    5    2    3 1     
    6    2    4 1     
    7    2    5 1     
    8    3   19 1     
    9    3   20 1     
   10    3   21 1     
   11    4   22 1     
   12    4   23 1     
   13    4   24 1     
   14    5    6 1     
   15    6    7 2     
   16    6    8 am    
   17    8    9 1     
   18    8   15 1     
   19    9   10 1     
   20    9   25 1     
   21    9   26 1     
   22   10   11 1     
   23   10   27 1     
   24   10   28 1     
   25   11   12 1     
   26   11   13 1     
   27   11   15 1     
   28   12   33 1     
   29   13   14 1     
   30   13   29 1     
   31   13   30 1     
   32   14   34 1     
   33   14   35 1     
   34   14   36 1     
   35   15   31 1     
   36   15   32 1     
@<TRIPOS>SUBSTRUCTURE
      1 ****           1
@<TRIPOS>SET
DONOR_HYDROGENS      STATIC     ATOMS    <user>   **** ""
4 33 34 35 36
ATOM$RED        STATIC     ATOMS    COLORGROUP SYSTEM
4 33 34 35 36
