#       Name:                EN300-260862_i002
#       Creating user name   fsindt
#       Creation time:       Wed Mar  1 14:19:50 2023


#       File generated by GOLD software.
#

@<TRIPOS>MOLECULE
EN300-260862_i002|amine_1|mol2|10990|dock4
    36    36     1
SMALL
USER_CHARGES


@<TRIPOS>ATOM
      1 C1          -1.0579 -22.3835  15.0908 C.3            1 <1>                0.0000
      2 C2          -0.5286 -21.8340  13.7646 C.3            1 <1>                0.0000
      3 C3           0.8758 -22.3848  13.5085 C.3            1 <1>                0.0000
      4 C4          -1.4591 -22.2611  12.6277 C.3            1 <1>                0.0000
      5 O5          -0.4757 -20.3843  13.8279 O.3            1 <1>                0.0000
      6 C6           0.5002 -19.8406  14.5794 C.2            1 <1>                0.0000
      7 O7           0.9379 -20.4461  15.5377 O.2            1 <1>                0.0000
      8 N8           0.9917 -18.6247  14.2688 N.am           1 <1>                0.0000
      9 C9           2.0529 -17.9171  14.9999 C.3            1 <1>                0.0000
     10 C10          2.2640 -16.5582  14.2998 C.3            1 <1>                0.0000
     11 C11          0.9202 -16.3379  13.5561 C.3            1 <1>                0.0000
     12 O12         -0.0674 -15.7931  14.4336 O.3            1 <1>                0.0000
     13 C13          1.1123 -15.4443  12.3292 C.3            1 <1>                0.0000
     14 N14          2.3715 -15.7961  11.6595 N.4            1 <1>                1.0000
     15 C15          0.5587 -17.7867  13.1357 C.3            1 <1>                0.0000
     16 H16         -0.3949 -22.0792  15.9006 H              1 <1>                0.0000
     17 H17         -2.0583 -21.9910  15.2732 H              1 <1>                0.0000
     18 H18         -1.0977 -23.4718  15.0431 H              1 <1>                0.0000
     19 H19          0.8360 -23.4731  13.4609 H              1 <1>                0.0000
     20 H20          1.2529 -21.9933  12.5637 H              1 <1>                0.0000
     21 H21          1.5386 -22.0805  14.3183 H              1 <1>                0.0000
     22 H22         -2.4596 -21.8687  12.8102 H              1 <1>                0.0000
     23 H23         -1.0820 -21.8697  11.6830 H              1 <1>                0.0000
     24 H24         -1.4989 -23.3494  12.5801 H              1 <1>                0.0000
     25 H25          1.7477 -17.7578  16.0341 H              1 <1>                0.0000
     26 H26          2.9751 -18.4975  14.9686 H              1 <1>                0.0000
     27 H27          2.4332 -15.7691  15.0324 H              1 <1>                0.0000
     28 H28          3.0917 -16.6131  13.5925 H              1 <1>                0.0000
     29 H29          0.2808 -15.5903  11.6396 H              1 <1>                0.0000
     30 H30          1.1462 -14.4006  12.6417 H              1 <1>                0.0000
     31 H31          1.0935 -18.0627  12.2269 H              1 <1>                0.0000
     32 H32         -0.5170 -17.8815  12.9875 H              1 <1>                0.0000
     33 H33         -0.9087 -15.5911  14.0018 H              1 <1>                0.0000
     34 H34          2.2153 -16.5741  11.0364 H              1 <1>                0.0000
     35 H35          2.7043 -15.0035  11.1312 H              1 <1>                0.0000
     36 H36          3.0601 -16.0522  12.3512 H              1 <1>                0.0000
@<TRIPOS>BOND
    1    1    2 1     
    2    1   16 1     
    3    1   17 1     
    4    1   18 1     
    5    2    3 1     
    6    2    4 1     
    7    2    5 1     
    8    3   19 1     
    9    3   20 1     
   10    3   21 1     
   11    4   22 1     
   12    4   23 1     
   13    4   24 1     
   14    5    6 1     
   15    6    7 2     
   16    6    8 am    
   17    8    9 1     
   18    8   15 1     
   19    9   10 1     
   20    9   25 1     
   21    9   26 1     
   22   10   11 1     
   23   10   27 1     
   24   10   28 1     
   25   11   12 1     
   26   11   13 1     
   27   11   15 1     
   28   12   33 1     
   29   13   14 1     
   30   13   29 1     
   31   13   30 1     
   32   14   34 1     
   33   14   35 1     
   34   14   36 1     
   35   15   31 1     
   36   15   32 1     
@<TRIPOS>SUBSTRUCTURE
      1 ****           1
@<TRIPOS>SET
DONOR_HYDROGENS      STATIC     ATOMS    <user>   **** ""
4 33 34 35 36
ATOM$RED        STATIC     ATOMS    COLORGROUP SYSTEM
4 33 34 35 36
@<TRIPOS>COMMENT
> <Gold.Version>
2022.2.0

> <Gold.Id.Protein>
3pbl|protein|mol2

> <Gold.Protein.RotatedTorsions>
[ 1303 1298 1297 1294 ] final   31.86 input  179.99 | X-H torsion
[ 2461 2456 2455 2452 ] final   -9.51 input   30.03 | X-H torsion
[ 2515 2510 2509 2506 ] final  141.02 input  -89.99 | X-H torsion
[ 3721 3712 3711 3710 ] final -120.31 input -179.91 | X-H torsion
[ 3841 3832 3831 3830 ] final   91.39 input -179.91 | X-H torsion
[ 3767 3762 3761 3758 ] final    5.56 input  -89.99 | X-H torsion
[ 2472 2467 2466 2463 ] final  108.16 input  -89.97 | X-H torsion

> <Gold.Protein.ActiveResidues>
 VAL82   VAL86   LEU89   PHE106  VAL107  ASP110  VAL111  MET112  CYS114  THR115 
 CYS181  SER182  ILE183  PHE188  VAL189  ILE190  SER192  SER193  SER196  TRP342 
 PHE345  PHE346  HIS349  VAL350  TYR365  THR369  GLY372  TYR373 

> <Gold.Protein.RotatedAtoms>
    3.6521  -10.1916    4.3560 H   0  0  0  0  0  0  0  0  0  0  0  0  # atno 1303 bound_to 1298
    0.8964   -8.0471    7.0390 H   0  0  0  0  0  0  0  0  0  0  0  0  # atno 2461 bound_to 2456
   -5.3161   -5.0094    7.9800 H   0  0  0  0  0  0  0  0  0  0  0  0  # atno 2472 bound_to 2467
    2.1035   -8.5034    6.0917 H   0  0  0  0  0  0  0  0  0  0  0  0  # atno 2515 bound_to 2510
   -3.2191  -16.6542   14.4015 H   0  0  0  0  0  0  0  0  0  0  0  0  # atno 3721 bound_to 3712
   -5.2702  -22.7846   10.1161 H   0  0  0  0  0  0  0  0  0  0  0  0  # atno 3767 bound_to 3762
    2.8571  -20.9161    9.2493 H   0  0  0  0  0  0  0  0  0  0  0  0  # atno 3841 bound_to 3832
    3.8030   -8.6434    3.8594 LP  0  0  0  0  0  0  0  0  0  0  0  0  # atno 4297 bound_to 1298
    4.9073   -9.2861    4.8762 LP  0  0  0  0  0  0  0  0  0  0  0  0  # atno 4298 bound_to 1298
    0.6880   -9.2289    8.1468 LP  0  0  0  0  0  0  0  0  0  0  0  0  # atno 4299 bound_to 2456
    2.1533   -8.5321    7.9622 LP  0  0  0  0  0  0  0  0  0  0  0  0  # atno 4300 bound_to 2456
    2.3941   -7.4607    4.8694 LP  0  0  0  0  0  0  0  0  0  0  0  0  # atno 4301 bound_to 2510
    2.7993   -9.0349    4.7137 LP  0  0  0  0  0  0  0  0  0  0  0  0  # atno 4302 bound_to 2510
   -3.1880  -17.3588   12.9591 LP  0  0  0  0  0  0  0  0  0  0  0  0  # atno 4306 bound_to 3712
   -2.6232  -18.1399   14.2772 LP  0  0  0  0  0  0  0  0  0  0  0  0  # atno 4307 bound_to 3712
    1.4002  -20.2428    9.2368 LP  0  0  0  0  0  0  0  0  0  0  0  0  # atno 4314 bound_to 3832
    2.5288  -19.8011    8.1425 LP  0  0  0  0  0  0  0  0  0  0  0  0  # atno 4315 bound_to 3832
   -4.9250  -21.9457   11.4740 LP  0  0  0  0  0  0  0  0  0  0  0  0  # atno 4318 bound_to 3762
   -3.9324  -23.1448   10.9806 LP  0  0  0  0  0  0  0  0  0  0  0  0  # atno 4319 bound_to 3762
   -3.7059   -4.9243    8.2376 LP  0  0  0  0  0  0  0  0  0  0  0  0  # atno 4320 bound_to 2467
   -4.6950   -5.4598    9.4214 LP  0  0  0  0  0  0  0  0  0  0  0  0  # atno 4321 bound_to 2467

> <Gold.Score>
     Score     S(PLP)   S(hbond)     S(cho)   S(metal)  DE(clash)   DE(tors)     intcor
     41.18     -33.17       3.00       0.00       0.00       0.00       0.71       0.43

> <Gold.PLP.Fitness>
41.1804

> <Gold.PLP.PLP>
-33.1673

> <Gold.PLP.part.hbond>
-2.0000

> <Gold.PLP.part.metal>
0.0000

> <Gold.PLP.part.buried>
-5.0800

> <Gold.PLP.part.nonpolar>
-26.9102

> <Gold.PLP.part.repulsive>
0.0795

> <Gold.PLP.ligand.clash>
0.0000

> <Gold.PLP.ligand.torsion>
0.7093

> <Gold.PLP.Chemscore.Hbond>
3.0000

> <Gold.PLP.Chemscore.CHOScore>
0.0000

> <Gold.PLP.Chemscore.Metal>
0.0000

> <Gold.Chemscore.Hbonds>
donor molecule, donor type, donor heavy atom, donor atom, acceptor molecule, acceptor atom, score
      L1  H    14    34       P1  1227  2.00
      P1  H  2305  2313       L1    12  1.00

> <Gold.PLP.Chemscore.Internal.Correction>
0.4317

