#       Name:                EN300-260862_i002
#       Creating user name   fsindt
#       Creation time:       Wed Mar  1 14:19:53 2023


#       File generated by GOLD software.
#

@<TRIPOS>MOLECULE
EN300-260862_i002|amine_1|mol2|10990|dock7
    36    36     1
SMALL
USER_CHARGES


@<TRIPOS>ATOM
      1 C1          -0.4132 -23.0818  15.7714 C.3            1 <1>                0.0000
      2 C2          -0.8722 -22.0826  14.7076 C.3            1 <1>                0.0000
      3 C3          -0.3273 -22.5053  13.3418 C.3            1 <1>                0.0000
      4 C4          -2.4012 -22.0545  14.6602 C.3            1 <1>                0.0000
      5 O5          -0.3739 -20.7596  15.0390 O.3            1 <1>                0.0000
      6 C6          -0.4983 -19.8059  14.0969 C.2            1 <1>                0.0000
      7 O7          -1.4204 -19.8491  13.3066 O.2            1 <1>                0.0000
      8 N8           0.3998 -18.8031  14.0303 N.am           1 <1>                0.0000
      9 C9           1.5581 -18.6301  14.9189 C.3            1 <1>                0.0000
     10 C10          2.2800 -17.3372  14.4841 C.3            1 <1>                0.0000
     11 C11          1.1683 -16.5522  13.7390 C.3            1 <1>                0.0000
     12 O12          0.3377 -15.8423  14.6600 O.3            1 <1>                0.0000
     13 C13          1.7693 -15.6014  12.7018 C.3            1 <1>                0.0000
     14 N14          2.8683 -16.2758  11.9981 N.4            1 <1>                1.0000
     15 C15          0.3869 -17.7018  13.0504 C.3            1 <1>                0.0000
     16 H16          0.6761 -23.1018  15.8051 H              1 <1>                0.0000
     17 H17         -0.8013 -22.7806  16.7444 H              1 <1>                0.0000
     18 H18         -0.7873 -24.0749  15.5225 H              1 <1>                0.0000
     19 H19         -0.7014 -23.4985  13.0930 H              1 <1>                0.0000
     20 H20         -0.6543 -21.7934  12.5839 H              1 <1>                0.0000
     21 H21          0.7619 -22.5253  13.3755 H              1 <1>                0.0000
     22 H22         -2.7894 -21.7533  15.6332 H              1 <1>                0.0000
     23 H23         -2.7282 -21.3426  13.9023 H              1 <1>                0.0000
     24 H24         -2.7754 -23.0476  14.4114 H              1 <1>                0.0000
     25 H25          1.2225 -18.5376  15.9518 H              1 <1>                0.0000
     26 H26          2.2314 -19.4817  14.8205 H              1 <1>                0.0000
     27 H27          2.6296 -16.7798  15.3530 H              1 <1>                0.0000
     28 H28          3.1077 -17.5650  13.8122 H              1 <1>                0.0000
     29 H29          1.0007 -15.3137  11.9844 H              1 <1>                0.0000
     30 H30          2.1503 -14.7114  13.2026 H              1 <1>                0.0000
     31 H31          0.8863 -18.0012  12.1288 H              1 <1>                0.0000
     32 H32         -0.6382 -17.3936  12.8445 H              1 <1>                0.0000
     33 H33         -0.3590 -15.3200  14.2393 H              1 <1>                0.0000
     34 H34          2.4982 -16.7978  11.2181 H              1 <1>                0.0000
     35 H35          3.5245 -15.5873  11.6612 H              1 <1>                0.0000
     36 H36          3.3373 -16.9054  12.6320 H              1 <1>                0.0000
@<TRIPOS>BOND
    1    1    2 1     
    2    1   16 1     
    3    1   17 1     
    4    1   18 1     
    5    2    3 1     
    6    2    4 1     
    7    2    5 1     
    8    3   19 1     
    9    3   20 1     
   10    3   21 1     
   11    4   22 1     
   12    4   23 1     
   13    4   24 1     
   14    5    6 1     
   15    6    7 2     
   16    6    8 am    
   17    8    9 1     
   18    8   15 1     
   19    9   10 1     
   20    9   25 1     
   21    9   26 1     
   22   10   11 1     
   23   10   27 1     
   24   10   28 1     
   25   11   12 1     
   26   11   13 1     
   27   11   15 1     
   28   12   33 1     
   29   13   14 1     
   30   13   29 1     
   31   13   30 1     
   32   14   34 1     
   33   14   35 1     
   34   14   36 1     
   35   15   31 1     
   36   15   32 1     
@<TRIPOS>SUBSTRUCTURE
      1 ****           1
@<TRIPOS>SET
DONOR_HYDROGENS      STATIC     ATOMS    <user>   **** ""
4 33 34 35 36
ATOM$RED        STATIC     ATOMS    COLORGROUP SYSTEM
4 33 34 35 36
@<TRIPOS>COMMENT
> <Gold.Version>
2022.2.0

> <Gold.Id.Protein>
3pbl|protein|mol2

> <Gold.Protein.RotatedTorsions>
[ 1303 1298 1297 1294 ] final -149.69 input  179.99 | X-H torsion
[ 2461 2456 2455 2452 ] final    7.86 input   30.03 | X-H torsion
[ 2515 2510 2509 2506 ] final  151.39 input  -89.99 | X-H torsion
[ 3721 3712 3711 3710 ] final   38.09 input -179.91 | X-H torsion
[ 3841 3832 3831 3830 ] final  111.32 input -179.91 | X-H torsion
[ 3767 3762 3761 3758 ] final -140.94 input  -89.99 | X-H torsion
[ 2472 2467 2466 2463 ] final   79.50 input  -89.97 | X-H torsion

> <Gold.Protein.ActiveResidues>
 VAL82   VAL86   LEU89   PHE106  VAL107  ASP110  VAL111  MET112  CYS114  THR115 
 CYS181  SER182  ILE183  PHE188  VAL189  ILE190  SER192  SER193  SER196  TRP342 
 PHE345  PHE346  HIS349  VAL350  TYR365  THR369  GLY372  TYR373 

> <Gold.Protein.RotatedAtoms>
    4.6061   -8.5661    4.3882 H   0  0  0  0  0  0  0  0  0  0  0  0  # atno 1303 bound_to 1298
    1.1649   -7.9523    7.0380 H   0  0  0  0  0  0  0  0  0  0  0  0  # atno 2461 bound_to 2456
   -4.9512   -4.8761    7.7216 H   0  0  0  0  0  0  0  0  0  0  0  0  # atno 2472 bound_to 2467
    2.1509   -8.6642    6.0614 H   0  0  0  0  0  0  0  0  0  0  0  0  # atno 2515 bound_to 2510
   -2.5015  -18.0184   13.6806 H   0  0  0  0  0  0  0  0  0  0  0  0  # atno 3721 bound_to 3712
   -4.5570  -22.1092   11.6316 H   0  0  0  0  0  0  0  0  0  0  0  0  # atno 3767 bound_to 3762
    3.0305  -20.7975    9.0357 H   0  0  0  0  0  0  0  0  0  0  0  0  # atno 3841 bound_to 3832
    4.4189  -10.1182    4.8597 LP  0  0  0  0  0  0  0  0  0  0  0  0  # atno 4297 bound_to 1298
    3.3369   -9.4374    3.8437 LP  0  0  0  0  0  0  0  0  0  0  0  0  # atno 4298 bound_to 1298
    0.4969   -9.1168    7.9681 LP  0  0  0  0  0  0  0  0  0  0  0  0  # atno 4299 bound_to 2456
    2.0760   -8.7389    8.1418 LP  0  0  0  0  0  0  0  0  0  0  0  0  # atno 4300 bound_to 2456
    2.3224   -7.4197    5.0185 LP  0  0  0  0  0  0  0  0  0  0  0  0  # atno 4301 bound_to 2510
    2.8235   -8.9151    4.5950 LP  0  0  0  0  0  0  0  0  0  0  0  0  # atno 4302 bound_to 2510
   -3.1665  -17.1071   14.8230 LP  0  0  0  0  0  0  0  0  0  0  0  0  # atno 4306 bound_to 3712
   -3.4732  -16.8166   13.2456 LP  0  0  0  0  0  0  0  0  0  0  0  0  # atno 4307 bound_to 3712
    1.4977  -20.5064    9.4124 LP  0  0  0  0  0  0  0  0  0  0  0  0  # atno 4314 bound_to 3832
    2.2309  -19.6746    8.2136 LP  0  0  0  0  0  0  0  0  0  0  0  0  # atno 4315 bound_to 3832
   -4.1030  -23.3064   10.6181 LP  0  0  0  0  0  0  0  0  0  0  0  0  # atno 4318 bound_to 3762
   -5.4672  -22.4592   10.3217 LP  0  0  0  0  0  0  0  0  0  0  0  0  # atno 4319 bound_to 3762
   -3.6400   -5.0745    8.6744 LP  0  0  0  0  0  0  0  0  0  0  0  0  # atno 4320 bound_to 2467
   -5.1258   -5.4429    9.2430 LP  0  0  0  0  0  0  0  0  0  0  0  0  # atno 4321 bound_to 2467

> <Gold.Score>
     Score     S(PLP)   S(hbond)     S(cho)   S(metal)  DE(clash)   DE(tors)     intcor
     41.81     -31.03       3.86       0.00       0.00       0.00       0.62       0.43

> <Gold.PLP.Fitness>
41.8084

> <Gold.PLP.PLP>
-31.0312

> <Gold.PLP.part.hbond>
-3.0000

> <Gold.PLP.part.metal>
0.0000

> <Gold.PLP.part.buried>
-4.8423

> <Gold.PLP.part.nonpolar>
-24.1474

> <Gold.PLP.part.repulsive>
0.0065

> <Gold.PLP.ligand.clash>
0.0000

> <Gold.PLP.ligand.torsion>
0.6190

> <Gold.PLP.Chemscore.Hbond>
3.8613

> <Gold.PLP.Chemscore.CHOScore>
0.0000

> <Gold.PLP.Chemscore.Metal>
0.0000

> <Gold.Chemscore.Hbonds>
donor molecule, donor type, donor heavy atom, donor atom, acceptor molecule, acceptor atom, score
      L1  H    14    34       P1  1227  2.00
      P1  H  2305  2313       L1    12  1.00
      P1  H  3712  3721       L1     7  0.86

> <Gold.PLP.Chemscore.Internal.Correction>
0.4314

