#       Name:                EN300-260862_i002
#       Creating user name   fsindt
#       Creation time:       Wed Mar  1 14:19:54 2023


#       File generated by GOLD software.
#

@<TRIPOS>MOLECULE
EN300-260862_i002|amine_1|mol2|10990|dock9
    36    36     1
SMALL
USER_CHARGES


@<TRIPOS>ATOM
      1 C1          -0.4153 -24.5917  13.8062 C.3            1 <1>                0.0000
      2 C2          -0.7837 -23.5768  14.8901 C.3            1 <1>                0.0000
      3 C3          -2.1535 -22.9709  14.5773 C.3            1 <1>                0.0000
      4 C4          -0.8343 -24.2776  16.2492 C.3            1 <1>                0.0000
      5 O5           0.2147 -22.5230  14.9259 O.3            1 <1>                0.0000
      6 C6           0.2352 -21.6649  13.8887 C.2            1 <1>                0.0000
      7 O7          -0.2093 -22.0048  12.8100 O.2            1 <1>                0.0000
      8 N8           0.7487 -20.4288  14.0466 N.am           1 <1>                0.0000
      9 C9           1.3175 -19.8899  15.2906 C.3            1 <1>                0.0000
     10 C10          1.7530 -18.4375  15.0036 C.3            1 <1>                0.0000
     11 C11          0.8898 -18.0524  13.7733 C.3            1 <1>                0.0000
     12 O12         -0.4176 -17.6377  14.1746 O.3            1 <1>                0.0000
     13 C13          1.5747 -16.9668  12.9407 C.3            1 <1>                0.0000
     14 N14          2.9035 -17.4344  12.5243 N.4            1 <1>                1.0000
     15 C15          0.8389 -19.3956  12.9989 C.3            1 <1>                0.0000
     16 H16         -0.3793 -24.0923  12.8380 H              1 <1>                0.0000
     17 H17          0.5605 -25.0232  14.0290 H              1 <1>                0.0000
     18 H18         -1.1648 -25.3827  13.7793 H              1 <1>                0.0000
     19 H19         -2.9029 -23.7620  14.5504 H              1 <1>                0.0000
     20 H20         -2.4159 -22.2478  15.3495 H              1 <1>                0.0000
     21 H21         -2.1174 -22.4716  13.6092 H              1 <1>                0.0000
     22 H22          0.1415 -24.7092  16.4720 H              1 <1>                0.0000
     23 H23         -1.0968 -23.5545  17.0213 H              1 <1>                0.0000
     24 H24         -1.5838 -25.0687  16.2223 H              1 <1>                0.0000
     25 H25          0.5643 -19.9022  16.0784 H              1 <1>                0.0000
     26 H26          2.1810 -20.4834  15.5910 H              1 <1>                0.0000
     27 H27          1.5254 -17.7919  15.8518 H              1 <1>                0.0000
     28 H28          2.8144 -18.3943  14.7587 H              1 <1>                0.0000
     29 H29          0.9722 -16.7513  12.0583 H              1 <1>                0.0000
     30 H30          1.6791 -16.0617  13.5392 H              1 <1>                0.0000
     31 H31          1.7446 -19.5265  12.4066 H              1 <1>                0.0000
     32 H32         -0.0425 -19.4313  12.3587 H              1 <1>                0.0000
     33 H33         -0.4349 -16.7948  14.6481 H              1 <1>                0.0000
     34 H34          3.6133 -16.9069  13.0101 H              1 <1>                0.0000
     35 H35          3.0006 -18.4137  12.7472 H              1 <1>                0.0000
     36 H36          3.0094 -17.3039  11.5294 H              1 <1>                0.0000
@<TRIPOS>BOND
    1    1    2 1     
    2    1   16 1     
    3    1   17 1     
    4    1   18 1     
    5    2    3 1     
    6    2    4 1     
    7    2    5 1     
    8    3   19 1     
    9    3   20 1     
   10    3   21 1     
   11    4   22 1     
   12    4   23 1     
   13    4   24 1     
   14    5    6 1     
   15    6    7 2     
   16    6    8 am    
   17    8    9 1     
   18    8   15 1     
   19    9   10 1     
   20    9   25 1     
   21    9   26 1     
   22   10   11 1     
   23   10   27 1     
   24   10   28 1     
   25   11   12 1     
   26   11   13 1     
   27   11   15 1     
   28   12   33 1     
   29   13   14 1     
   30   13   29 1     
   31   13   30 1     
   32   14   34 1     
   33   14   35 1     
   34   14   36 1     
   35   15   31 1     
   36   15   32 1     
@<TRIPOS>SUBSTRUCTURE
      1 ****           1
@<TRIPOS>SET
DONOR_HYDROGENS      STATIC     ATOMS    <user>   **** ""
4 33 34 35 36
ATOM$RED        STATIC     ATOMS    COLORGROUP SYSTEM
4 33 34 35 36
@<TRIPOS>COMMENT
> <Gold.Version>
2022.2.0

> <Gold.Id.Protein>
3pbl|protein|mol2

> <Gold.Protein.RotatedTorsions>
[ 1303 1298 1297 1294 ] final   85.12 input  179.99 | X-H torsion
[ 2461 2456 2455 2452 ] final   68.94 input   30.03 | X-H torsion
[ 2515 2510 2509 2506 ] final -120.38 input  -89.99 | X-H torsion
[ 3721 3712 3711 3710 ] final   12.56 input -179.91 | X-H torsion
[ 3841 3832 3831 3830 ] final -160.24 input -179.91 | X-H torsion
[ 3767 3762 3761 3758 ] final  -19.99 input  -89.99 | X-H torsion
[ 2472 2467 2466 2463 ] final   43.76 input  -89.97 | X-H torsion

> <Gold.Protein.ActiveResidues>
 VAL82   VAL86   LEU89   PHE106  VAL107  ASP110  VAL111  MET112  CYS114  THR115 
 CYS181  SER182  ILE183  PHE188  VAL189  ILE190  SER192  SER193  SER196  TRP342 
 PHE345  PHE346  HIS349  VAL350  TYR365  THR369  GLY372  TYR373 

> <Gold.Protein.RotatedAtoms>
    4.3511  -10.1602    4.8296 H   0  0  0  0  0  0  0  0  0  0  0  0  # atno 1303 bound_to 1298
    2.0050   -8.0972    7.4761 H   0  0  0  0  0  0  0  0  0  0  0  0  # atno 2461 bound_to 2456
   -4.3787   -4.8000    7.6851 H   0  0  0  0  0  0  0  0  0  0  0  0  # atno 2472 bound_to 2467
    2.7127   -9.2059    5.0067 H   0  0  0  0  0  0  0  0  0  0  0  0  # atno 2515 bound_to 2510
   -2.4707  -18.0129   14.0621 H   0  0  0  0  0  0  0  0  0  0  0  0  # atno 3721 bound_to 3712
   -5.4625  -22.4702   10.3115 H   0  0  0  0  0  0  0  0  0  0  0  0  # atno 3767 bound_to 3762
    2.7544  -19.8420    8.3511 H   0  0  0  0  0  0  0  0  0  0  0  0  # atno 3841 bound_to 3832
    3.3500   -9.3559    3.8211 LP  0  0  0  0  0  0  0  0  0  0  0  0  # atno 4297 bound_to 1298
    4.6610   -8.6049    4.4407 LP  0  0  0  0  0  0  0  0  0  0  0  0  # atno 4298 bound_to 1298
    0.4233   -8.4538    7.2801 LP  0  0  0  0  0  0  0  0  0  0  0  0  # atno 4299 bound_to 2456
    1.3097   -9.2570    8.3919 LP  0  0  0  0  0  0  0  0  0  0  0  0  # atno 4300 bound_to 2456
    2.0405   -8.1600    6.0650 LP  0  0  0  0  0  0  0  0  0  0  0  0  # atno 4301 bound_to 2510
    2.5434   -7.6328    4.6036 LP  0  0  0  0  0  0  0  0  0  0  0  0  # atno 4302 bound_to 2510
   -3.3629  -16.7969   14.6126 LP  0  0  0  0  0  0  0  0  0  0  0  0  # atno 4306 bound_to 3712
   -3.3123  -17.1332   13.0154 LP  0  0  0  0  0  0  0  0  0  0  0  0  # atno 4307 bound_to 3712
    2.6579  -21.1526    9.2726 LP  0  0  0  0  0  0  0  0  0  0  0  0  # atno 4314 bound_to 3832
    1.3896  -20.1321    9.1443 LP  0  0  0  0  0  0  0  0  0  0  0  0  # atno 4315 bound_to 3832
   -4.5706  -22.1017   11.6289 LP  0  0  0  0  0  0  0  0  0  0  0  0  # atno 4318 bound_to 3762
   -4.0945  -23.3030   10.6305 LP  0  0  0  0  0  0  0  0  0  0  0  0  # atno 4319 bound_to 3762
   -3.8744   -5.2765    9.1634 LP  0  0  0  0  0  0  0  0  0  0  0  0  # atno 4320 bound_to 2467
   -5.4638   -5.3170    8.7905 LP  0  0  0  0  0  0  0  0  0  0  0  0  # atno 4321 bound_to 2467

> <Gold.Score>
     Score     S(PLP)   S(hbond)     S(cho)   S(metal)  DE(clash)   DE(tors)     intcor
     39.69     -31.68       2.82       0.00       0.00       0.00       0.44       0.43

> <Gold.PLP.Fitness>
39.6854

> <Gold.PLP.PLP>
-31.6787

> <Gold.PLP.part.hbond>
-2.0000

> <Gold.PLP.part.metal>
0.0000

> <Gold.PLP.part.buried>
-4.9727

> <Gold.PLP.part.nonpolar>
-24.4202

> <Gold.PLP.part.repulsive>
0.0000

> <Gold.PLP.ligand.clash>
0.0000

> <Gold.PLP.ligand.torsion>
0.4364

> <Gold.PLP.Chemscore.Hbond>
2.8160

> <Gold.PLP.Chemscore.CHOScore>
0.0000

> <Gold.PLP.Chemscore.Metal>
0.0000

> <Gold.Chemscore.Hbonds>
donor molecule, donor type, donor heavy atom, donor atom, acceptor molecule, acceptor atom, score
      L1  H    14    36       P1  1227  2.00
      P1  H  3712  3721       L1    12  0.82

> <Gold.PLP.Chemscore.Internal.Correction>
0.4314

