#       Name:                EN300-260862_i002
#       Creating user name   fsindt
#       Creation time:       Wed Mar  1 14:19:48 2023


#       File generated by GOLD software.
#

@<TRIPOS>MOLECULE
EN300-260862_i002|amine_1|mol2|10990|dock1
    36    36     1
SMALL
USER_CHARGES


@<TRIPOS>ATOM
      1 C1          -0.0475 -22.1099  12.3193 C.3            1 <1>                0.0000
      2 C2           0.0536 -21.8848  13.8292 C.3            1 <1>                0.0000
      3 C3          -1.3075 -22.1486  14.4765 C.3            1 <1>                0.0000
      4 C4           1.0927 -22.8406  14.4190 C.3            1 <1>                0.0000
      5 O5           0.4552 -20.5137  14.0884 O.3            1 <1>                0.0000
      6 C6          -0.2287 -19.5455  13.4500 C.2            1 <1>                0.0000
      7 O7          -1.3962 -19.7165  13.1598 O.2            1 <1>                0.0000
      8 N8           0.3816 -18.3864  13.1328 N.am           1 <1>                0.0000
      9 C9           1.7829 -18.0487  13.4224 C.3            1 <1>                0.0000
     10 C10          2.0262 -16.6168  12.9009 C.3            1 <1>                0.0000
     11 C11          0.5965 -16.0160  12.8547 C.3            1 <1>                0.0000
     12 O12          0.2002 -15.5375  14.1416 O.3            1 <1>                0.0000
     13 C13          0.5019 -14.9052  11.8068 C.3            1 <1>                0.0000
     14 N14          0.7216 -15.4731  10.4700 N.4            1 <1>                1.0000
     15 C15         -0.2436 -17.2498  12.4322 C.3            1 <1>                0.0000
     16 H16         -0.7877 -21.4290  11.8992 H              1 <1>                0.0000
     17 H17          0.9221 -21.9219  11.8582 H              1 <1>                0.0000
     18 H18         -0.3489 -23.1392  12.1248 H              1 <1>                0.0000
     19 H19         -1.6088 -23.1779  14.2820 H              1 <1>                0.0000
     20 H20         -1.2354 -21.9882  15.5522 H              1 <1>                0.0000
     21 H21         -2.0476 -21.4677  14.0564 H              1 <1>                0.0000
     22 H22          2.0623 -22.6526  13.9578 H              1 <1>                0.0000
     23 H23          1.1647 -22.6802  15.4947 H              1 <1>                0.0000
     24 H24          0.7913 -23.8699  14.2244 H              1 <1>                0.0000
     25 H25          1.9587 -18.0865  14.4975 H              1 <1>                0.0000
     26 H26          2.4457 -18.7471  12.9114 H              1 <1>                0.0000
     27 H27          2.6577 -16.0572  13.5910 H              1 <1>                0.0000
     28 H28          2.4676 -16.6391  11.9044 H              1 <1>                0.0000
     29 H29         -0.4870 -14.4486  11.8497 H              1 <1>                0.0000
     30 H30          1.2603 -14.1490  12.0095 H              1 <1>                0.0000
     31 H31         -0.1951 -17.3900  11.3523 H              1 <1>                0.0000
     32 H32         -1.2782 -17.1327  12.7543 H              1 <1>                0.0000
     33 H33         -0.6353 -15.0507  14.1401 H              1 <1>                0.0000
     34 H34          1.4744 -16.1436  10.5090 H              1 <1>                0.0000
     35 H35         -0.1210 -15.9312  10.1566 H              1 <1>                0.0000
     36 H36          0.9621 -14.7343   9.8262 H              1 <1>                0.0000
@<TRIPOS>BOND
    1    1    2 1     
    2    1   16 1     
    3    1   17 1     
    4    1   18 1     
    5    2    3 1     
    6    2    4 1     
    7    2    5 1     
    8    3   19 1     
    9    3   20 1     
   10    3   21 1     
   11    4   22 1     
   12    4   23 1     
   13    4   24 1     
   14    5    6 1     
   15    6    7 2     
   16    6    8 am    
   17    8    9 1     
   18    8   15 1     
   19    9   10 1     
   20    9   25 1     
   21    9   26 1     
   22   10   11 1     
   23   10   27 1     
   24   10   28 1     
   25   11   12 1     
   26   11   13 1     
   27   11   15 1     
   28   12   33 1     
   29   13   14 1     
   30   13   29 1     
   31   13   30 1     
   32   14   34 1     
   33   14   35 1     
   34   14   36 1     
   35   15   31 1     
   36   15   32 1     
@<TRIPOS>SUBSTRUCTURE
      1 ****           1
@<TRIPOS>SET
DONOR_HYDROGENS      STATIC     ATOMS    <user>   **** ""
4 33 34 35 36
ATOM$RED        STATIC     ATOMS    COLORGROUP SYSTEM
4 33 34 35 36
@<TRIPOS>COMMENT
> <Gold.Version>
2022.2.0

> <Gold.Id.Protein>
3pbl|protein|mol2

> <Gold.Protein.RotatedTorsions>
[ 1303 1298 1297 1294 ] final  -98.97 input  179.99 | X-H torsion
[ 2461 2456 2455 2452 ] final -104.23 input   30.03 | X-H torsion
[ 2515 2510 2509 2506 ] final  117.05 input  -89.99 | X-H torsion
[ 3721 3712 3711 3710 ] final   44.61 input -179.91 | X-H torsion
[ 3841 3832 3831 3830 ] final  -76.52 input -179.91 | X-H torsion
[ 3767 3762 3761 3758 ] final  119.69 input  -89.99 | X-H torsion
[ 2472 2467 2466 2463 ] final  -57.67 input  -89.97 | X-H torsion

> <Gold.Protein.ActiveResidues>
 VAL82   VAL86   LEU89   PHE106  VAL107  ASP110  VAL111  MET112  CYS114  THR115 
 CYS181  SER182  ILE183  PHE188  VAL189  ILE190  SER192  SER193  SER196  TRP342 
 PHE345  PHE346  HIS349  VAL350  TYR365  THR369  GLY372  TYR373 

> <Gold.Protein.RotatedAtoms>
    3.9445   -8.5582    3.9254 H   0  0  0  0  0  0  0  0  0  0  0  0  # atno 1303 bound_to 1298
    0.4314   -9.0495    7.8781 H   0  0  0  0  0  0  0  0  0  0  0  0  # atno 2461 bound_to 2456
   -3.7112   -5.1745    8.9279 H   0  0  0  0  0  0  0  0  0  0  0  0  # atno 2472 bound_to 2467
    2.0368   -8.1196    6.0535 H   0  0  0  0  0  0  0  0  0  0  0  0  # atno 2515 bound_to 2510
   -2.5226  -17.9962   13.5870 H   0  0  0  0  0  0  0  0  0  0  0  0  # atno 3721 bound_to 3712
   -3.9563  -23.1913   10.8994 H   0  0  0  0  0  0  0  0  0  0  0  0  # atno 3767 bound_to 3762
    1.7235  -19.6840    8.8480 H   0  0  0  0  0  0  0  0  0  0  0  0  # atno 3841 bound_to 3832
    4.8769   -9.4558    4.9210 LP  0  0  0  0  0  0  0  0  0  0  0  0  # atno 4297 bound_to 1298
    3.5408  -10.1077    4.2454 LP  0  0  0  0  0  0  0  0  0  0  0  0  # atno 4298 bound_to 1298
    2.0150   -8.8301    8.2117 LP  0  0  0  0  0  0  0  0  0  0  0  0  # atno 4299 bound_to 2456
    1.2911   -7.9287    7.0584 LP  0  0  0  0  0  0  0  0  0  0  0  0  # atno 4300 bound_to 2456
    2.5607   -7.6606    4.5768 LP  0  0  0  0  0  0  0  0  0  0  0  0  # atno 4301 bound_to 2510
    2.6994   -9.2190    5.0445 LP  0  0  0  0  0  0  0  0  0  0  0  0  # atno 4302 bound_to 2510
   -3.1122  -17.1978   14.8490 LP  0  0  0  0  0  0  0  0  0  0  0  0  # atno 4306 bound_to 3712
   -3.5032  -16.7516   13.3276 LP  0  0  0  0  0  0  0  0  0  0  0  0  # atno 4307 bound_to 3712
    3.0704  -20.3897    8.3342 LP  0  0  0  0  0  0  0  0  0  0  0  0  # atno 4314 bound_to 3832
    2.1681  -21.0775    9.5087 LP  0  0  0  0  0  0  0  0  0  0  0  0  # atno 4315 bound_to 3832
   -5.3262  -22.7134   10.1498 LP  0  0  0  0  0  0  0  0  0  0  0  0  # atno 4318 bound_to 3762
   -4.8446  -21.9706   11.5219 LP  0  0  0  0  0  0  0  0  0  0  0  0  # atno 4319 bound_to 3762
   -5.3246   -5.3950    9.0496 LP  0  0  0  0  0  0  0  0  0  0  0  0  # atno 4320 bound_to 2467
   -4.6810   -4.8240    7.6617 LP  0  0  0  0  0  0  0  0  0  0  0  0  # atno 4321 bound_to 2467

> <Gold.Score>
     Score     S(PLP)   S(hbond)     S(cho)   S(metal)  DE(clash)   DE(tors)     intcor
     43.73     -32.87       3.80       0.00       0.00       0.00       0.52       0.51

> <Gold.PLP.Fitness>
43.7350

> <Gold.PLP.PLP>
-32.8655

> <Gold.PLP.part.hbond>
-3.0000

> <Gold.PLP.part.metal>
0.0000

> <Gold.PLP.part.buried>
-4.6301

> <Gold.PLP.part.nonpolar>
-26.0615

> <Gold.PLP.part.repulsive>
0.0000

> <Gold.PLP.ligand.clash>
0.0000

> <Gold.PLP.ligand.torsion>
0.5196

> <Gold.PLP.Chemscore.Hbond>
3.8000

> <Gold.PLP.Chemscore.CHOScore>
0.0000

> <Gold.PLP.Chemscore.Metal>
0.0000

> <Gold.Chemscore.Hbonds>
donor molecule, donor type, donor heavy atom, donor atom, acceptor molecule, acceptor atom, score
      L1  H    14    34       P1  1227  2.00
      P1  H  2305  2313       L1    12  0.80
      P1  H  3712  3721       L1     7  1.00

> <Gold.PLP.Chemscore.Internal.Correction>
0.5087

