#       Name:                EN300-260862_i002
#       Creating user name   fsindt
#       Creation time:       Wed Mar  1 14:19:59 2023


#       File generated by GOLD software.
#

@<TRIPOS>MOLECULE
EN300-260862_i002|amine_1|mol2|10990|dock15
    36    36     1
SMALL
USER_CHARGES


@<TRIPOS>ATOM
      1 C1          -0.0804 -23.7454  14.0943 C.3            1 <1>                0.0000
      2 C2          -1.4401 -23.0624  14.2540 C.3            1 <1>                0.0000
      3 C3          -2.4934 -23.8292  13.4517 C.3            1 <1>                0.0000
      4 C4          -1.8343 -23.0500  15.7323 C.3            1 <1>                0.0000
      5 O5          -1.3570 -21.6981  13.7638 O.3            1 <1>                0.0000
      6 C6          -0.3772 -20.9256  14.2696 C.2            1 <1>                0.0000
      7 O7           0.2186 -21.2765  15.2688 O.2            1 <1>                0.0000
      8 N8          -0.0572 -19.7629  13.6676 N.am           1 <1>                0.0000
      9 C9          -0.6943 -19.2201  12.4590 C.3            1 <1>                0.0000
     10 C10          0.0132 -17.8896  12.1263 C.3            1 <1>                0.0000
     11 C11          1.3838 -18.0372  12.8383 C.3            1 <1>                0.0000
     12 O12          2.2993 -18.7864  12.0366 O.3            1 <1>                0.0000
     13 C13          1.9661 -16.6685  13.1965 C.3            1 <1>                0.0000
     14 N14          2.1996 -15.8988  11.9673 N.4            1 <1>                1.0000
     15 C15          0.9853 -18.8218  14.1159 C.3            1 <1>                0.0000
     16 H16          0.2003 -23.7542  13.0412 H              1 <1>                0.0000
     17 H17          0.6700 -23.1991  14.6658 H              1 <1>                0.0000
     18 H18         -0.1428 -24.7695  14.4623 H              1 <1>                0.0000
     19 H19         -2.5558 -24.8534  13.8197 H              1 <1>                0.0000
     20 H20         -3.4621 -23.3426  13.5654 H              1 <1>                0.0000
     21 H21         -2.2126 -23.8380  12.3986 H              1 <1>                0.0000
     22 H22         -1.0839 -22.5037  16.3038 H              1 <1>                0.0000
     23 H23         -2.8029 -22.5634  15.8460 H              1 <1>                0.0000
     24 H24         -1.8966 -24.0741  16.1003 H              1 <1>                0.0000
     25 H25         -0.5761 -19.9198  11.6316 H              1 <1>                0.0000
     26 H26         -1.7529 -19.0403  12.6468 H              1 <1>                0.0000
     27 H27          0.1473 -17.7827  11.0499 H              1 <1>                0.0000
     28 H28         -0.5433 -17.0448  12.5324 H              1 <1>                0.0000
     29 H29          1.2645 -16.1307  13.8343 H              1 <1>                0.0000
     30 H30          2.9094 -16.8023  13.7261 H              1 <1>                0.0000
     31 H31          0.5907 -18.1419  14.8710 H              1 <1>                0.0000
     32 H32          1.8426 -19.3691  14.5078 H              1 <1>                0.0000
     33 H33          2.3197 -18.5179  11.1079 H              1 <1>                0.0000
     34 H34          1.3231 -15.5309  11.6291 H              1 <1>                0.0000
     35 H35          2.8313 -15.1366  12.1626 H              1 <1>                0.0000
     36 H36          2.6051 -16.5002  11.2659 H              1 <1>                0.0000
@<TRIPOS>BOND
    1    1    2 1     
    2    1   16 1     
    3    1   17 1     
    4    1   18 1     
    5    2    3 1     
    6    2    4 1     
    7    2    5 1     
    8    3   19 1     
    9    3   20 1     
   10    3   21 1     
   11    4   22 1     
   12    4   23 1     
   13    4   24 1     
   14    5    6 1     
   15    6    7 2     
   16    6    8 am    
   17    8    9 1     
   18    8   15 1     
   19    9   10 1     
   20    9   25 1     
   21    9   26 1     
   22   10   11 1     
   23   10   27 1     
   24   10   28 1     
   25   11   12 1     
   26   11   13 1     
   27   11   15 1     
   28   12   33 1     
   29   13   14 1     
   30   13   29 1     
   31   13   30 1     
   32   14   34 1     
   33   14   35 1     
   34   14   36 1     
   35   15   31 1     
   36   15   32 1     
@<TRIPOS>SUBSTRUCTURE
      1 ****           1
@<TRIPOS>SET
DONOR_HYDROGENS      STATIC     ATOMS    <user>   **** ""
4 33 34 35 36
ATOM$RED        STATIC     ATOMS    COLORGROUP SYSTEM
4 33 34 35 36
@<TRIPOS>COMMENT
> <Gold.Version>
2022.2.0

> <Gold.Id.Protein>
3pbl|protein|mol2

> <Gold.Protein.RotatedTorsions>
[ 1303 1298 1297 1294 ] final  -71.08 input  179.99 | X-H torsion
[ 2461 2456 2455 2452 ] final  -71.78 input   30.03 | X-H torsion
[ 2515 2510 2509 2506 ] final  173.50 input  -89.99 | X-H torsion
[ 3721 3712 3711 3710 ] final  156.08 input -179.91 | X-H torsion
[ 3841 3832 3831 3830 ] final  110.14 input -179.91 | X-H torsion
[ 3767 3762 3761 3758 ] final   57.56 input  -89.99 | X-H torsion
[ 2472 2467 2466 2463 ] final  103.37 input  -89.97 | X-H torsion

> <Gold.Protein.ActiveResidues>
 VAL82   VAL86   LEU89   PHE106  VAL107  ASP110  VAL111  MET112  CYS114  THR115 
 CYS181  SER182  ILE183  PHE188  VAL189  ILE190  SER192  SER193  SER196  TRP342 
 PHE345  PHE346  HIS349  VAL350  TYR365  THR369  GLY372  TYR373 

> <Gold.Protein.RotatedAtoms>
    3.6042   -8.8289    3.7939 H   0  0  0  0  0  0  0  0  0  0  0  0  # atno 1303 bound_to 1298
    0.3342   -8.7003    7.4953 H   0  0  0  0  0  0  0  0  0  0  0  0  # atno 2461 bound_to 2456
   -5.2659   -4.9841    7.9249 H   0  0  0  0  0  0  0  0  0  0  0  0  # atno 2472 bound_to 2467
    2.2805   -8.9647    5.9079 H   0  0  0  0  0  0  0  0  0  0  0  0  # atno 2515 bound_to 2510
   -3.2371  -16.8005   13.2561 H   0  0  0  0  0  0  0  0  0  0  0  0  # atno 3721 bound_to 3712
   -4.6029  -23.2688   10.1762 H   0  0  0  0  0  0  0  0  0  0  0  0  # atno 3767 bound_to 3762
    3.0223  -20.8065    9.0488 H   0  0  0  0  0  0  0  0  0  0  0  0  # atno 3841 bound_to 3832
    4.8983   -9.0278    4.7697 LP  0  0  0  0  0  0  0  0  0  0  0  0  # atno 4297 bound_to 1298
    3.8599  -10.2648    4.5282 LP  0  0  0  0  0  0  0  0  0  0  0  0  # atno 4298 bound_to 1298
    1.6286   -9.1419    8.3882 LP  0  0  0  0  0  0  0  0  0  0  0  0  # atno 4299 bound_to 2456
    1.7747   -7.9660    7.2645 LP  0  0  0  0  0  0  0  0  0  0  0  0  # atno 4300 bound_to 2456
    2.1843   -7.4324    5.3524 LP  0  0  0  0  0  0  0  0  0  0  0  0  # atno 4301 bound_to 2510
    2.8320   -8.6018    4.4146 LP  0  0  0  0  0  0  0  0  0  0  0  0  # atno 4302 bound_to 2510
   -2.6318  -18.2097   13.7312 LP  0  0  0  0  0  0  0  0  0  0  0  0  # atno 4306 bound_to 3712
   -3.1586  -17.1201   14.8275 LP  0  0  0  0  0  0  0  0  0  0  0  0  # atno 4307 bound_to 3712
    1.4892  -20.4909    9.4038 LP  0  0  0  0  0  0  0  0  0  0  0  0  # atno 4314 bound_to 3832
    2.2488  -19.6798    8.2072 LP  0  0  0  0  0  0  0  0  0  0  0  0  # atno 4315 bound_to 3832
   -5.4508  -22.0432   10.8439 LP  0  0  0  0  0  0  0  0  0  0  0  0  # atno 4318 bound_to 3762
   -4.0737  -22.5633   11.5507 LP  0  0  0  0  0  0  0  0  0  0  0  0  # atno 4319 bound_to 3762
   -3.6790   -4.9468    8.3081 LP  0  0  0  0  0  0  0  0  0  0  0  0  # atno 4320 bound_to 2467
   -4.7722   -5.4627    9.4060 LP  0  0  0  0  0  0  0  0  0  0  0  0  # atno 4321 bound_to 2467

> <Gold.Score>
     Score     S(PLP)   S(hbond)     S(cho)   S(metal)  DE(clash)   DE(tors)     intcor
     37.37     -28.38       3.00       0.00       0.00       0.00       0.22       0.42

> <Gold.PLP.Fitness>
37.3657

> <Gold.PLP.PLP>
-28.3770

> <Gold.PLP.part.hbond>
-2.0000

> <Gold.PLP.part.metal>
0.0000

> <Gold.PLP.part.buried>
-4.6801

> <Gold.PLP.part.nonpolar>
-21.9075

> <Gold.PLP.part.repulsive>
0.0197

> <Gold.PLP.ligand.clash>
0.0000

> <Gold.PLP.ligand.torsion>
0.2177

> <Gold.PLP.Chemscore.Hbond>
3.0000

> <Gold.PLP.Chemscore.CHOScore>
0.0000

> <Gold.PLP.Chemscore.Metal>
0.0000

> <Gold.Chemscore.Hbonds>
donor molecule, donor type, donor heavy atom, donor atom, acceptor molecule, acceptor atom, score
      L1  H    12    33       P1  1227  1.00
      L1  H    14    36       P1  1227  2.00

> <Gold.PLP.Chemscore.Internal.Correction>
0.4241

