#       Name:                EN300-260862_i002
#       Creating user name   fsindt
#       Creation time:       Wed Mar  1 14:19:56 2023


#       File generated by GOLD software.
#

@<TRIPOS>MOLECULE
EN300-260862_i002|amine_1|mol2|10990|dock11
    36    36     1
SMALL
USER_CHARGES


@<TRIPOS>ATOM
      1 C1          -0.3835 -10.8057   8.7924 C.3            1 <1>                0.0000
      2 C2          -1.2455 -11.1536  10.0076 C.3            1 <1>                0.0000
      3 C3          -1.4966  -9.8902  10.8334 C.3            1 <1>                0.0000
      4 C4          -2.5826 -11.7292   9.5366 C.3            1 <1>                0.0000
      5 O5          -0.5563 -12.1365  10.8245 O.3            1 <1>                0.0000
      6 C6          -0.4361 -13.3775  10.3163 C.2            1 <1>                0.0000
      7 O7          -0.3688 -13.5377   9.1136 O.2            1 <1>                0.0000
      8 N8          -0.3904 -14.4422  11.1415 N.am           1 <1>                0.0000
      9 C9          -0.4618 -14.3924  12.6090 C.3            1 <1>                0.0000
     10 C10         -0.3451 -15.8429  13.1229 C.3            1 <1>                0.0000
     11 C11          0.3531 -16.5735  11.9456 C.3            1 <1>                0.0000
     12 O12          1.7689 -16.3858  11.9938 O.3            1 <1>                0.0000
     13 C13          0.0003 -18.0623  11.9374 C.3            1 <1>                0.0000
     14 N14          0.5100 -18.6796  10.7058 N.4            1 <1>                1.0000
     15 C15         -0.2671 -15.8500  10.7216 C.3            1 <1>                0.0000
     16 H16          0.5690 -10.3956   9.1280 H              1 <1>                0.0000
     17 H17         -0.2046 -11.7058   8.2042 H              1 <1>                0.0000
     18 H18         -0.9009 -10.0678   8.1792 H              1 <1>                0.0000
     19 H19         -2.0140  -9.1523  10.2201 H              1 <1>                0.0000
     20 H20         -2.1107 -10.1381  11.6991 H              1 <1>                0.0000
     21 H21         -0.5441  -9.4802  11.1689 H              1 <1>                0.0000
     22 H22         -2.4036 -12.6293   8.9484 H              1 <1>                0.0000
     23 H23         -3.1966 -11.9770  10.4024 H              1 <1>                0.0000
     24 H24         -3.1000 -10.9913   8.9234 H              1 <1>                0.0000
     25 H25          0.3607 -13.7934  13.0000 H              1 <1>                0.0000
     26 H26         -1.4151 -13.9646  12.9196 H              1 <1>                0.0000
     27 H27          0.2696 -15.8852  14.0220 H              1 <1>                0.0000
     28 H28         -1.3320 -16.2667  13.3089 H              1 <1>                0.0000
     29 H29          0.4534 -18.5478  12.8018 H              1 <1>                0.0000
     30 H30         -1.0826 -18.1792  11.9812 H              1 <1>                0.0000
     31 H31         -1.2462 -16.2691  10.4891 H              1 <1>                0.0000
     32 H32          0.3946 -15.9286   9.8590 H              1 <1>                0.0000
     33 H33          2.2321 -16.6805  11.1977 H              1 <1>                0.0000
     34 H34          0.7722 -19.6358  10.8923 H              1 <1>                0.0000
     35 H35         -0.2083 -18.6598   9.9974 H              1 <1>                0.0000
     36 H36          1.3163 -18.1669  10.3815 H              1 <1>                0.0000
@<TRIPOS>BOND
    1    1    2 1     
    2    1   16 1     
    3    1   17 1     
    4    1   18 1     
    5    2    3 1     
    6    2    4 1     
    7    2    5 1     
    8    3   19 1     
    9    3   20 1     
   10    3   21 1     
   11    4   22 1     
   12    4   23 1     
   13    4   24 1     
   14    5    6 1     
   15    6    7 2     
   16    6    8 am    
   17    8    9 1     
   18    8   15 1     
   19    9   10 1     
   20    9   25 1     
   21    9   26 1     
   22   10   11 1     
   23   10   27 1     
   24   10   28 1     
   25   11   12 1     
   26   11   13 1     
   27   11   15 1     
   28   12   33 1     
   29   13   14 1     
   30   13   29 1     
   31   13   30 1     
   32   14   34 1     
   33   14   35 1     
   34   14   36 1     
   35   15   31 1     
   36   15   32 1     
@<TRIPOS>SUBSTRUCTURE
      1 ****           1
@<TRIPOS>SET
DONOR_HYDROGENS      STATIC     ATOMS    <user>   **** ""
4 33 34 35 36
ATOM$RED        STATIC     ATOMS    COLORGROUP SYSTEM
4 33 34 35 36
@<TRIPOS>COMMENT
> <Gold.Version>
2022.2.0

> <Gold.Id.Protein>
3pbl|protein|mol2

> <Gold.Protein.RotatedTorsions>
[ 1303 1298 1297 1294 ] final  121.74 input  179.99 | X-H torsion
[ 2461 2456 2455 2452 ] final  100.98 input   30.03 | X-H torsion
[ 2515 2510 2509 2506 ] final  113.95 input  -89.99 | X-H torsion
[ 3721 3712 3711 3710 ] final -150.36 input -179.91 | X-H torsion
[ 3841 3832 3831 3830 ] final  -46.32 input -179.91 | X-H torsion
[ 3767 3762 3761 3758 ] final  147.70 input  -89.99 | X-H torsion
[ 2472 2467 2466 2463 ] final   18.64 input  -89.97 | X-H torsion

> <Gold.Protein.ActiveResidues>
 VAL82   VAL86   LEU89   PHE106  VAL107  ASP110  VAL111  MET112  CYS114  THR115 
 CYS181  SER182  ILE183  PHE188  VAL189  ILE190  SER192  SER193  SER196  TRP342 
 PHE345  PHE346  HIS349  VAL350  TYR365  THR369  GLY372  TYR373 

> <Gold.Protein.RotatedAtoms>
    4.7570   -9.7464    4.9511 H   0  0  0  0  0  0  0  0  0  0  0  0  # atno 1303 bound_to 1298
    2.1610   -8.4202    7.8532 H   0  0  0  0  0  0  0  0  0  0  0  0  # atno 2461 bound_to 2456
   -4.0074   -4.8215    7.8580 H   0  0  0  0  0  0  0  0  0  0  0  0  # atno 2472 bound_to 2467
    2.0331   -8.0713    6.0377 H   0  0  0  0  0  0  0  0  0  0  0  0  # atno 2515 bound_to 2510
   -3.3268  -16.5311   13.9832 H   0  0  0  0  0  0  0  0  0  0  0  0  # atno 3721 bound_to 3712
   -3.9139  -22.9235   11.2665 H   0  0  0  0  0  0  0  0  0  0  0  0  # atno 3767 bound_to 3762
    1.5676  -19.9468    9.1798 H   0  0  0  0  0  0  0  0  0  0  0  0  # atno 3841 bound_to 3832
    3.3955   -9.8952    4.0620 LP  0  0  0  0  0  0  0  0  0  0  0  0  # atno 4297 bound_to 1298
    4.2094   -8.4796    4.0783 LP  0  0  0  0  0  0  0  0  0  0  0  0  # atno 4298 bound_to 1298
    0.7615   -8.1213    7.0660 LP  0  0  0  0  0  0  0  0  0  0  0  0  # atno 4299 bound_to 2456
    0.8156   -9.2665    8.2289 LP  0  0  0  0  0  0  0  0  0  0  0  0  # atno 4300 bound_to 2456
    2.5812   -7.6959    4.5462 LP  0  0  0  0  0  0  0  0  0  0  0  0  # atno 4301 bound_to 2510
    2.6826   -9.2321    5.0909 LP  0  0  0  0  0  0  0  0  0  0  0  0  # atno 4302 bound_to 2510
   -2.9393  -17.7788   13.0499 LP  0  0  0  0  0  0  0  0  0  0  0  0  # atno 4306 bound_to 3712
   -2.7476  -17.8621   14.6694 LP  0  0  0  0  0  0  0  0  0  0  0  0  # atno 4307 bound_to 3712
    2.8032  -20.0074    8.1573 LP  0  0  0  0  0  0  0  0  0  0  0  0  # atno 4314 bound_to 3832
    2.6154  -21.1564    9.3023 LP  0  0  0  0  0  0  0  0  0  0  0  0  # atno 4315 bound_to 3832
   -5.0132  -23.0342   10.0640 LP  0  0  0  0  0  0  0  0  0  0  0  0  # atno 4318 bound_to 3762
   -5.2000  -21.9175   11.2407 LP  0  0  0  0  0  0  0  0  0  0  0  0  # atno 4319 bound_to 3762
   -4.2064   -5.3896    9.3759 LP  0  0  0  0  0  0  0  0  0  0  0  0  # atno 4320 bound_to 2467
   -5.5030   -5.1824    8.4051 LP  0  0  0  0  0  0  0  0  0  0  0  0  # atno 4321 bound_to 2467

> <Gold.Score>
     Score     S(PLP)   S(hbond)     S(cho)   S(metal)  DE(clash)   DE(tors)     intcor
     42.49     -33.99       3.00       0.00       0.00       0.00       0.47       0.43

> <Gold.PLP.Fitness>
42.4878

> <Gold.PLP.PLP>
-33.9918

> <Gold.PLP.part.hbond>
-2.5493

> <Gold.PLP.part.metal>
0.0000

> <Gold.PLP.part.buried>
-2.4999

> <Gold.PLP.part.nonpolar>
-28.8967

> <Gold.PLP.part.repulsive>
0.0000

> <Gold.PLP.ligand.clash>
0.0000

> <Gold.PLP.ligand.torsion>
0.4677

> <Gold.PLP.Chemscore.Hbond>
3.0000

> <Gold.PLP.Chemscore.CHOScore>
0.0000

> <Gold.PLP.Chemscore.Metal>
0.0000

> <Gold.Chemscore.Hbonds>
donor molecule, donor type, donor heavy atom, donor atom, acceptor molecule, acceptor atom, score
      L1  H    12    33       P1  1227  1.00
      L1  H    14    36       P1  1227  2.00

> <Gold.PLP.Chemscore.Internal.Correction>
0.4314

