#       Name:                EN300-260862_i002
#       Creating user name   fsindt
#       Creation time:       Wed Mar  1 14:19:53 2023


#       File generated by GOLD software.
#

@<TRIPOS>MOLECULE
EN300-260862_i002|amine_1|mol2|10990|dock8
    36    36     1
SMALL
USER_CHARGES


@<TRIPOS>ATOM
      1 C1          -0.4221 -21.7290  16.4007 C.3            1 <1>                0.0000
      2 C2          -0.6151 -21.5945  14.8889 C.3            1 <1>                0.0000
      3 C3           0.4615 -22.4041  14.1632 C.3            1 <1>                0.0000
      4 C4          -1.9979 -22.1229  14.5022 C.3            1 <1>                0.0000
      5 O5          -0.5076 -20.1970  14.5096 O.3            1 <1>                0.0000
      6 C6           0.7026 -19.6206  14.6366 C.2            1 <1>                0.0000
      7 O7           1.5578 -20.1474  15.3204 O.2            1 <1>                0.0000
      8 N8           0.9655 -18.4593  14.0051 N.am           1 <1>                0.0000
      9 C9           2.2381 -17.7252  14.0565 C.3            1 <1>                0.0000
     10 C10          2.0652 -16.4484  13.2071 C.3            1 <1>                0.0000
     11 C11          0.5265 -16.2503  13.1867 C.3            1 <1>                0.0000
     12 O12          0.0797 -15.5873  14.3712 O.3            1 <1>                0.0000
     13 C13          0.0883 -15.4862  11.9357 C.3            1 <1>                0.0000
     14 N14          0.2172 -16.3571  10.7597 N.4            1 <1>                1.0000
     15 C15          0.0266 -17.7182  13.1433 C.3            1 <1>                0.0000
     16 H16          0.5631 -21.3526  16.6760 H              1 <1>                0.0000
     17 H17         -1.1890 -21.1522  16.9176 H              1 <1>                0.0000
     18 H18         -0.5028 -22.7781  16.6853 H              1 <1>                0.0000
     19 H19          0.3807 -23.4533  14.4479 H              1 <1>                0.0000
     20 H20          0.3239 -22.3083  13.0862 H              1 <1>                0.0000
     21 H21          1.4466 -22.0277  14.4386 H              1 <1>                0.0000
     22 H22         -2.7649 -21.5460  15.0192 H              1 <1>                0.0000
     23 H23         -2.1354 -22.0270  13.4252 H              1 <1>                0.0000
     24 H24         -2.0787 -23.1720  14.7869 H              1 <1>                0.0000
     25 H25          2.4695 -17.4561  15.0871 H              1 <1>                0.0000
     26 H26          3.0377 -18.3400  13.6431 H              1 <1>                0.0000
     27 H27          2.5571 -15.5996  13.6821 H              1 <1>                0.0000
     28 H28          2.4477 -16.6018  12.1979 H              1 <1>                0.0000
     29 H29         -0.9506 -15.1750  12.0453 H              1 <1>                0.0000
     30 H30          0.7194 -14.6068  11.8075 H              1 <1>                0.0000
     31 H31          0.0583 -18.0998  12.1227 H              1 <1>                0.0000
     32 H32         -0.9850 -17.7865  13.5434 H              1 <1>                0.0000
     33 H33         -0.8793 -15.4733  14.4201 H              1 <1>                0.0000
     34 H34         -0.4228 -17.1325  10.8436 H              1 <1>                0.0000
     35 H35          0.0009 -15.8310   9.9263 H              1 <1>                0.0000
     36 H36          1.1623 -16.7058  10.7015 H              1 <1>                0.0000
@<TRIPOS>BOND
    1    1    2 1     
    2    1   16 1     
    3    1   17 1     
    4    1   18 1     
    5    2    3 1     
    6    2    4 1     
    7    2    5 1     
    8    3   19 1     
    9    3   20 1     
   10    3   21 1     
   11    4   22 1     
   12    4   23 1     
   13    4   24 1     
   14    5    6 1     
   15    6    7 2     
   16    6    8 am    
   17    8    9 1     
   18    8   15 1     
   19    9   10 1     
   20    9   25 1     
   21    9   26 1     
   22   10   11 1     
   23   10   27 1     
   24   10   28 1     
   25   11   12 1     
   26   11   13 1     
   27   11   15 1     
   28   12   33 1     
   29   13   14 1     
   30   13   29 1     
   31   13   30 1     
   32   14   34 1     
   33   14   35 1     
   34   14   36 1     
   35   15   31 1     
   36   15   32 1     
@<TRIPOS>SUBSTRUCTURE
      1 ****           1
@<TRIPOS>SET
DONOR_HYDROGENS      STATIC     ATOMS    <user>   **** ""
4 33 34 35 36
ATOM$RED        STATIC     ATOMS    COLORGROUP SYSTEM
4 33 34 35 36
@<TRIPOS>COMMENT
> <Gold.Version>
2022.2.0

> <Gold.Id.Protein>
3pbl|protein|mol2

> <Gold.Protein.RotatedTorsions>
[ 1303 1298 1297 1294 ] final -102.33 input  179.99 | X-H torsion
[ 2461 2456 2455 2452 ] final   60.47 input   30.03 | X-H torsion
[ 2515 2510 2509 2506 ] final   -8.38 input  -89.99 | X-H torsion
[ 3721 3712 3711 3710 ] final    6.50 input -179.91 | X-H torsion
[ 3841 3832 3831 3830 ] final -156.88 input -179.91 | X-H torsion
[ 3767 3762 3761 3758 ] final  175.67 input  -89.99 | X-H torsion
[ 2472 2467 2466 2463 ] final  -31.74 input  -89.97 | X-H torsion

> <Gold.Protein.ActiveResidues>
 VAL82   VAL86   LEU89   PHE106  VAL107  ASP110  VAL111  MET112  CYS114  THR115 
 CYS181  SER182  ILE183  PHE188  VAL189  ILE190  SER192  SER193  SER196  TRP342 
 PHE345  PHE346  HIS349  VAL350  TYR365  THR369  GLY372  TYR373 

> <Gold.Protein.RotatedAtoms>
    3.9901   -8.5375    3.9490 H   0  0  0  0  0  0  0  0  0  0  0  0  # atno 1303 bound_to 1298
    1.9213   -8.0343    7.3841 H   0  0  0  0  0  0  0  0  0  0  0  0  # atno 2461 bound_to 2456
   -3.6354   -5.0260    8.5390 H   0  0  0  0  0  0  0  0  0  0  0  0  # atno 2472 bound_to 2467
    2.5964   -7.7239    4.5249 H   0  0  0  0  0  0  0  0  0  0  0  0  # atno 2515 bound_to 2510
   -2.4760  -17.9900   14.1506 H   0  0  0  0  0  0  0  0  0  0  0  0  # atno 3721 bound_to 3712
   -4.0574  -22.5861   11.5374 H   0  0  0  0  0  0  0  0  0  0  0  0  # atno 3767 bound_to 3762
    2.7143  -19.8111    8.3482 H   0  0  0  0  0  0  0  0  0  0  0  0  # atno 3841 bound_to 3832
    4.8619   -9.5081    4.9309 LP  0  0  0  0  0  0  0  0  0  0  0  0  # atno 4297 bound_to 1298
    3.5102  -10.0760    4.2119 LP  0  0  0  0  0  0  0  0  0  0  0  0  # atno 4298 bound_to 1298
    0.3731   -8.5541    7.3628 LP  0  0  0  0  0  0  0  0  0  0  0  0  # atno 4299 bound_to 2456
    1.4435   -9.2195    8.4012 LP  0  0  0  0  0  0  0  0  0  0  0  0  # atno 4300 bound_to 2456
    2.6695   -9.2402    5.1262 LP  0  0  0  0  0  0  0  0  0  0  0  0  # atno 4301 bound_to 2510
    2.0307   -8.0353    6.0245 LP  0  0  0  0  0  0  0  0  0  0  0  0  # atno 4302 bound_to 2510
   -3.4029  -16.7384   14.5404 LP  0  0  0  0  0  0  0  0  0  0  0  0  # atno 4306 bound_to 3712
   -3.2662  -17.2182   12.9855 LP  0  0  0  0  0  0  0  0  0  0  0  0  # atno 4307 bound_to 3712
    2.7025  -21.1461    9.2391 LP  0  0  0  0  0  0  0  0  0  0  0  0  # atno 4314 bound_to 3832
    1.3913  -20.1745    9.1811 LP  0  0  0  0  0  0  0  0  0  0  0  0  # atno 4315 bound_to 3832
   -4.6294  -23.2589   10.1638 LP  0  0  0  0  0  0  0  0  0  0  0  0  # atno 4318 bound_to 3762
   -5.4403  -22.0300   10.8701 LP  0  0  0  0  0  0  0  0  0  0  0  0  # atno 4319 bound_to 3762
   -5.0040   -5.4567    9.3187 LP  0  0  0  0  0  0  0  0  0  0  0  0  # atno 4320 bound_to 2467
   -5.0773   -4.9108    7.7814 LP  0  0  0  0  0  0  0  0  0  0  0  0  # atno 4321 bound_to 2467

> <Gold.Score>
     Score     S(PLP)   S(hbond)     S(cho)   S(metal)  DE(clash)   DE(tors)     intcor
     40.88     -32.41       2.98       0.00       0.00       0.00       0.45       0.43

> <Gold.PLP.Fitness>
40.8838

> <Gold.PLP.PLP>
-32.4063

> <Gold.PLP.part.hbond>
-2.0000

> <Gold.PLP.part.metal>
0.0000

> <Gold.PLP.part.buried>
-4.8659

> <Gold.PLP.part.nonpolar>
-26.1506

> <Gold.PLP.part.repulsive>
0.0862

> <Gold.PLP.ligand.clash>
0.0000

> <Gold.PLP.ligand.torsion>
0.4530

> <Gold.PLP.Chemscore.Hbond>
2.9840

> <Gold.PLP.Chemscore.CHOScore>
0.0000

> <Gold.PLP.Chemscore.Metal>
0.0000

> <Gold.Chemscore.Hbonds>
donor molecule, donor type, donor heavy atom, donor atom, acceptor molecule, acceptor atom, score
      L1  H    14    36       P1  1227  1.98
      P1  H  2305  2313       L1    12  1.00

> <Gold.PLP.Chemscore.Internal.Correction>
0.4314

