#       Name:                EN300-260862_i002
#       Creating user name   fsindt
#       Creation time:       Wed Mar  1 14:19:55 2023


#       File generated by GOLD software.
#

@<TRIPOS>MOLECULE
EN300-260862_i002|amine_1|mol2|10990|dock10
    36    36     1
SMALL
USER_CHARGES


@<TRIPOS>ATOM
      1 C1          -2.7973 -23.4181  13.7826 C.3            1 <1>                0.0000
      2 C2          -1.3359 -23.1188  13.4426 C.3            1 <1>                0.0000
      3 C3          -0.4437 -24.2265  14.0066 C.3            1 <1>                0.0000
      4 C4          -1.1688 -23.0533  11.9232 C.3            1 <1>                0.0000
      5 O5          -0.9541 -21.8454  14.0267 O.3            1 <1>                0.0000
      6 C6           0.2319 -21.3313  13.6502 C.2            1 <1>                0.0000
      7 O7           1.0929 -22.0588  13.1962 O.2            1 <1>                0.0000
      8 N8           0.4643 -20.0098  13.7768 N.am           1 <1>                0.0000
      9 C9          -0.4841 -19.0202  14.3083 C.3            1 <1>                0.0000
     10 C10          0.2052 -17.6412  14.2379 C.3            1 <1>                0.0000
     11 C11          1.2891 -17.8497  13.1476 C.3            1 <1>                0.0000
     12 O12          0.7349 -17.6992  11.8390 O.3            1 <1>                0.0000
     13 C13          2.4662 -16.8944  13.3546 C.3            1 <1>                0.0000
     14 N14          3.4750 -17.1274  12.3125 N.4            1 <1>                1.0000
     15 C15          1.7139 -19.3183  13.4111 C.3            1 <1>                0.0000
     16 H16         -2.9162 -23.4648  14.8651 H              1 <1>                0.0000
     17 H17         -3.4328 -22.6290  13.3809 H              1 <1>                0.0000
     18 H18         -3.0838 -24.3740  13.3440 H              1 <1>                0.0000
     19 H19         -0.7304 -25.1824  13.5680 H              1 <1>                0.0000
     20 H20          0.5974 -24.0132  13.7644 H              1 <1>                0.0000
     21 H21         -0.5628 -24.2731  15.0890 H              1 <1>                0.0000
     22 H22         -1.8044 -22.2641  11.5214 H              1 <1>                0.0000
     23 H23         -0.1277 -22.8401  11.6810 H              1 <1>                0.0000
     24 H24         -1.4554 -24.0092  11.4846 H              1 <1>                0.0000
     25 H25         -1.3904 -19.0128  13.7028 H              1 <1>                0.0000
     26 H26         -0.7289 -19.2599  15.3431 H              1 <1>                0.0000
     27 H27         -0.5037 -16.8708  13.9347 H              1 <1>                0.0000
     28 H28          0.6637 -17.3899  15.1945 H              1 <1>                0.0000
     29 H29          2.1134 -15.8648  13.2952 H              1 <1>                0.0000
     30 H30          2.9091 -17.0707  14.3349 H              1 <1>                0.0000
     31 H31          2.4326 -19.3643  14.2294 H              1 <1>                0.0000
     32 H32          2.1370 -19.7586  12.5082 H              1 <1>                0.0000
     33 H33          1.3416 -17.9383  11.1251 H              1 <1>                0.0000
     34 H34          3.0309 -17.1195  11.4066 H              1 <1>                0.0000
     35 H35          4.1729 -16.3997  12.3513 H              1 <1>                0.0000
     36 H36          3.9143 -18.0230  12.4639 H              1 <1>                0.0000
@<TRIPOS>BOND
    1    1    2 1     
    2    1   16 1     
    3    1   17 1     
    4    1   18 1     
    5    2    3 1     
    6    2    4 1     
    7    2    5 1     
    8    3   19 1     
    9    3   20 1     
   10    3   21 1     
   11    4   22 1     
   12    4   23 1     
   13    4   24 1     
   14    5    6 1     
   15    6    7 2     
   16    6    8 am    
   17    8    9 1     
   18    8   15 1     
   19    9   10 1     
   20    9   25 1     
   21    9   26 1     
   22   10   11 1     
   23   10   27 1     
   24   10   28 1     
   25   11   12 1     
   26   11   13 1     
   27   11   15 1     
   28   12   33 1     
   29   13   14 1     
   30   13   29 1     
   31   13   30 1     
   32   14   34 1     
   33   14   35 1     
   34   14   36 1     
   35   15   31 1     
   36   15   32 1     
@<TRIPOS>SUBSTRUCTURE
      1 ****           1
@<TRIPOS>SET
DONOR_HYDROGENS      STATIC     ATOMS    <user>   **** ""
4 33 34 35 36
ATOM$RED        STATIC     ATOMS    COLORGROUP SYSTEM
4 33 34 35 36
@<TRIPOS>COMMENT
> <Gold.Version>
2022.2.0

> <Gold.Id.Protein>
3pbl|protein|mol2

> <Gold.Protein.RotatedTorsions>
[ 1303 1298 1297 1294 ] final   14.36 input  179.99 | X-H torsion
[ 2461 2456 2455 2452 ] final  -28.10 input   30.03 | X-H torsion
[ 2515 2510 2509 2506 ] final   71.91 input  -89.99 | X-H torsion
[ 3721 3712 3711 3710 ] final   39.38 input -179.91 | X-H torsion
[ 3841 3832 3831 3830 ] final  -41.61 input -179.91 | X-H torsion
[ 3767 3762 3761 3758 ] final  174.55 input  -89.99 | X-H torsion
[ 2472 2467 2466 2463 ] final -125.12 input  -89.97 | X-H torsion

> <Gold.Protein.ActiveResidues>
 VAL82   VAL86   LEU89   PHE106  VAL107  ASP110  VAL111  MET112  CYS114  THR115 
 CYS181  SER182  ILE183  PHE188  VAL189  ILE190  SER192  SER193  SER196  TRP342 
 PHE345  PHE346  HIS349  VAL350  TYR365  THR369  GLY372  TYR373 

> <Gold.Protein.RotatedAtoms>
    3.4820  -10.0421    4.1798 H   0  0  0  0  0  0  0  0  0  0  0  0  # atno 1303 bound_to 1298
    0.6449   -8.2043    7.1083 H   0  0  0  0  0  0  0  0  0  0  0  0  # atno 2461 bound_to 2456
   -4.5852   -5.4525    9.4326 H   0  0  0  0  0  0  0  0  0  0  0  0  # atno 2472 bound_to 2467
    2.0966   -7.5449    5.6181 H   0  0  0  0  0  0  0  0  0  0  0  0  # atno 2515 bound_to 2510
   -2.5052  -18.0148   13.6619 H   0  0  0  0  0  0  0  0  0  0  0  0  # atno 3721 bound_to 3712
   -4.0483  -22.6000   11.5293 H   0  0  0  0  0  0  0  0  0  0  0  0  # atno 3767 bound_to 3762
    1.5620  -19.9978    9.2289 H   0  0  0  0  0  0  0  0  0  0  0  0  # atno 3841 bound_to 3832
    4.0357   -8.5199    3.9732 LP  0  0  0  0  0  0  0  0  0  0  0  0  # atno 4297 bound_to 1298
    4.8447   -9.5591    4.9387 LP  0  0  0  0  0  0  0  0  0  0  0  0  # atno 4298 bound_to 1298
    0.9484   -9.2854    8.2942 LP  0  0  0  0  0  0  0  0  0  0  0  0  # atno 4299 bound_to 2456
    2.1443   -8.3183    7.7455 LP  0  0  0  0  0  0  0  0  0  0  0  0  # atno 4300 bound_to 2456
    2.7941   -8.3087    4.3548 LP  0  0  0  0  0  0  0  0  0  0  0  0  # atno 4301 bound_to 2510
    2.4062   -9.1458    5.7022 LP  0  0  0  0  0  0  0  0  0  0  0  0  # atno 4302 bound_to 2510
   -3.1558  -17.1247   14.8291 LP  0  0  0  0  0  0  0  0  0  0  0  0  # atno 4306 bound_to 3712
   -3.4795  -16.8032   13.2611 LP  0  0  0  0  0  0  0  0  0  0  0  0  # atno 4307 bound_to 3712
    2.7458  -19.9550    8.1459 LP  0  0  0  0  0  0  0  0  0  0  0  0  # atno 4314 bound_to 3832
    2.6792  -21.1498    9.2569 LP  0  0  0  0  0  0  0  0  0  0  0  0  # atno 4315 bound_to 3832
   -4.6451  -23.2525   10.1563 LP  0  0  0  0  0  0  0  0  0  0  0  0  # atno 4318 bound_to 3762
   -5.4337  -22.0225   10.8857 LP  0  0  0  0  0  0  0  0  0  0  0  0  # atno 4319 bound_to 3762
   -5.3779   -5.0458    8.0642 LP  0  0  0  0  0  0  0  0  0  0  0  0  # atno 4320 bound_to 2467
   -3.7538   -4.8953    8.1425 LP  0  0  0  0  0  0  0  0  0  0  0  0  # atno 4321 bound_to 2467

> <Gold.Score>
     Score     S(PLP)   S(hbond)     S(cho)   S(metal)  DE(clash)   DE(tors)     intcor
     39.41     -30.82       2.99       0.00       0.00       0.00       0.41       0.43

> <Gold.PLP.Fitness>
39.4102

> <Gold.PLP.PLP>
-30.8158

> <Gold.PLP.part.hbond>
-2.0000

> <Gold.PLP.part.metal>
0.0000

> <Gold.PLP.part.buried>
-4.2431

> <Gold.PLP.part.nonpolar>
-25.2172

> <Gold.PLP.part.repulsive>
0.0242

> <Gold.PLP.ligand.clash>
0.0000

> <Gold.PLP.ligand.torsion>
0.4054

> <Gold.PLP.Chemscore.Hbond>
2.9913

> <Gold.PLP.Chemscore.CHOScore>
0.0000

> <Gold.PLP.Chemscore.Metal>
0.0000

> <Gold.Chemscore.Hbonds>
donor molecule, donor type, donor heavy atom, donor atom, acceptor molecule, acceptor atom, score
      L1  H    12    33       P1  1227  0.99
      L1  H    14    34       P1  1227  2.00

> <Gold.PLP.Chemscore.Internal.Correction>
0.4314

