#       Name:                EN300-260862_i002
#       Creating user name   fsindt
#       Creation time:       Wed Mar  1 14:19:51 2023


#       File generated by GOLD software.
#

@<TRIPOS>MOLECULE
EN300-260862_i002|amine_1|mol2|10990|dock5
    36    36     1
SMALL
USER_CHARGES


@<TRIPOS>ATOM
      1 C1           1.6021 -23.2601  14.3991 C.3            1 <1>                0.0000
      2 C2           0.2420 -22.5939  14.6161 C.3            1 <1>                0.0000
      3 C3          -0.6118 -22.7554  13.3567 C.3            1 <1>                0.0000
      4 C4          -0.4663 -23.2541  15.8007 C.3            1 <1>                0.0000
      5 O5           0.4337 -21.1814  14.8929 O.3            1 <1>                0.0000
      6 C6           0.8892 -20.4169  13.8827 C.2            1 <1>                0.0000
      7 O7           1.4017 -20.9362  12.9110 O.2            1 <1>                0.0000
      8 N8           0.7768 -19.0754  13.9490 N.am           1 <1>                0.0000
      9 C9           0.1816 -18.3195  15.0606 C.3            1 <1>                0.0000
     10 C10          0.2492 -16.8240  14.6857 C.3            1 <1>                0.0000
     11 C11          0.3643 -16.8583  13.1388 C.3            1 <1>                0.0000
     12 O12         -0.9213 -17.0072  12.5328 O.3            1 <1>                0.0000
     13 C13          1.0734 -15.6084  12.6137 C.3            1 <1>                0.0000
     14 N14          1.1123 -15.6478  11.1458 N.4            1 <1>                1.0000
     15 C15          1.2362 -18.1229  12.9219 C.3            1 <1>                0.0000
     16 H16          2.1066 -22.7897  13.5552 H              1 <1>                0.0000
     17 H17          2.2104 -23.1450  15.2962 H              1 <1>                0.0000
     18 H18          1.4582 -24.3205  14.1913 H              1 <1>                0.0000
     19 H19         -0.7557 -23.8157  13.1490 H              1 <1>                0.0000
     20 H20         -1.5807 -22.2807  13.5113 H              1 <1>                0.0000
     21 H21         -0.1072 -22.2850  12.5129 H              1 <1>                0.0000
     22 H22          0.1421 -23.1390  16.6978 H              1 <1>                0.0000
     23 H23         -1.4352 -22.7794  15.9552 H              1 <1>                0.0000
     24 H24         -0.6101 -24.3145  15.5929 H              1 <1>                0.0000
     25 H25         -0.8569 -18.6202  15.1993 H              1 <1>                0.0000
     26 H26          0.7469 -18.4983  15.9753 H              1 <1>                0.0000
     27 H27         -0.6601 -16.3078  14.9935 H              1 <1>                0.0000
     28 H28          1.1285 -16.3549  15.1275 H              1 <1>                0.0000
     29 H29          0.5323 -14.7199  12.9392 H              1 <1>                0.0000
     30 H30          2.0909 -15.5772  13.0034 H              1 <1>                0.0000
     31 H31          2.2908 -17.8851  13.0620 H              1 <1>                0.0000
     32 H32          1.0681 -18.5334  11.9262 H              1 <1>                0.0000
     33 H33         -0.9101 -16.9504  11.5676 H              1 <1>                0.0000
     34 H34          1.5237 -14.7951  10.7971 H              1 <1>                0.0000
     35 H35          1.6659 -16.4359  10.8450 H              1 <1>                0.0000
     36 H36          0.1737 -15.7397  10.7868 H              1 <1>                0.0000
@<TRIPOS>BOND
    1    1    2 1     
    2    1   16 1     
    3    1   17 1     
    4    1   18 1     
    5    2    3 1     
    6    2    4 1     
    7    2    5 1     
    8    3   19 1     
    9    3   20 1     
   10    3   21 1     
   11    4   22 1     
   12    4   23 1     
   13    4   24 1     
   14    5    6 1     
   15    6    7 2     
   16    6    8 am    
   17    8    9 1     
   18    8   15 1     
   19    9   10 1     
   20    9   25 1     
   21    9   26 1     
   22   10   11 1     
   23   10   27 1     
   24   10   28 1     
   25   11   12 1     
   26   11   13 1     
   27   11   15 1     
   28   12   33 1     
   29   13   14 1     
   30   13   29 1     
   31   13   30 1     
   32   14   34 1     
   33   14   35 1     
   34   14   36 1     
   35   15   31 1     
   36   15   32 1     
@<TRIPOS>SUBSTRUCTURE
      1 ****           1
@<TRIPOS>SET
DONOR_HYDROGENS      STATIC     ATOMS    <user>   **** ""
4 33 34 35 36
ATOM$RED        STATIC     ATOMS    COLORGROUP SYSTEM
4 33 34 35 36
@<TRIPOS>COMMENT
> <Gold.Version>
2022.2.0

> <Gold.Id.Protein>
3pbl|protein|mol2

> <Gold.Protein.RotatedTorsions>
[ 1303 1298 1297 1294 ] final  -19.77 input  179.99 | X-H torsion
[ 2461 2456 2455 2452 ] final -170.38 input   30.03 | X-H torsion
[ 2515 2510 2509 2506 ] final  -66.73 input  -89.99 | X-H torsion
[ 3721 3712 3711 3710 ] final   81.49 input -179.91 | X-H torsion
[ 3841 3832 3831 3830 ] final  -85.47 input -179.91 | X-H torsion
[ 3767 3762 3761 3758 ] final  136.15 input  -89.99 | X-H torsion
[ 2472 2467 2466 2463 ] final  115.87 input  -89.97 | X-H torsion

> <Gold.Protein.ActiveResidues>
 VAL82   VAL86   LEU89   PHE106  VAL107  ASP110  VAL111  MET112  CYS114  THR115 
 CYS181  SER182  ILE183  PHE188  VAL189  ILE190  SER192  SER193  SER196  TRP342 
 PHE345  PHE346  HIS349  VAL350  TYR365  THR369  GLY372  TYR373 

> <Gold.Protein.RotatedAtoms>
    3.3299   -9.5905    3.8989 H   0  0  0  0  0  0  0  0  0  0  0  0  # atno 1303 bound_to 1298
    1.2988   -9.2596    8.3907 H   0  0  0  0  0  0  0  0  0  0  0  0  # atno 2461 bound_to 2456
   -5.3860   -5.0520    8.0768 H   0  0  0  0  0  0  0  0  0  0  0  0  # atno 2472 bound_to 2467
    2.8323   -8.6053    4.4164 H   0  0  0  0  0  0  0  0  0  0  0  0  # atno 2515 bound_to 2510
   -2.7234  -17.7113   13.1642 H   0  0  0  0  0  0  0  0  0  0  0  0  # atno 3721 bound_to 3712
   -3.9084  -23.0465   11.1222 H   0  0  0  0  0  0  0  0  0  0  0  0  # atno 3767 bound_to 3762
    1.8055  -19.6344    8.7528 H   0  0  0  0  0  0  0  0  0  0  0  0  # atno 3841 bound_to 3832
    4.4917   -8.5104    4.2864 LP  0  0  0  0  0  0  0  0  0  0  0  0  # atno 4297 bound_to 1298
    4.5409  -10.0203    4.9065 LP  0  0  0  0  0  0  0  0  0  0  0  0  # atno 4298 bound_to 1298
    2.0108   -8.1029    7.4837 LP  0  0  0  0  0  0  0  0  0  0  0  0  # atno 4299 bound_to 2456
    0.4281   -8.4459    7.2739 LP  0  0  0  0  0  0  0  0  0  0  0  0  # atno 4300 bound_to 2456
    2.2787   -8.9621    5.9104 LP  0  0  0  0  0  0  0  0  0  0  0  0  # atno 4301 bound_to 2510
    2.1855   -7.4315    5.3489 LP  0  0  0  0  0  0  0  0  0  0  0  0  # atno 4302 bound_to 2510
   -2.8194  -17.7216   14.7669 LP  0  0  0  0  0  0  0  0  0  0  0  0  # atno 4306 bound_to 3712
   -3.5641  -16.5568   13.8978 LP  0  0  0  0  0  0  0  0  0  0  0  0  # atno 4307 bound_to 3712
    3.1090  -20.5083    8.4164 LP  0  0  0  0  0  0  0  0  0  0  0  0  # atno 4314 bound_to 3832
    2.0347  -21.0163    9.5364 LP  0  0  0  0  0  0  0  0  0  0  0  0  # atno 4315 bound_to 3832
   -5.1556  -22.9096   10.0770 LP  0  0  0  0  0  0  0  0  0  0  0  0  # atno 4318 bound_to 3762
   -5.0631  -21.9191   11.3720 LP  0  0  0  0  0  0  0  0  0  0  0  0  # atno 4319 bound_to 3762
   -3.7619   -4.8912    8.1287 LP  0  0  0  0  0  0  0  0  0  0  0  0  # atno 4320 bound_to 2467
   -4.5692   -5.4503    9.4335 LP  0  0  0  0  0  0  0  0  0  0  0  0  # atno 4321 bound_to 2467

> <Gold.Score>
     Score     S(PLP)   S(hbond)     S(cho)   S(metal)  DE(clash)   DE(tors)     intcor
     39.26     -31.28       2.72       0.00       0.00       0.00       0.31       0.43

> <Gold.PLP.Fitness>
39.2593

> <Gold.PLP.PLP>
-31.2844

> <Gold.PLP.part.hbond>
-2.0000

> <Gold.PLP.part.metal>
0.0000

> <Gold.PLP.part.buried>
-5.4684

> <Gold.PLP.part.nonpolar>
-24.0002

> <Gold.PLP.part.repulsive>
0.0183

> <Gold.PLP.ligand.clash>
0.0015

> <Gold.PLP.ligand.torsion>
0.3075

> <Gold.PLP.Chemscore.Hbond>
2.7200

> <Gold.PLP.Chemscore.CHOScore>
0.0000

> <Gold.PLP.Chemscore.Metal>
0.0000

> <Gold.Chemscore.Hbonds>
donor molecule, donor type, donor heavy atom, donor atom, acceptor molecule, acceptor atom, score
      L1  H    14    35       P1  1227  2.00
      P1  H  3712  3721       L1    12  0.72

> <Gold.PLP.Chemscore.Internal.Correction>
0.4314

