#       Name:                EN300-260862_i002
#       Creating user name   fsindt
#       Creation time:       Wed Mar  1 14:19:58 2023


#       File generated by GOLD software.
#

@<TRIPOS>MOLECULE
EN300-260862_i002|amine_1|mol2|10990|dock14
    36    36     1
SMALL
USER_CHARGES


@<TRIPOS>ATOM
      1 C1          -2.0872 -10.5308  11.4409 C.3            1 <1>                0.0000
      2 C2          -2.7255 -10.6289  10.0539 C.3            1 <1>                0.0000
      3 C3          -4.2212 -10.9166  10.1999 C.3            1 <1>                0.0000
      4 C4          -2.5308  -9.3073   9.3081 C.3            1 <1>                0.0000
      5 O5          -2.0967 -11.7034   9.3067 O.3            1 <1>                0.0000
      6 C6          -0.7525 -11.6900   9.2307 C.2            1 <1>                0.0000
      7 O7          -0.1413 -10.6648   9.4588 O.2            1 <1>                0.0000
      8 N8          -0.0848 -12.8135   8.9017 N.am           1 <1>                0.0000
      9 C9           1.3752 -12.9390   8.7836 C.3            1 <1>                0.0000
     10 C10          1.6776 -14.3929   8.3636 C.3            1 <1>                0.0000
     11 C11          0.3435 -14.8530   7.7187 C.3            1 <1>                0.0000
     12 O12          0.2563 -14.4217   6.3591 O.3            1 <1>                0.0000
     13 C13          0.1796 -16.3707   7.8211 C.3            1 <1>                0.0000
     14 N14          0.1422 -16.7650   9.2356 N.4            1 <1>                1.0000
     15 C15         -0.6972 -14.1218   8.6068 C.3            1 <1>                0.0000
     16 H16         -2.2260 -11.4723  11.9722 H              1 <1>                0.0000
     17 H17         -1.0217 -10.3258  11.3369 H              1 <1>                0.0000
     18 H18         -2.5593  -9.7241  12.0018 H              1 <1>                0.0000
     19 H19         -4.6932 -10.1099  10.7608 H              1 <1>                0.0000
     20 H20         -4.6759 -10.9866   9.2117 H              1 <1>                0.0000
     21 H21         -4.3599 -11.8582  10.7311 H              1 <1>                0.0000
     22 H22         -1.4652  -9.1023   9.2041 H              1 <1>                0.0000
     23 H23         -2.9855  -9.3772   8.3200 H              1 <1>                0.0000
     24 H24         -3.0028  -8.5006   9.8690 H              1 <1>                0.0000
     25 H25          1.7465 -12.2494   8.0255 H              1 <1>                0.0000
     26 H26          1.8445 -12.7253   9.7440 H              1 <1>                0.0000
     27 H27          2.4885 -14.4233   7.6358 H              1 <1>                0.0000
     28 H28          1.9162 -15.0042   9.2340 H              1 <1>                0.0000
     29 H29         -0.7498 -16.6693   7.3359 H              1 <1>                0.0000
     30 H30          1.0199 -16.8609   7.3294 H              1 <1>                0.0000
     31 H31         -0.8711 -14.6810   9.5262 H              1 <1>                0.0000
     32 H32         -1.6315 -13.9854   8.0623 H              1 <1>                0.0000
     33 H33         -0.6466 -14.2518   6.0576 H              1 <1>                0.0000
     34 H34         -0.3879 -17.6178   9.3333 H              1 <1>                0.0000
     35 H35          1.0831 -16.9138   9.5683 H              1 <1>                0.0000
     36 H36         -0.2942 -16.0338   9.7771 H              1 <1>                0.0000
@<TRIPOS>BOND
    1    1    2 1     
    2    1   16 1     
    3    1   17 1     
    4    1   18 1     
    5    2    3 1     
    6    2    4 1     
    7    2    5 1     
    8    3   19 1     
    9    3   20 1     
   10    3   21 1     
   11    4   22 1     
   12    4   23 1     
   13    4   24 1     
   14    5    6 1     
   15    6    7 2     
   16    6    8 am    
   17    8    9 1     
   18    8   15 1     
   19    9   10 1     
   20    9   25 1     
   21    9   26 1     
   22   10   11 1     
   23   10   27 1     
   24   10   28 1     
   25   11   12 1     
   26   11   13 1     
   27   11   15 1     
   28   12   33 1     
   29   13   14 1     
   30   13   29 1     
   31   13   30 1     
   32   14   34 1     
   33   14   35 1     
   34   14   36 1     
   35   15   31 1     
   36   15   32 1     
@<TRIPOS>SUBSTRUCTURE
      1 ****           1
@<TRIPOS>SET
DONOR_HYDROGENS      STATIC     ATOMS    <user>   **** ""
4 33 34 35 36
ATOM$RED        STATIC     ATOMS    COLORGROUP SYSTEM
4 33 34 35 36
@<TRIPOS>COMMENT
> <Gold.Version>
2022.2.0

> <Gold.Id.Protein>
3pbl|protein|mol2

> <Gold.Protein.RotatedTorsions>
[ 1303 1298 1297 1294 ] final  164.13 input  179.99 | X-H torsion
[ 2461 2456 2455 2452 ] final -142.09 input   30.03 | X-H torsion
[ 2515 2510 2509 2506 ] final -163.16 input  -89.99 | X-H torsion
[ 3721 3712 3711 3710 ] final   26.73 input -179.91 | X-H torsion
[ 3841 3832 3831 3830 ] final  113.42 input -179.91 | X-H torsion
[ 3767 3762 3761 3758 ] final  113.92 input  -89.99 | X-H torsion
[ 2472 2467 2466 2463 ] final  -67.77 input  -89.97 | X-H torsion

> <Gold.Protein.ActiveResidues>
 VAL82   VAL86   LEU89   PHE106  VAL107  ASP110  VAL111  MET112  CYS114  THR115 
 CYS181  SER182  ILE183  PHE188  VAL189  ILE190  SER192  SER193  SER196  TRP342 
 PHE345  PHE346  HIS349  VAL350  TYR365  THR369  GLY372  TYR373 

> <Gold.Protein.RotatedAtoms>
    4.9074   -9.0981    4.8040 H   0  0  0  0  0  0  0  0  0  0  0  0  # atno 1303 bound_to 1298
    0.8594   -9.2750    8.2527 H   0  0  0  0  0  0  0  0  0  0  0  0  # atno 2461 bound_to 2456
   -3.7897   -5.2316    9.0624 H   0  0  0  0  0  0  0  0  0  0  0  0  # atno 2472 bound_to 2467
    2.4410   -9.1804    5.6376 H   0  0  0  0  0  0  0  0  0  0  0  0  # atno 2515 bound_to 2510
   -2.4773  -18.0344   13.8497 H   0  0  0  0  0  0  0  0  0  0  0  0  # atno 3721 bound_to 3712
   -3.9881  -23.2315   10.8196 H   0  0  0  0  0  0  0  0  0  0  0  0  # atno 3767 bound_to 3762
    3.0442  -20.7811    9.0124 H   0  0  0  0  0  0  0  0  0  0  0  0  # atno 3841 bound_to 3832
    3.7983  -10.2521    4.4804 LP  0  0  0  0  0  0  0  0  0  0  0  0  # atno 4297 bound_to 1298
    3.6562   -8.7712    3.8070 LP  0  0  0  0  0  0  0  0  0  0  0  0  # atno 4298 bound_to 1298
    2.1577   -8.3851    7.8169 LP  0  0  0  0  0  0  0  0  0  0  0  0  # atno 4299 bound_to 2456
    0.7206   -8.1482    7.0786 LP  0  0  0  0  0  0  0  0  0  0  0  0  # atno 4300 bound_to 2456
    2.0783   -7.5891    5.6836 LP  0  0  0  0  0  0  0  0  0  0  0  0  # atno 4301 bound_to 2510
    2.7773   -8.2292    4.3539 LP  0  0  0  0  0  0  0  0  0  0  0  0  # atno 4302 bound_to 2510
   -3.2583  -16.9583   14.7497 LP  0  0  0  0  0  0  0  0  0  0  0  0  # atno 4306 bound_to 3712
   -3.4093  -16.9470   13.1237 LP  0  0  0  0  0  0  0  0  0  0  0  0  # atno 4307 bound_to 3712
    1.5136  -20.5339    9.4272 LP  0  0  0  0  0  0  0  0  0  0  0  0  # atno 4314 bound_to 3832
    2.1992  -19.6661    8.2257 LP  0  0  0  0  0  0  0  0  0  0  0  0  # atno 4315 bound_to 3832
   -5.3745  -22.6421   10.1894 LP  0  0  0  0  0  0  0  0  0  0  0  0  # atno 4318 bound_to 3762
   -4.7645  -22.0016   11.5621 LP  0  0  0  0  0  0  0  0  0  0  0  0  # atno 4319 bound_to 3762
   -5.4111   -5.3556    8.9137 LP  0  0  0  0  0  0  0  0  0  0  0  0  # atno 4320 bound_to 2467
   -4.5160   -4.8064    7.6631 LP  0  0  0  0  0  0  0  0  0  0  0  0  # atno 4321 bound_to 2467

> <Gold.Score>
     Score     S(PLP)   S(hbond)     S(cho)   S(metal)  DE(clash)   DE(tors)     intcor
     49.62     -40.87       3.00       0.00       0.00       0.00       0.34       0.43

> <Gold.PLP.Fitness>
49.6217

> <Gold.PLP.PLP>
-40.8737

> <Gold.PLP.part.hbond>
-2.0000

> <Gold.PLP.part.metal>
0.0000

> <Gold.PLP.part.buried>
-0.1229

> <Gold.PLP.part.nonpolar>
-39.7950

> <Gold.PLP.part.repulsive>
0.0000

> <Gold.PLP.ligand.clash>
0.0000

> <Gold.PLP.ligand.torsion>
0.3412

> <Gold.PLP.Chemscore.Hbond>
3.0000

> <Gold.PLP.Chemscore.CHOScore>
0.0000

> <Gold.PLP.Chemscore.Metal>
0.0000

> <Gold.Chemscore.Hbonds>
donor molecule, donor type, donor heavy atom, donor atom, acceptor molecule, acceptor atom, score
      L1  H    14    35       P1  1227  2.00
      P1  H  2456  2461       L1     7  1.00

> <Gold.PLP.Chemscore.Internal.Correction>
0.4304

