#       Name:                EN300-260862_i002
#       Creating user name   fsindt
#       Creation time:       Wed Mar  1 14:20:04 2023


#       File generated by GOLD software.
#

@<TRIPOS>MOLECULE
EN300-260862_i002|amine_1|mol2|10990|dock20
    36    36     1
SMALL
USER_CHARGES


@<TRIPOS>ATOM
      1 C1           1.8200 -15.6175  12.4358 C.3            1 <1>                0.0000
      2 C2           0.2903 -15.6384  12.4138 C.3            1 <1>                0.0000
      3 C3          -0.1910 -16.6129  11.3369 C.3            1 <1>                0.0000
      4 C4          -0.2334 -16.0879  13.7793 C.3            1 <1>                0.0000
      5 O5          -0.2078 -14.3067  12.1189 O.3            1 <1>                0.0000
      6 C6           0.0030 -13.8369  10.8748 C.2            1 <1>                0.0000
      7 O7           0.9006 -14.2955  10.1961 O.2            1 <1>                0.0000
      8 N8          -0.7815 -12.8580  10.3822 N.am           1 <1>                0.0000
      9 C9          -0.6631 -12.2558   9.0463 C.3            1 <1>                0.0000
     10 C10         -1.7502 -11.1659   8.9370 C.3            1 <1>                0.0000
     11 C11         -2.0534 -10.8275  10.4205 C.3            1 <1>                0.0000
     12 O12         -1.0990  -9.8990  10.9394 O.3            1 <1>                0.0000
     13 C13         -3.4778 -10.2925  10.5811 C.3            1 <1>                0.0000
     14 N14         -4.4184 -11.1920   9.8999 N.4            1 <1>                1.0000
     15 C15         -1.9046 -12.2183  11.0914 C.3            1 <1>                0.0000
     16 H16          2.1930 -15.2973  11.4630 H              1 <1>                0.0000
     17 H17          2.1628 -14.9232  13.2029 H              1 <1>                0.0000
     18 H18          2.1938 -16.6172  12.6572 H              1 <1>                0.0000
     19 H19          0.1829 -17.6126  11.5583 H              1 <1>                0.0000
     20 H20         -1.2808 -16.6278  11.3212 H              1 <1>                0.0000
     21 H21          0.1820 -16.2927  10.3641 H              1 <1>                0.0000
     22 H22          0.1095 -15.3935  14.5464 H              1 <1>                0.0000
     23 H23         -1.3231 -16.1028  13.7635 H              1 <1>                0.0000
     24 H24          0.1405 -17.0875  14.0007 H              1 <1>                0.0000
     25 H25          0.3237 -11.8082   8.9276 H              1 <1>                0.0000
     26 H26         -0.8221 -13.0160   8.2815 H              1 <1>                0.0000
     27 H27         -1.3675 -10.2906   8.4122 H              1 <1>                0.0000
     28 H28         -2.6391 -11.5561   8.4411 H              1 <1>                0.0000
     29 H29         -3.7286 -10.2390  11.6405 H              1 <1>                0.0000
     30 H30         -3.5438  -9.2972  10.1415 H              1 <1>                0.0000
     31 H31         -2.8187 -12.7991  10.9672 H              1 <1>                0.0000
     32 H32         -1.6663 -12.1058  12.1490 H              1 <1>                0.0000
     33 H33         -0.8637 -10.0526  11.8647 H              1 <1>                0.0000
     34 H34         -4.1494 -11.2900   8.9324 H              1 <1>                0.0000
     35 H35         -4.4023 -12.0965  10.3467 H              1 <1>                0.0000
     36 H36         -5.3497 -10.8073   9.9527 H              1 <1>                0.0000
@<TRIPOS>BOND
    1    1    2 1     
    2    1   16 1     
    3    1   17 1     
    4    1   18 1     
    5    2    3 1     
    6    2    4 1     
    7    2    5 1     
    8    3   19 1     
    9    3   20 1     
   10    3   21 1     
   11    4   22 1     
   12    4   23 1     
   13    4   24 1     
   14    5    6 1     
   15    6    7 2     
   16    6    8 am    
   17    8    9 1     
   18    8   15 1     
   19    9   10 1     
   20    9   25 1     
   21    9   26 1     
   22   10   11 1     
   23   10   27 1     
   24   10   28 1     
   25   11   12 1     
   26   11   13 1     
   27   11   15 1     
   28   12   33 1     
   29   13   14 1     
   30   13   29 1     
   31   13   30 1     
   32   14   34 1     
   33   14   35 1     
   34   14   36 1     
   35   15   31 1     
   36   15   32 1     
@<TRIPOS>SUBSTRUCTURE
      1 ****           1
@<TRIPOS>SET
DONOR_HYDROGENS      STATIC     ATOMS    <user>   **** ""
4 33 34 35 36
ATOM$RED        STATIC     ATOMS    COLORGROUP SYSTEM
4 33 34 35 36
@<TRIPOS>COMMENT
> <Gold.Version>
2022.2.0

> <Gold.Id.Protein>
3pbl|protein|mol2

> <Gold.Protein.RotatedTorsions>
[ 1303 1298 1297 1294 ] final  108.14 input  179.99 | X-H torsion
[ 2461 2456 2455 2452 ] final    8.72 input   30.03 | X-H torsion
[ 2515 2510 2509 2506 ] final  -22.40 input  -89.99 | X-H torsion
[ 3721 3712 3711 3710 ] final -171.47 input -179.91 | X-H torsion
[ 3841 3832 3831 3830 ] final  -83.75 input -179.91 | X-H torsion
[ 3767 3762 3761 3758 ] final  135.98 input  -89.99 | X-H torsion
[ 2472 2467 2466 2463 ] final  126.14 input  -89.97 | X-H torsion

> <Gold.Protein.ActiveResidues>
 VAL82   VAL86   LEU89   PHE106  VAL107  ASP110  VAL111  MET112  CYS114  THR115 
 CYS181  SER182  ILE183  PHE188  VAL189  ILE190  SER192  SER193  SER196  TRP342 
 PHE345  PHE346  HIS349  VAL350  TYR365  THR369  GLY372  TYR373 

> <Gold.Protein.RotatedAtoms>
    4.6287   -9.9280    4.9324 H   0  0  0  0  0  0  0  0  0  0  0  0  # atno 1303 bound_to 1298
    1.1787   -7.9490    7.0396 H   0  0  0  0  0  0  0  0  0  0  0  0  # atno 2461 bound_to 2456
   -5.4561   -5.1108    8.2186 H   0  0  0  0  0  0  0  0  0  0  0  0  # atno 2472 bound_to 2467
    2.6808   -7.9105    4.4202 H   0  0  0  0  0  0  0  0  0  0  0  0  # atno 2515 bound_to 2510
   -3.3351  -16.5656   13.6678 H   0  0  0  0  0  0  0  0  0  0  0  0  # atno 3721 bound_to 3712
   -3.9085  -23.0482   11.1200 H   0  0  0  0  0  0  0  0  0  0  0  0  # atno 3767 bound_to 3762
    1.7886  -19.6428    8.7708 H   0  0  0  0  0  0  0  0  0  0  0  0  # atno 3841 bound_to 3832
    3.3415   -9.7086    3.9521 LP  0  0  0  0  0  0  0  0  0  0  0  0  # atno 4297 bound_to 1298
    4.3918   -8.4845    4.2069 LP  0  0  0  0  0  0  0  0  0  0  0  0  # atno 4298 bound_to 1298
    0.4890   -9.1098    7.9584 LP  0  0  0  0  0  0  0  0  0  0  0  0  # atno 4299 bound_to 2456
    2.0701   -8.7491    8.1499 LP  0  0  0  0  0  0  0  0  0  0  0  0  # atno 4300 bound_to 2456
    2.5834   -9.2567    5.3388 LP  0  0  0  0  0  0  0  0  0  0  0  0  # atno 4301 bound_to 2510
    2.0324   -7.8322    5.9166 LP  0  0  0  0  0  0  0  0  0  0  0  0  # atno 4302 bound_to 2510
   -2.7847  -18.0166   13.2562 LP  0  0  0  0  0  0  0  0  0  0  0  0  # atno 4306 bound_to 3712
   -2.8926  -17.5844   14.8272 LP  0  0  0  0  0  0  0  0  0  0  0  0  # atno 4307 bound_to 3712
    3.1032  -20.4856    8.3997 LP  0  0  0  0  0  0  0  0  0  0  0  0  # atno 4314 bound_to 3832
    2.0601  -21.0293    9.5324 LP  0  0  0  0  0  0  0  0  0  0  0  0  # atno 4315 bound_to 3832
   -5.1576  -22.9076   10.0774 LP  0  0  0  0  0  0  0  0  0  0  0  0  # atno 4318 bound_to 3762
   -5.0610  -21.9193   11.3738 LP  0  0  0  0  0  0  0  0  0  0  0  0  # atno 4319 bound_to 3762
   -3.8589   -4.8540    7.9958 LP  0  0  0  0  0  0  0  0  0  0  0  0  # atno 4320 bound_to 2467
   -4.4021   -5.4287    9.4246 LP  0  0  0  0  0  0  0  0  0  0  0  0  # atno 4321 bound_to 2467

> <Gold.Score>
     Score     S(PLP)   S(hbond)     S(cho)   S(metal)  DE(clash)   DE(tors)     intcor
     41.94     -42.36       0.00       0.00       0.00       0.00       0.42       0.42

> <Gold.PLP.Fitness>
41.9396

> <Gold.PLP.PLP>
-42.3617

> <Gold.PLP.part.hbond>
0.0000

> <Gold.PLP.part.metal>
0.0000

> <Gold.PLP.part.buried>
-6.9786

> <Gold.PLP.part.nonpolar>
-37.1297

> <Gold.PLP.part.repulsive>
0.1756

> <Gold.PLP.ligand.clash>
0.0000

> <Gold.PLP.ligand.torsion>
0.4231

> <Gold.PLP.Chemscore.Hbond>
0.0000

> <Gold.PLP.Chemscore.CHOScore>
0.0000

> <Gold.PLP.Chemscore.Metal>
0.0000

> <Gold.PLP.Chemscore.Internal.Correction>
0.4241

