#       Name:                EN300-76468_i001
#       Creating user name   aseyller
#       Creation time:       Fri Apr 21 18:02:42 2023


#       File generated by GOLD software.
#

@<TRIPOS>MOLECULE
EN300-76468_i001|benzaldehydes|mol2|415|dock4
    16    17     1
SMALL
USER_CHARGES


@<TRIPOS>ATOM
      1 O1          29.1089  38.4648  36.6999 O.2            1 <1>                0.0000
      2 C2          29.8844  37.7867  37.3434 C.2            1 <1>                0.0000
      3 C3          29.4293  37.0768  38.4769 C.2            1 <1>                0.0000
      4 C4          30.2170  36.3129  39.3630 C.2            1 <1>                0.0000
      5 N5          29.4410  35.8099  40.2845 N.2            1 <1>                0.0000
      6 N6          28.1199  36.2102  40.0573 N.pl3          1 <1>                0.0000
      7 C7          26.9603  35.9543  40.7258 C.2            1 <1>                0.0000
      8 C8          25.7994  36.4884  40.2657 C.2            1 <1>                0.0000
      9 C9          25.8204  37.2878  39.1178 C.2            1 <1>                0.0000
     10 N10         26.9562  37.5162  38.4941 N.2            1 <1>                0.0000
     11 C11         28.0991  37.0003  38.9445 C.2            1 <1>                0.0000
     12 H12         30.9208  37.7230  37.0465 H              1 <1>                0.0000
     13 H13         31.2847  36.1678  39.2909 H              1 <1>                0.0000
     14 H14         26.9642  35.3343  41.6102 H              1 <1>                0.0000
     15 H15         24.8694  36.2977  40.7805 H              1 <1>                0.0000
     16 H16         24.9033  37.7177  38.7430 H              1 <1>                0.0000
@<TRIPOS>BOND
    1    1    2 2     
    2    2    3 1     
    3    2   12 1     
    4    3    4 1     
    5    3   11 2     
    6    4    5 2     
    7    4   13 1     
    8    5    6 1     
    9    6    7 1     
   10    6   11 1     
   11    7    8 2     
   12    7   14 1     
   13    8    9 1     
   14    8   15 1     
   15    9   10 2     
   16    9   16 1     
   17   10   11 1     
@<TRIPOS>SUBSTRUCTURE
      1 ****           1
@<TRIPOS>COMMENT
> <Gold.Version>
2022.2.0

> <Gold.Id.Protein>
1qkm|1qkm_protein|mol2

> <Gold.Protein.RotatedTorsions>
[  496  491  490  487 ] final  132.18 input  -89.99 | X-H torsion

> <Gold.Protein.ActiveResidues>
 MET295  LEU298  THR299  LEU301  ALA302  GLU305  TRP335  MET336  LEU339  MET340 
 GLY342  LEU343  ARG346  PHE356  ILE373  ILE376  PHE377  LEU380  LYS471  GLY472 
 MET473  HIS475  LEU476  LEU477  ASN478  MET479  VAL484  VAL487 

> <Gold.Protein.RotatedAtoms>
   37.1674   32.9807   41.4423 H   0  0  0  0  0  0  0  0  0  0  0  0  # atno 496  bound_to 491 

> <Gold.Score>
     Score     S(PLP)   S(hbond)     S(cho)   S(metal)  DE(clash)   DE(tors)     intcor
     37.77     -34.78       0.00       1.00       0.00       0.00       0.00       0.00

> <Gold.PLP.Fitness>
37.7723

> <Gold.PLP.PLP>
-34.7784

> <Gold.PLP.part.hbond>
0.0000

> <Gold.PLP.part.metal>
0.0000

> <Gold.PLP.part.buried>
-4.0117

> <Gold.PLP.part.nonpolar>
-31.5329

> <Gold.PLP.part.repulsive>
0.5473

> <Gold.PLP.ligand.clash>
0.0000

> <Gold.PLP.ligand.torsion>
0.0031

> <Gold.PLP.Chemscore.Hbond>
0.0000

> <Gold.PLP.Chemscore.CHOScore>
1.0000

> <Gold.PLP.Chemscore.Metal>
0.0000

> <Gold.Chemscore.Hbonds>
donor molecule, donor type, donor heavy atom, donor atom, acceptor molecule, acceptor atom, score
      L1  C     7    14       P1   582  1.00

> <Gold.PLP.Chemscore.Internal.Correction>
0.0000

