#       Name:                EN300-76468_i001
#       Creating user name   aseyller
#       Creation time:       Fri Apr 21 18:02:43 2023


#       File generated by GOLD software.
#

@<TRIPOS>MOLECULE
EN300-76468_i001|benzaldehydes|mol2|415|dock8
    16    17     1
SMALL
USER_CHARGES


@<TRIPOS>ATOM
      1 O1          29.2009  37.1294  37.0280 O.2            1 <1>                0.0000
      2 C2          29.7374  36.4856  37.9071 C.2            1 <1>                0.0000
      3 C3          29.1127  36.3533  39.1673 C.2            1 <1>                0.0000
      4 C4          29.6817  35.8028  40.3345 C.2            1 <1>                0.0000
      5 N5          28.7984  35.8540  41.2944 N.2            1 <1>                0.0000
      6 N6          27.6175  36.4328  40.8170 N.pl3          1 <1>                0.0000
      7 C7          26.4249  36.7032  41.4183 C.2            1 <1>                0.0000
      8 C8          25.4343  37.2832  40.6925 C.2            1 <1>                0.0000
      9 C9          25.6602  37.5892  39.3463 C.2            1 <1>                0.0000
     10 N10         26.8225  37.3154  38.7940 N.2            1 <1>                0.0000
     11 C11         27.8004  36.7524  39.5027 C.2            1 <1>                0.0000
     12 H12         30.6899  36.0105  37.7240 H              1 <1>                0.0000
     13 H13         30.6819  35.4046  40.4199 H              1 <1>                0.0000
     14 H14         26.2694  36.4592  42.4589 H              1 <1>                0.0000
     15 H15         24.4815  37.5056  41.1500 H              1 <1>                0.0000
     16 H16         24.8795  38.0505  38.7596 H              1 <1>                0.0000
@<TRIPOS>BOND
    1    1    2 2     
    2    2    3 1     
    3    2   12 1     
    4    3    4 1     
    5    3   11 2     
    6    4    5 2     
    7    4   13 1     
    8    5    6 1     
    9    6    7 1     
   10    6   11 1     
   11    7    8 2     
   12    7   14 1     
   13    8    9 1     
   14    8   15 1     
   15    9   10 2     
   16    9   16 1     
   17   10   11 1     
@<TRIPOS>SUBSTRUCTURE
      1 ****           1
@<TRIPOS>COMMENT
> <Gold.Version>
2022.2.0

> <Gold.Id.Protein>
1qkm|1qkm_protein|mol2

> <Gold.Protein.RotatedTorsions>
[  496  491  490  487 ] final   -3.82 input  -89.99 | X-H torsion

> <Gold.Protein.ActiveResidues>
 MET295  LEU298  THR299  LEU301  ALA302  GLU305  TRP335  MET336  LEU339  MET340 
 GLY342  LEU343  ARG346  PHE356  ILE373  ILE376  PHE377  LEU380  LYS471  GLY472 
 MET473  HIS475  LEU476  LEU477  ASN478  MET479  VAL484  VAL487 

> <Gold.Protein.RotatedAtoms>
   36.2588   34.2671   42.2031 H   0  0  0  0  0  0  0  0  0  0  0  0  # atno 496  bound_to 491 

> <Gold.Score>
     Score     S(PLP)   S(hbond)     S(cho)   S(metal)  DE(clash)   DE(tors)     intcor
     38.38     -32.43       0.00       2.00       0.00       0.00       0.02       0.00

> <Gold.PLP.Fitness>
38.3830

> <Gold.PLP.PLP>
-32.4310

> <Gold.PLP.part.hbond>
0.0000

> <Gold.PLP.part.metal>
0.0000

> <Gold.PLP.part.buried>
-1.4530

> <Gold.PLP.part.nonpolar>
-31.7943

> <Gold.PLP.part.repulsive>
0.1708

> <Gold.PLP.ligand.clash>
0.0000

> <Gold.PLP.ligand.torsion>
0.0195

> <Gold.PLP.Chemscore.Hbond>
0.0000

> <Gold.PLP.Chemscore.CHOScore>
1.9970

> <Gold.PLP.Chemscore.Metal>
0.0000

> <Gold.Chemscore.Hbonds>
donor molecule, donor type, donor heavy atom, donor atom, acceptor molecule, acceptor atom, score
      L1  C     4    13       P1   470  1.00
      L1  C     7    14       P1   582  1.00

> <Gold.PLP.Chemscore.Internal.Correction>
0.0000

