#       Name:                EN300-76468_i001
#       Creating user name   aseyller
#       Creation time:       Fri Apr 21 18:02:42 2023


#       File generated by GOLD software.
#

@<TRIPOS>MOLECULE
EN300-76468_i001|benzaldehydes|mol2|415|dock3
    16    17     1
SMALL
USER_CHARGES


@<TRIPOS>ATOM
      1 O1          25.0903  36.7631  41.7375 O.2            1 <1>                0.0000
      2 C2          25.6211  36.8775  40.6510 C.2            1 <1>                0.0000
      3 C3          27.0162  36.6950  40.5237 C.2            1 <1>                0.0000
      4 C4          27.8882  36.1691  41.4995 C.2            1 <1>                0.0000
      5 N5          29.1000  36.1568  41.0143 N.2            1 <1>                0.0000
      6 N6          29.0906  36.6668  39.7115 N.pl3          1 <1>                0.0000
      7 C7          30.0838  36.8579  38.7983 C.2            1 <1>                0.0000
      8 C8          29.7748  37.3829  37.5845 C.2            1 <1>                0.0000
      9 C9          28.4460  37.7151  37.2997 C.2            1 <1>                0.0000
     10 N10         27.5093  37.5190  38.2026 N.2            1 <1>                0.0000
     11 C11         27.8055  36.9982  39.3927 C.2            1 <1>                0.0000
     12 H12         25.0259  37.1143  39.7815 H              1 <1>                0.0000
     13 H13         27.6011  35.8328  42.4848 H              1 <1>                0.0000
     14 H14         31.1040  36.5955  39.0369 H              1 <1>                0.0000
     15 H15         30.5471  37.5427  36.8466 H              1 <1>                0.0000
     16 H16         28.1888  38.1332  36.3376 H              1 <1>                0.0000
@<TRIPOS>BOND
    1    1    2 2     
    2    2    3 1     
    3    2   12 1     
    4    3    4 1     
    5    3   11 2     
    6    4    5 2     
    7    4   13 1     
    8    5    6 1     
    9    6    7 1     
   10    6   11 1     
   11    7    8 2     
   12    7   14 1     
   13    8    9 1     
   14    8   15 1     
   15    9   10 2     
   16    9   16 1     
   17   10   11 1     
@<TRIPOS>SUBSTRUCTURE
      1 ****           1
@<TRIPOS>COMMENT
> <Gold.Version>
2022.2.0

> <Gold.Id.Protein>
1qkm|1qkm_protein|mol2

> <Gold.Protein.RotatedTorsions>
[  496  491  490  487 ] final -124.69 input  -89.99 | X-H torsion

> <Gold.Protein.ActiveResidues>
 MET295  LEU298  THR299  LEU301  ALA302  GLU305  TRP335  MET336  LEU339  MET340 
 GLY342  LEU343  ARG346  PHE356  ILE373  ILE376  PHE377  LEU380  LYS471  GLY472 
 MET473  HIS475  LEU476  LEU477  ASN478  MET479  VAL484  VAL487 

> <Gold.Protein.RotatedAtoms>
   37.0640   34.2944   40.7738 H   0  0  0  0  0  0  0  0  0  0  0  0  # atno 496  bound_to 491 

> <Gold.Score>
     Score     S(PLP)   S(hbond)     S(cho)   S(metal)  DE(clash)   DE(tors)     intcor
     39.18     -34.65       0.53       1.00       0.00       0.00       0.03       0.00

> <Gold.PLP.Fitness>
39.1811

> <Gold.PLP.PLP>
-34.6524

> <Gold.PLP.part.hbond>
-1.0000

> <Gold.PLP.part.metal>
0.0000

> <Gold.PLP.part.buried>
-4.6482

> <Gold.PLP.part.nonpolar>
-30.2304

> <Gold.PLP.part.repulsive>
0.6301

> <Gold.PLP.ligand.clash>
0.0000

> <Gold.PLP.ligand.torsion>
0.0277

> <Gold.PLP.Chemscore.Hbond>
0.5280

> <Gold.PLP.Chemscore.CHOScore>
1.0000

> <Gold.PLP.Chemscore.Metal>
0.0000

> <Gold.Chemscore.Hbonds>
donor molecule, donor type, donor heavy atom, donor atom, acceptor molecule, acceptor atom, score
      P1  H  1258  1270       L1     1  0.53
      L1  C     4    13       P1   582  1.00

> <Gold.PLP.Chemscore.Internal.Correction>
0.0000

