#       Name:                EN300-76468_i001
#       Creating user name   aseyller
#       Creation time:       Fri Apr 21 18:02:41 2023


#       File generated by GOLD software.
#

@<TRIPOS>MOLECULE
EN300-76468_i001|benzaldehydes|mol2|415|dock1
    16    17     1
SMALL
USER_CHARGES


@<TRIPOS>ATOM
      1 O1          31.5442  36.7450  37.7576 O.2            1 <1>                0.0000
      2 C2          30.3837  37.0931  37.8442 C.2            1 <1>                0.0000
      3 C3          29.5748  36.6001  38.8923 C.2            1 <1>                0.0000
      4 C4          29.9879  35.7684  39.9537 C.2            1 <1>                0.0000
      5 N5          28.9591  35.5261  40.7199 N.2            1 <1>                0.0000
      6 N6          27.8297  36.1762  40.2108 N.pl3          1 <1>                0.0000
      7 C7          26.5377  36.2334  40.6402 C.2            1 <1>                0.0000
      8 C8          25.6357  36.9589  39.9299 C.2            1 <1>                0.0000
      9 C9          26.0527  37.6299  38.7754 C.2            1 <1>                0.0000
     10 N10         27.3073  37.5550  38.3861 N.2            1 <1>                0.0000
     11 C11         28.1981  36.8502  39.0825 C.2            1 <1>                0.0000
     12 H12         29.9715  37.7828  37.1226 H              1 <1>                0.0000
     13 H13         30.9892  35.3938  40.1071 H              1 <1>                0.0000
     14 H14         26.2347  35.7082  41.5340 H              1 <1>                0.0000
     15 H15         24.6067  37.0170  40.2528 H              1 <1>                0.0000
     16 H16         25.3439  38.2098  38.2027 H              1 <1>                0.0000
@<TRIPOS>BOND
    1    1    2 2     
    2    2    3 1     
    3    2   12 1     
    4    3    4 1     
    5    3   11 2     
    6    4    5 2     
    7    4   13 1     
    8    5    6 1     
    9    6    7 1     
   10    6   11 1     
   11    7    8 2     
   12    7   14 1     
   13    8    9 1     
   14    8   15 1     
   15    9   10 2     
   16    9   16 1     
   17   10   11 1     
@<TRIPOS>SUBSTRUCTURE
      1 ****           1
@<TRIPOS>COMMENT
> <Gold.Version>
2022.2.0

> <Gold.Id.Protein>
1qkm|1qkm_protein|mol2

> <Gold.Protein.RotatedTorsions>
[  496  491  490  487 ] final  -83.59 input  -89.99 | X-H torsion

> <Gold.Protein.ActiveResidues>
 MET295  LEU298  THR299  LEU301  ALA302  GLU305  TRP335  MET336  LEU339  MET340 
 GLY342  LEU343  ARG346  PHE356  ILE373  ILE376  PHE377  LEU380  LYS471  GLY472 
 MET473  HIS475  LEU476  LEU477  ASN478  MET479  VAL484  VAL487 

> <Gold.Protein.RotatedAtoms>
   36.6984   34.6902   41.1586 H   0  0  0  0  0  0  0  0  0  0  0  0  # atno 496  bound_to 491 

> <Gold.Score>
     Score     S(PLP)   S(hbond)     S(cho)   S(metal)  DE(clash)   DE(tors)     intcor
     37.30     -31.73       0.00       1.86       0.00       0.00       0.00       0.00

> <Gold.PLP.Fitness>
37.2983

> <Gold.PLP.PLP>
-31.7326

> <Gold.PLP.part.hbond>
0.0000

> <Gold.PLP.part.metal>
0.0000

> <Gold.PLP.part.buried>
-0.5936

> <Gold.PLP.part.nonpolar>
-32.0995

> <Gold.PLP.part.repulsive>
0.1492

> <Gold.PLP.ligand.clash>
0.0000

> <Gold.PLP.ligand.torsion>
0.0036

> <Gold.PLP.Chemscore.Hbond>
0.0000

> <Gold.PLP.Chemscore.CHOScore>
1.8576

> <Gold.PLP.Chemscore.Metal>
0.0000

> <Gold.Chemscore.Hbonds>
donor molecule, donor type, donor heavy atom, donor atom, acceptor molecule, acceptor atom, score
      L1  C     4    13       P1   470  0.86
      L1  C     7    14       P1   582  1.00

> <Gold.PLP.Chemscore.Internal.Correction>
0.0000

