#       Name:                EN300-76468_i001
#       Creating user name   aseyller
#       Creation time:       Fri Apr 21 18:02:43 2023


#       File generated by GOLD software.
#

@<TRIPOS>MOLECULE
EN300-76468_i001|benzaldehydes|mol2|415|dock5
    16    17     1
SMALL
USER_CHARGES


@<TRIPOS>ATOM
      1 O1          29.3253  36.7129  40.0192 O.2            1 <1>                0.0000
      2 C2          29.7266  37.1224  38.9485 C.2            1 <1>                0.0000
      3 C3          30.8024  36.4735  38.3023 C.2            1 <1>                0.0000
      4 C4          31.4626  35.3051  38.7358 C.2            1 <1>                0.0000
      5 N5          32.4013  35.0123  37.8772 N.2            1 <1>                0.0000
      6 N6          32.4091  35.9590  36.8472 N.pl3          1 <1>                0.0000
      7 C7          33.1844  36.0917  35.7345 C.2            1 <1>                0.0000
      8 C8          32.9604  37.1332  34.8920 C.2            1 <1>                0.0000
      9 C9          31.9404  38.0447  35.1853 C.2            1 <1>                0.0000
     10 N10         31.2090  37.8898  36.2679 N.2            1 <1>                0.0000
     11 C11         31.4198  36.8663  37.0946 C.2            1 <1>                0.0000
     12 H12         29.2582  37.9799  38.4883 H              1 <1>                0.0000
     13 H13         31.2303  34.7456  39.6299 H              1 <1>                0.0000
     14 H14         33.9675  35.3779  35.5252 H              1 <1>                0.0000
     15 H15         33.5638  37.2568  34.0049 H              1 <1>                0.0000
     16 H16         31.7534  38.8767  34.5224 H              1 <1>                0.0000
@<TRIPOS>BOND
    1    1    2 2     
    2    2    3 1     
    3    2   12 1     
    4    3    4 1     
    5    3   11 2     
    6    4    5 2     
    7    4   13 1     
    8    5    6 1     
    9    6    7 1     
   10    6   11 1     
   11    7    8 2     
   12    7   14 1     
   13    8    9 1     
   14    8   15 1     
   15    9   10 2     
   16    9   16 1     
   17   10   11 1     
@<TRIPOS>SUBSTRUCTURE
      1 ****           1
@<TRIPOS>COMMENT
> <Gold.Version>
2022.2.0

> <Gold.Id.Protein>
1qkm|1qkm_protein|mol2

> <Gold.Protein.RotatedTorsions>
[  496  491  490  487 ] final  126.30 input  -89.99 | X-H torsion

> <Gold.Protein.ActiveResidues>
 MET295  LEU298  THR299  LEU301  ALA302  GLU305  TRP335  MET336  LEU339  MET340 
 GLY342  LEU343  ARG346  PHE356  ILE373  ILE376  PHE377  LEU380  LYS471  GLY472 
 MET473  HIS475  LEU476  LEU477  ASN478  MET479  VAL484  VAL487 

> <Gold.Protein.RotatedAtoms>
   37.1274   32.9577   41.5274 H   0  0  0  0  0  0  0  0  0  0  0  0  # atno 496  bound_to 491 

> <Gold.Score>
     Score     S(PLP)   S(hbond)     S(cho)   S(metal)  DE(clash)   DE(tors)     intcor
     36.52     -33.53       0.00       1.00       0.00       0.00       0.00       0.00

> <Gold.PLP.Fitness>
36.5188

> <Gold.PLP.PLP>
-33.5285

> <Gold.PLP.part.hbond>
0.0000

> <Gold.PLP.part.metal>
0.0000

> <Gold.PLP.part.buried>
-3.7598

> <Gold.PLP.part.nonpolar>
-29.9812

> <Gold.PLP.part.repulsive>
0.1138

> <Gold.PLP.ligand.clash>
0.0000

> <Gold.PLP.ligand.torsion>
0.0028

> <Gold.PLP.Chemscore.Hbond>
0.0000

> <Gold.PLP.Chemscore.CHOScore>
0.9986

> <Gold.PLP.Chemscore.Metal>
0.0000

> <Gold.Chemscore.Hbonds>
donor molecule, donor type, donor heavy atom, donor atom, acceptor molecule, acceptor atom, score
      L1  C     4    13       P1   470  1.00

> <Gold.PLP.Chemscore.Internal.Correction>
0.0000

