#       Name:                EN300-76468_i001
#       Creating user name   aseyller
#       Creation time:       Fri Apr 21 18:02:44 2023


#       File generated by GOLD software.
#

@<TRIPOS>MOLECULE
EN300-76468_i001|benzaldehydes|mol2|415|dock9
    16    17     1
SMALL
USER_CHARGES


@<TRIPOS>ATOM
      1 O1          29.3638  37.3472  38.4050 O.2            1 <1>                0.0000
      2 C2          30.3496  36.6805  38.6479 C.2            1 <1>                0.0000
      3 C3          31.3912  36.5879  37.6980 C.2            1 <1>                0.0000
      4 C4          32.5733  35.8280  37.8174 C.2            1 <1>                0.0000
      5 N5          33.2896  35.9968  36.7391 N.2            1 <1>                0.0000
      6 N6          32.6265  36.8646  35.8647 N.pl3          1 <1>                0.0000
      7 C7          32.9541  37.3459  34.6326 C.2            1 <1>                0.0000
      8 C8          32.0983  38.1925  34.0037 C.2            1 <1>                0.0000
      9 C9          30.9019  38.5507  34.6341 C.2            1 <1>                0.0000
     10 N10         30.6140  38.0695  35.8243 N.2            1 <1>                0.0000
     11 C11         31.4466  37.2335  36.4433 C.2            1 <1>                0.0000
     12 H12         30.4318  36.1622  39.5918 H              1 <1>                0.0000
     13 H13         32.8416  35.2095  38.6610 H              1 <1>                0.0000
     14 H14         33.8828  37.0580  34.1622 H              1 <1>                0.0000
     15 H15         32.3391  38.5855  33.0270 H              1 <1>                0.0000
     16 H16         30.2139  39.2233  34.1433 H              1 <1>                0.0000
@<TRIPOS>BOND
    1    1    2 2     
    2    2    3 1     
    3    2   12 1     
    4    3    4 1     
    5    3   11 2     
    6    4    5 2     
    7    4   13 1     
    8    5    6 1     
    9    6    7 1     
   10    6   11 1     
   11    7    8 2     
   12    7   14 1     
   13    8    9 1     
   14    8   15 1     
   15    9   10 2     
   16    9   16 1     
   17   10   11 1     
@<TRIPOS>SUBSTRUCTURE
      1 ****           1
@<TRIPOS>COMMENT
> <Gold.Version>
2022.2.0

> <Gold.Id.Protein>
1qkm|1qkm_protein|mol2

> <Gold.Protein.RotatedTorsions>
[  496  491  490  487 ] final    3.24 input  -89.99 | X-H torsion

> <Gold.Protein.ActiveResidues>
 MET295  LEU298  THR299  LEU301  ALA302  GLU305  TRP335  MET336  LEU339  MET340 
 GLY342  LEU343  ARG346  PHE356  ILE373  ILE376  PHE377  LEU380  LYS471  GLY472 
 MET473  HIS475  LEU476  LEU477  ASN478  MET479  VAL484  VAL487 

> <Gold.Protein.RotatedAtoms>
   36.2623   34.1669   42.2617 H   0  0  0  0  0  0  0  0  0  0  0  0  # atno 496  bound_to 491 

> <Gold.Score>
     Score     S(PLP)   S(hbond)     S(cho)   S(metal)  DE(clash)   DE(tors)     intcor
     37.18     -34.28       0.00       0.97       0.00       0.00       0.00       0.00

> <Gold.PLP.Fitness>
37.1777

> <Gold.PLP.PLP>
-34.2773

> <Gold.PLP.part.hbond>
0.0000

> <Gold.PLP.part.metal>
0.0000

> <Gold.PLP.part.buried>
-4.0239

> <Gold.PLP.part.nonpolar>
-30.3192

> <Gold.PLP.part.repulsive>
0.0000

> <Gold.PLP.ligand.clash>
0.0000

> <Gold.PLP.ligand.torsion>
0.0008

> <Gold.PLP.Chemscore.Hbond>
0.0000

> <Gold.PLP.Chemscore.CHOScore>
0.9673

> <Gold.PLP.Chemscore.Metal>
0.0000

> <Gold.Chemscore.Hbonds>
donor molecule, donor type, donor heavy atom, donor atom, acceptor molecule, acceptor atom, score
      L1  C     7    14       P1  3229  0.97

> <Gold.PLP.Chemscore.Internal.Correction>
0.0000

