#       Name:                EN300-76468_i001
#       Creating user name   aseyller
#       Creation time:       Fri Apr 21 18:02:43 2023


#       File generated by GOLD software.
#

@<TRIPOS>MOLECULE
EN300-76468_i001|benzaldehydes|mol2|415|dock6
    16    17     1
SMALL
USER_CHARGES


@<TRIPOS>ATOM
      1 O1          29.2434  38.4567  37.6082 O.2            1 <1>                0.0000
      2 C2          29.5979  37.5613  38.3484 C.2            1 <1>                0.0000
      3 C3          30.7337  36.7857  38.0253 C.2            1 <1>                0.0000
      4 C4          31.2794  35.7340  38.7902 C.2            1 <1>                0.0000
      5 N5          32.3242  35.2617  38.1662 N.2            1 <1>                0.0000
      6 N6          32.5193  35.9672  36.9740 N.pl3          1 <1>                0.0000
      7 C7          33.4558  35.8570  35.9902 C.2            1 <1>                0.0000
      8 C8          33.3973  36.6960  34.9238 C.2            1 <1>                0.0000
      9 C9          32.3787  37.6528  34.8596 C.2            1 <1>                0.0000
     10 N10         31.4892  37.7347  35.8256 N.2            1 <1>                0.0000
     11 C11         31.5377  36.9100  36.8711 C.2            1 <1>                0.0000
     12 H12         29.0476  37.3610  39.2558 H              1 <1>                0.0000
     13 H13         30.8967  35.3787  39.7355 H              1 <1>                0.0000
     14 H14         34.2349  35.1121  36.0578 H              1 <1>                0.0000
     15 H15         34.1299  36.6255  34.1334 H              1 <1>                0.0000
     16 H16         32.3225  38.3251  34.0162 H              1 <1>                0.0000
@<TRIPOS>BOND
    1    1    2 2     
    2    2    3 1     
    3    2   12 1     
    4    3    4 1     
    5    3   11 2     
    6    4    5 2     
    7    4   13 1     
    8    5    6 1     
    9    6    7 1     
   10    6   11 1     
   11    7    8 2     
   12    7   14 1     
   13    8    9 1     
   14    8   15 1     
   15    9   10 2     
   16    9   16 1     
   17   10   11 1     
@<TRIPOS>SUBSTRUCTURE
      1 ****           1
@<TRIPOS>COMMENT
> <Gold.Version>
2022.2.0

> <Gold.Id.Protein>
1qkm|1qkm_protein|mol2

> <Gold.Protein.RotatedTorsions>
[  496  491  490  487 ] final  128.82 input  -89.99 | X-H torsion

> <Gold.Protein.ActiveResidues>
 MET295  LEU298  THR299  LEU301  ALA302  GLU305  TRP335  MET336  LEU339  MET340 
 GLY342  LEU343  ARG346  PHE356  ILE373  ILE376  PHE377  LEU380  LYS471  GLY472 
 MET473  HIS475  LEU476  LEU477  ASN478  MET479  VAL484  VAL487 

> <Gold.Protein.RotatedAtoms>
   37.1450   32.9664   41.4908 H   0  0  0  0  0  0  0  0  0  0  0  0  # atno 496  bound_to 491 

> <Gold.Score>
     Score     S(PLP)   S(hbond)     S(cho)   S(metal)  DE(clash)   DE(tors)     intcor
     36.14     -33.16       0.00       1.00       0.00       0.00       0.00       0.00

> <Gold.PLP.Fitness>
36.1426

> <Gold.PLP.PLP>
-33.1572

> <Gold.PLP.part.hbond>
0.0000

> <Gold.PLP.part.metal>
0.0000

> <Gold.PLP.part.buried>
-3.5352

> <Gold.PLP.part.nonpolar>
-29.6887

> <Gold.PLP.part.repulsive>
0.0727

> <Gold.PLP.ligand.clash>
0.0000

> <Gold.PLP.ligand.torsion>
0.0004

> <Gold.PLP.Chemscore.Hbond>
0.0000

> <Gold.PLP.Chemscore.CHOScore>
0.9953

> <Gold.PLP.Chemscore.Metal>
0.0000

> <Gold.Chemscore.Hbonds>
donor molecule, donor type, donor heavy atom, donor atom, acceptor molecule, acceptor atom, score
      L1  C     4    13       P1   470  1.00

> <Gold.PLP.Chemscore.Internal.Correction>
0.0000

