#       Name:                EN300-76468_i001
#       Creating user name   aseyller
#       Creation time:       Fri Apr 21 18:02:47 2023


#       File generated by GOLD software.
#

@<TRIPOS>MOLECULE
EN300-76468_i001|benzaldehydes|mol2|415|dock20
    16    17     1
SMALL
USER_CHARGES


@<TRIPOS>ATOM
      1 O1          29.4543  39.0765  36.4314 O.2            1 <1>                0.0000
      2 C2          28.5200  38.5519  37.0033 C.2            1 <1>                0.0000
      3 C3          28.7585  37.6159  38.0343 C.2            1 <1>                0.0000
      4 C4          29.9928  37.0136  38.3545 C.2            1 <1>                0.0000
      5 N5          29.8146  36.2067  39.3652 N.2            1 <1>                0.0000
      6 N6          28.4724  36.2345  39.7587 N.pl3          1 <1>                0.0000
      7 C7          27.7961  35.5817  40.7453 C.2            1 <1>                0.0000
      8 C8          26.4660  35.8096  40.8986 C.2            1 <1>                0.0000
      9 C9          25.8214  36.7077  40.0414 C.2            1 <1>                0.0000
     10 N10         26.5018  37.3224  39.0978 N.2            1 <1>                0.0000
     11 C11         27.8081  37.1078  38.9468 C.2            1 <1>                0.0000
     12 H12         27.5069  38.8042  36.7268 H              1 <1>                0.0000
     13 H13         30.9299  37.1902  37.8475 H              1 <1>                0.0000
     14 H14         28.3114  34.8916  41.3971 H              1 <1>                0.0000
     15 H15         25.9115  35.3022  41.6741 H              1 <1>                0.0000
     16 H16         24.7640  36.8966  40.1541 H              1 <1>                0.0000
@<TRIPOS>BOND
    1    1    2 2     
    2    2    3 1     
    3    2   12 1     
    4    3    4 1     
    5    3   11 2     
    6    4    5 2     
    7    4   13 1     
    8    5    6 1     
    9    6    7 1     
   10    6   11 1     
   11    7    8 2     
   12    7   14 1     
   13    8    9 1     
   14    8   15 1     
   15    9   10 2     
   16    9   16 1     
   17   10   11 1     
@<TRIPOS>SUBSTRUCTURE
      1 ****           1
@<TRIPOS>COMMENT
> <Gold.Version>
2022.2.0

> <Gold.Id.Protein>
1qkm|1qkm_protein|mol2

> <Gold.Protein.RotatedTorsions>
[  496  491  490  487 ] final  -71.49 input  -89.99 | X-H torsion

> <Gold.Protein.ActiveResidues>
 MET295  LEU298  THR299  LEU301  ALA302  GLU305  TRP335  MET336  LEU339  MET340 
 GLY342  LEU343  ARG346  PHE356  ILE373  ILE376  PHE377  LEU380  LYS471  GLY472 
 MET473  HIS475  LEU476  LEU477  ASN478  MET479  VAL484  VAL487 

> <Gold.Protein.RotatedAtoms>
   36.5910   34.7305   41.3209 H   0  0  0  0  0  0  0  0  0  0  0  0  # atno 496  bound_to 491 

> <Gold.Score>
     Score     S(PLP)   S(hbond)     S(cho)   S(metal)  DE(clash)   DE(tors)     intcor
     36.00     -33.06       0.00       1.00       0.00       0.00       0.03       0.00

> <Gold.PLP.Fitness>
35.9974

> <Gold.PLP.PLP>
-33.0636

> <Gold.PLP.part.hbond>
0.0000

> <Gold.PLP.part.metal>
0.0000

> <Gold.PLP.part.buried>
-3.3623

> <Gold.PLP.part.nonpolar>
-30.0153

> <Gold.PLP.part.repulsive>
0.1144

> <Gold.PLP.ligand.clash>
0.0000

> <Gold.PLP.ligand.torsion>
0.0331

> <Gold.PLP.Chemscore.Hbond>
0.0000

> <Gold.PLP.Chemscore.CHOScore>
1.0000

> <Gold.PLP.Chemscore.Metal>
0.0000

> <Gold.Chemscore.Hbonds>
donor molecule, donor type, donor heavy atom, donor atom, acceptor molecule, acceptor atom, score
      L1  C     9    16       P1  1131  1.00

> <Gold.PLP.Chemscore.Internal.Correction>
0.0000

