#       Name:                EN300-76468_i001
#       Creating user name   aseyller
#       Creation time:       Fri Apr 21 18:02:44 2023


#       File generated by GOLD software.
#

@<TRIPOS>MOLECULE
EN300-76468_i001|benzaldehydes|mol2|415|dock12
    16    17     1
SMALL
USER_CHARGES


@<TRIPOS>ATOM
      1 O1          29.8854  40.1999  36.4102 O.2            1 <1>                0.0000
      2 C2          29.6152  39.4035  37.2865 C.2            1 <1>                0.0000
      3 C3          30.3222  38.1836  37.3749 C.2            1 <1>                0.0000
      4 C4          30.1357  37.1712  38.3390 C.2            1 <1>                0.0000
      5 N5          30.9730  36.2003  38.0931 N.2            1 <1>                0.0000
      6 N6          31.7446  36.5173  36.9699 N.pl3          1 <1>                0.0000
      7 C7          32.7378  35.8437  36.3245 C.2            1 <1>                0.0000
      8 C8          33.3208  36.4080  35.2353 C.2            1 <1>                0.0000
      9 C9          32.8891  37.6660  34.8015 C.2            1 <1>                0.0000
     10 N10         31.9279  38.2916  35.4462 N.2            1 <1>                0.0000
     11 C11         31.3478  37.7402  36.5114 C.2            1 <1>                0.0000
     12 H12         28.8375  39.6299  38.0009 H              1 <1>                0.0000
     13 H13         29.4193  37.1954  39.1468 H              1 <1>                0.0000
     14 H14         33.0577  34.8734  36.6748 H              1 <1>                0.0000
     15 H15         34.1099  35.8910  34.7096 H              1 <1>                0.0000
     16 H16         33.3456  38.1242  33.9365 H              1 <1>                0.0000
@<TRIPOS>BOND
    1    1    2 2     
    2    2    3 1     
    3    2   12 1     
    4    3    4 1     
    5    3   11 2     
    6    4    5 2     
    7    4   13 1     
    8    5    6 1     
    9    6    7 1     
   10    6   11 1     
   11    7    8 2     
   12    7   14 1     
   13    8    9 1     
   14    8   15 1     
   15    9   10 2     
   16    9   16 1     
   17   10   11 1     
@<TRIPOS>SUBSTRUCTURE
      1 ****           1
@<TRIPOS>COMMENT
> <Gold.Version>
2022.2.0

> <Gold.Id.Protein>
1qkm|1qkm_protein|mol2

> <Gold.Protein.RotatedTorsions>
[  496  491  490  487 ] final  -50.20 input  -89.99 | X-H torsion

> <Gold.Protein.ActiveResidues>
 MET295  LEU298  THR299  LEU301  ALA302  GLU305  TRP335  MET336  LEU339  MET340 
 GLY342  LEU343  ARG346  PHE356  ILE373  ILE376  PHE377  LEU380  LYS471  GLY472 
 MET473  HIS475  LEU476  LEU477  ASN478  MET479  VAL484  VAL487 

> <Gold.Protein.RotatedAtoms>
   36.4259   34.7050   41.6268 H   0  0  0  0  0  0  0  0  0  0  0  0  # atno 496  bound_to 491 

> <Gold.Score>
     Score     S(PLP)   S(hbond)     S(cho)   S(metal)  DE(clash)   DE(tors)     intcor
     35.58     -32.58       0.00       1.00       0.00       0.00       0.00       0.00

> <Gold.PLP.Fitness>
35.5767

> <Gold.PLP.PLP>
-32.5771

> <Gold.PLP.part.hbond>
0.0000

> <Gold.PLP.part.metal>
0.0000

> <Gold.PLP.part.buried>
-3.6321

> <Gold.PLP.part.nonpolar>
-28.8157

> <Gold.PLP.part.repulsive>
0.0842

> <Gold.PLP.ligand.clash>
0.0000

> <Gold.PLP.ligand.torsion>
0.0002

> <Gold.PLP.Chemscore.Hbond>
0.0000

> <Gold.PLP.Chemscore.CHOScore>
1.0000

> <Gold.PLP.Chemscore.Metal>
0.0000

> <Gold.Chemscore.Hbonds>
donor molecule, donor type, donor heavy atom, donor atom, acceptor molecule, acceptor atom, score
      L1  C     9    16       P1  3229  1.00

> <Gold.PLP.Chemscore.Internal.Correction>
0.0000

