#       Name:                EN300-76468_i001
#       Creating user name   aseyller
#       Creation time:       Fri Apr 21 18:02:46 2023


#       File generated by GOLD software.
#

@<TRIPOS>MOLECULE
EN300-76468_i001|benzaldehydes|mol2|415|dock19
    16    17     1
SMALL
USER_CHARGES


@<TRIPOS>ATOM
      1 O1          30.4066  38.9850  36.5401 O.2            1 <1>                0.0000
      2 C2          30.2373  38.1703  37.4249 C.2            1 <1>                0.0000
      3 C3          28.9314  37.8859  37.8827 C.2            1 <1>                0.0000
      4 C4          27.7240  38.3589  37.3282 C.2            1 <1>                0.0000
      5 N5          26.7286  37.8808  38.0243 N.2            1 <1>                0.0000
      6 N6          27.2206  37.0788  39.0597 N.pl3          1 <1>                0.0000
      7 C7          26.5958  36.3691  40.0410 C.2            1 <1>                0.0000
      8 C8          27.3455  35.6661  40.9289 C.2            1 <1>                0.0000
      9 C9          28.7397  35.6866  40.8163 C.2            1 <1>                0.0000
     10 N10         29.3136  36.3819  39.8580 N.2            1 <1>                0.0000
     11 C11         28.5832  37.0682  38.9801 C.2            1 <1>                0.0000
     12 H12         31.0847  37.6602  37.8586 H              1 <1>                0.0000
     13 H13         27.6374  39.0091  36.4702 H              1 <1>                0.0000
     14 H14         25.5181  36.3658  40.1119 H              1 <1>                0.0000
     15 H15         26.8701  35.0973  41.7143 H              1 <1>                0.0000
     16 H16         29.3458  35.1313  41.5170 H              1 <1>                0.0000
@<TRIPOS>BOND
    1    1    2 2     
    2    2    3 1     
    3    2   12 1     
    4    3    4 1     
    5    3   11 2     
    6    4    5 2     
    7    4   13 1     
    8    5    6 1     
    9    6    7 1     
   10    6   11 1     
   11    7    8 2     
   12    7   14 1     
   13    8    9 1     
   14    8   15 1     
   15    9   10 2     
   16    9   16 1     
   17   10   11 1     
@<TRIPOS>SUBSTRUCTURE
      1 ****           1
@<TRIPOS>COMMENT
> <Gold.Version>
2022.2.0

> <Gold.Id.Protein>
1qkm|1qkm_protein|mol2

> <Gold.Protein.RotatedTorsions>
[  496  491  490  487 ] final  -81.00 input  -89.99 | X-H torsion

> <Gold.Protein.ActiveResidues>
 MET295  LEU298  THR299  LEU301  ALA302  GLU305  TRP335  MET336  LEU339  MET340 
 GLY342  LEU343  ARG346  PHE356  ILE373  ILE376  PHE377  LEU380  LYS471  GLY472 
 MET473  HIS475  LEU476  LEU477  ASN478  MET479  VAL484  VAL487 

> <Gold.Protein.RotatedAtoms>
   36.6749   34.7021   41.1921 H   0  0  0  0  0  0  0  0  0  0  0  0  # atno 496  bound_to 491 

> <Gold.Score>
     Score     S(PLP)   S(hbond)     S(cho)   S(metal)  DE(clash)   DE(tors)     intcor
     35.00     -32.03       0.00       1.00       0.00       0.00       0.01       0.00

> <Gold.PLP.Fitness>
35.0048

> <Gold.PLP.PLP>
-32.0302

> <Gold.PLP.part.hbond>
0.0000

> <Gold.PLP.part.metal>
0.0000

> <Gold.PLP.part.buried>
-3.5999

> <Gold.PLP.part.nonpolar>
-29.6004

> <Gold.PLP.part.repulsive>
0.0752

> <Gold.PLP.ligand.clash>
0.0000

> <Gold.PLP.ligand.torsion>
0.0101

> <Gold.PLP.Chemscore.Hbond>
0.0000

> <Gold.PLP.Chemscore.CHOScore>
0.9983

> <Gold.PLP.Chemscore.Metal>
0.0000

> <Gold.Chemscore.Hbonds>
donor molecule, donor type, donor heavy atom, donor atom, acceptor molecule, acceptor atom, score
      L1  C     9    16       P1   470  1.00

> <Gold.PLP.Chemscore.Internal.Correction>
0.0000

