#       Name:                EN300-76468_i001
#       Creating user name   aseyller
#       Creation time:       Fri Apr 21 18:02:45 2023


#       File generated by GOLD software.
#

@<TRIPOS>MOLECULE
EN300-76468_i001|benzaldehydes|mol2|415|dock16
    16    17     1
SMALL
USER_CHARGES


@<TRIPOS>ATOM
      1 O1          25.2000  37.2881  40.7135 O.2            1 <1>                0.0000
      2 C2          26.0629  37.3702  39.8626 C.2            1 <1>                0.0000
      3 C3          27.3059  36.7264  40.0529 C.2            1 <1>                0.0000
      4 C4          27.6736  35.9132  41.1449 C.2            1 <1>                0.0000
      5 N5          28.8987  35.4998  40.9646 N.2            1 <1>                0.0000
      6 N6          29.3958  36.0116  39.7612 N.pl3          1 <1>                0.0000
      7 C7          30.5998  35.8735  39.1381 C.2            1 <1>                0.0000
      8 C8          30.8061  36.4995  37.9506 C.2            1 <1>                0.0000
      9 C9          29.7796  37.2706  37.3950 C.2            1 <1>                0.0000
     10 N10         28.6281  37.3851  38.0212 N.2            1 <1>                0.0000
     11 C11         28.4177  36.7680  39.1832 C.2            1 <1>                0.0000
     12 H12         25.8783  37.9316  38.9587 H              1 <1>                0.0000
     13 H13         27.0460  35.6727  41.9903 H              1 <1>                0.0000
     14 H14         31.3803  35.2740  39.5831 H              1 <1>                0.0000
     15 H15         31.7531  36.4032  37.4404 H              1 <1>                0.0000
     16 H16         29.9326  37.7729  36.4511 H              1 <1>                0.0000
@<TRIPOS>BOND
    1    1    2 2     
    2    2    3 1     
    3    2   12 1     
    4    3    4 1     
    5    3   11 2     
    6    4    5 2     
    7    4   13 1     
    8    5    6 1     
    9    6    7 1     
   10    6   11 1     
   11    7    8 2     
   12    7   14 1     
   13    8    9 1     
   14    8   15 1     
   15    9   10 2     
   16    9   16 1     
   17   10   11 1     
@<TRIPOS>SUBSTRUCTURE
      1 ****           1
@<TRIPOS>COMMENT
> <Gold.Version>
2022.2.0

> <Gold.Id.Protein>
1qkm|1qkm_protein|mol2

> <Gold.Protein.RotatedTorsions>
[  496  491  490  487 ] final   53.90 input  -89.99 | X-H torsion

> <Gold.Protein.ActiveResidues>
 MET295  LEU298  THR299  LEU301  ALA302  GLU305  TRP335  MET336  LEU339  MET340 
 GLY342  LEU343  ARG346  PHE356  ILE373  ILE376  PHE377  LEU380  LYS471  GLY472 
 MET473  HIS475  LEU476  LEU477  ASN478  MET479  VAL484  VAL487 

> <Gold.Protein.RotatedAtoms>
   36.5025   33.4001   42.3367 H   0  0  0  0  0  0  0  0  0  0  0  0  # atno 496  bound_to 491 

> <Gold.Score>
     Score     S(PLP)   S(hbond)     S(cho)   S(metal)  DE(clash)   DE(tors)     intcor
     35.83     -31.23       0.00       1.54       0.00       0.00       0.00       0.00

> <Gold.PLP.Fitness>
35.8318

> <Gold.PLP.PLP>
-31.2294

> <Gold.PLP.part.hbond>
0.0000

> <Gold.PLP.part.metal>
0.0000

> <Gold.PLP.part.buried>
-3.2960

> <Gold.PLP.part.nonpolar>
-29.1832

> <Gold.PLP.part.repulsive>
0.2855

> <Gold.PLP.ligand.clash>
0.0000

> <Gold.PLP.ligand.torsion>
0.0015

> <Gold.PLP.Chemscore.Hbond>
0.0000

> <Gold.PLP.Chemscore.CHOScore>
1.5351

> <Gold.PLP.Chemscore.Metal>
0.0000

> <Gold.Chemscore.Hbonds>
donor molecule, donor type, donor heavy atom, donor atom, acceptor molecule, acceptor atom, score
      L1  C     4    13       P1   582  1.00
      L1  C     7    14       P1   470  0.54

> <Gold.PLP.Chemscore.Internal.Correction>
0.0000

