#       Name:                EN300-76468_i001
#       Creating user name   aseyller
#       Creation time:       Fri Apr 21 18:02:44 2023


#       File generated by GOLD software.
#

@<TRIPOS>MOLECULE
EN300-76468_i001|benzaldehydes|mol2|415|dock11
    16    17     1
SMALL
USER_CHARGES


@<TRIPOS>ATOM
      1 O1          25.1653  37.1519  41.7606 O.2            1 <1>                0.0000
      2 C2          25.6992  36.3821  40.9876 C.2            1 <1>                0.0000
      3 C3          26.3984  36.8796  39.8653 C.2            1 <1>                0.0000
      4 C4          25.8705  37.6841  38.8342 C.2            1 <1>                0.0000
      5 N5          26.8204  37.9410  37.9764 N.2            1 <1>                0.0000
      6 N6          28.0076  37.3279  38.3912 N.pl3          1 <1>                0.0000
      7 C7          29.2574  37.2973  37.8491 C.2            1 <1>                0.0000
      8 C8          30.2382  36.6063  38.4857 C.2            1 <1>                0.0000
      9 C9          29.9435  35.9426  39.6814 C.2            1 <1>                0.0000
     10 N10         28.7266  35.9906  40.1794 N.2            1 <1>                0.0000
     11 C11         27.7621  36.6723  39.5628 C.2            1 <1>                0.0000
     12 H12         25.6433  35.3175  41.1605 H              1 <1>                0.0000
     13 H13         24.8497  38.0300  38.7656 H              1 <1>                0.0000
     14 H14         29.4655  37.8158  36.9247 H              1 <1>                0.0000
     15 H15         31.2354  36.5692  38.0727 H              1 <1>                0.0000
     16 H16         30.7157  35.3900  40.1961 H              1 <1>                0.0000
@<TRIPOS>BOND
    1    1    2 2     
    2    2    3 1     
    3    2   12 1     
    4    3    4 1     
    5    3   11 2     
    6    4    5 2     
    7    4   13 1     
    8    5    6 1     
    9    6    7 1     
   10    6   11 1     
   11    7    8 2     
   12    7   14 1     
   13    8    9 1     
   14    8   15 1     
   15    9   10 2     
   16    9   16 1     
   17   10   11 1     
@<TRIPOS>SUBSTRUCTURE
      1 ****           1
@<TRIPOS>COMMENT
> <Gold.Version>
2022.2.0

> <Gold.Id.Protein>
1qkm|1qkm_protein|mol2

> <Gold.Protein.RotatedTorsions>
[  496  491  490  487 ] final -121.43 input  -89.99 | X-H torsion

> <Gold.Protein.ActiveResidues>
 MET295  LEU298  THR299  LEU301  ALA302  GLU305  TRP335  MET336  LEU339  MET340 
 GLY342  LEU343  ARG346  PHE356  ILE373  ILE376  PHE377  LEU380  LYS471  GLY472 
 MET473  HIS475  LEU476  LEU477  ASN478  MET479  VAL484  VAL487 

> <Gold.Protein.RotatedAtoms>
   37.0378   34.3376   40.7917 H   0  0  0  0  0  0  0  0  0  0  0  0  # atno 496  bound_to 491 

> <Gold.Score>
     Score     S(PLP)   S(hbond)     S(cho)   S(metal)  DE(clash)   DE(tors)     intcor
     37.48     -34.65       0.31       1.00       0.00       0.00       0.55       0.00

> <Gold.PLP.Fitness>
37.4818

> <Gold.PLP.PLP>
-34.6485

> <Gold.PLP.part.hbond>
-1.0000

> <Gold.PLP.part.metal>
0.0000

> <Gold.PLP.part.buried>
-3.6792

> <Gold.PLP.part.nonpolar>
-31.2614

> <Gold.PLP.part.repulsive>
0.3359

> <Gold.PLP.ligand.clash>
0.0000

> <Gold.PLP.ligand.torsion>
0.5514

> <Gold.PLP.Chemscore.Hbond>
0.3120

> <Gold.PLP.Chemscore.CHOScore>
1.0000

> <Gold.PLP.Chemscore.Metal>
0.0000

> <Gold.Chemscore.Hbonds>
donor molecule, donor type, donor heavy atom, donor atom, acceptor molecule, acceptor atom, score
      P1  H  1258  1270       L1     1  0.31
      L1  C     9    16       P1   470  1.00

> <Gold.PLP.Chemscore.Internal.Correction>
0.0000

