#       Name:                EN300-76468_i001
#       Creating user name   aseyller
#       Creation time:       Fri Apr 21 18:02:44 2023


#       File generated by GOLD software.
#

@<TRIPOS>MOLECULE
EN300-76468_i001|benzaldehydes|mol2|415|dock10
    16    17     1
SMALL
USER_CHARGES


@<TRIPOS>ATOM
      1 O1          30.3080  39.3560  35.5044 O.2            1 <1>                0.0000
      2 C2          31.2232  38.8719  34.8692 C.2            1 <1>                0.0000
      3 C3          31.8975  37.7314  35.3594 C.2            1 <1>                0.0000
      4 C4          32.9960  37.0813  34.7596 C.2            1 <1>                0.0000
      5 N5          33.3414  36.0683  35.5071 N.2            1 <1>                0.0000
      6 N6          32.5005  35.9985  36.6231 N.pl3          1 <1>                0.0000
      7 C7          32.4529  35.1376  37.6783 C.2            1 <1>                0.0000
      8 C8          31.5068  35.3165  38.6362 C.2            1 <1>                0.0000
      9 C9          30.6041  36.3787  38.5179 C.2            1 <1>                0.0000
     10 N10         30.6755  37.1928  37.4868 N.2            1 <1>                0.0000
     11 C11         31.6055  37.0262  36.5474 C.2            1 <1>                0.0000
     12 H12         31.5185  39.3107  33.9275 H              1 <1>                0.0000
     13 H13         33.4722  37.3728  33.8352 H              1 <1>                0.0000
     14 H14         33.1584  34.3231  37.7519 H              1 <1>                0.0000
     15 H15         31.4516  34.6453  39.4805 H              1 <1>                0.0000
     16 H16         29.8476  36.5304  39.2737 H              1 <1>                0.0000
@<TRIPOS>BOND
    1    1    2 2     
    2    2    3 1     
    3    2   12 1     
    4    3    4 1     
    5    3   11 2     
    6    4    5 2     
    7    4   13 1     
    8    5    6 1     
    9    6    7 1     
   10    6   11 1     
   11    7    8 2     
   12    7   14 1     
   13    8    9 1     
   14    8   15 1     
   15    9   10 2     
   16    9   16 1     
   17   10   11 1     
@<TRIPOS>SUBSTRUCTURE
      1 ****           1
@<TRIPOS>COMMENT
> <Gold.Version>
2022.2.0

> <Gold.Id.Protein>
1qkm|1qkm_protein|mol2

> <Gold.Protein.RotatedTorsions>
[  496  491  490  487 ] final  175.56 input  -89.99 | X-H torsion

> <Gold.Protein.ActiveResidues>
 MET295  LEU298  THR299  LEU301  ALA302  GLU305  TRP335  MET336  LEU339  MET340 
 GLY342  LEU343  ARG346  PHE356  ILE373  ILE376  PHE377  LEU380  LYS471  GLY472 
 MET473  HIS475  LEU476  LEU477  ASN478  MET479  VAL484  VAL487 

> <Gold.Protein.RotatedAtoms>
   37.3187   33.3997   40.9060 H   0  0  0  0  0  0  0  0  0  0  0  0  # atno 496  bound_to 491 

> <Gold.Score>
     Score     S(PLP)   S(hbond)     S(cho)   S(metal)  DE(clash)   DE(tors)     intcor
     36.38     -33.38       0.00       1.00       0.00       0.00       0.00       0.00

> <Gold.PLP.Fitness>
36.3816

> <Gold.PLP.PLP>
-33.3831

> <Gold.PLP.part.hbond>
0.0000

> <Gold.PLP.part.metal>
0.0000

> <Gold.PLP.part.buried>
-3.9644

> <Gold.PLP.part.nonpolar>
-29.8306

> <Gold.PLP.part.repulsive>
0.0968

> <Gold.PLP.ligand.clash>
0.0000

> <Gold.PLP.ligand.torsion>
0.0007

> <Gold.PLP.Chemscore.Hbond>
0.0000

> <Gold.PLP.Chemscore.CHOScore>
1.0000

> <Gold.PLP.Chemscore.Metal>
0.0000

> <Gold.Chemscore.Hbonds>
donor molecule, donor type, donor heavy atom, donor atom, acceptor molecule, acceptor atom, score
      L1  C     4    13       P1  3229  1.00

> <Gold.PLP.Chemscore.Internal.Correction>
0.0000

