#       Name:                EN300-76468_i001
#       Creating user name   aseyller
#       Creation time:       Fri Apr 21 18:02:43 2023


#       File generated by GOLD software.
#

@<TRIPOS>MOLECULE
EN300-76468_i001|benzaldehydes|mol2|415|dock7
    16    17     1
SMALL
USER_CHARGES


@<TRIPOS>ATOM
      1 O1          31.7084  36.2845  38.0638 O.2            1 <1>                0.0000
      2 C2          30.7684  36.1192  38.8151 C.2            1 <1>                0.0000
      3 C3          29.5161  36.7020  38.5184 C.2            1 <1>                0.0000
      4 C4          29.2160  37.5387  37.4234 C.2            1 <1>                0.0000
      5 N5          27.9569  37.8772  37.4886 N.2            1 <1>                0.0000
      6 N6          27.3692  37.2896  38.6141 N.pl3          1 <1>                0.0000
      7 C7          26.1016  37.3363  39.1118 C.2            1 <1>                0.0000
      8 C8          25.8110  36.6511  40.2479 C.2            1 <1>                0.0000
      9 C9          26.8180  35.9143  40.8804 C.2            1 <1>                0.0000
     10 N10         28.0327  35.8892  40.3754 N.2            1 <1>                0.0000
     11 C11         28.3221  36.5541  39.2576 C.2            1 <1>                0.0000
     12 H12         30.8887  35.5230  39.7075 H              1 <1>                0.0000
     13 H13         29.9124  37.8483  36.6582 H              1 <1>                0.0000
     14 H14         25.3376  37.9112  38.6094 H              1 <1>                0.0000
     15 H15         24.8126  36.6752  40.6591 H              1 <1>                0.0000
     16 H16         26.5982  35.3656  41.7844 H              1 <1>                0.0000
@<TRIPOS>BOND
    1    1    2 2     
    2    2    3 1     
    3    2   12 1     
    4    3    4 1     
    5    3   11 2     
    6    4    5 2     
    7    4   13 1     
    8    5    6 1     
    9    6    7 1     
   10    6   11 1     
   11    7    8 2     
   12    7   14 1     
   13    8    9 1     
   14    8   15 1     
   15    9   10 2     
   16    9   16 1     
   17   10   11 1     
@<TRIPOS>SUBSTRUCTURE
      1 ****           1
@<TRIPOS>COMMENT
> <Gold.Version>
2022.2.0

> <Gold.Id.Protein>
1qkm|1qkm_protein|mol2

> <Gold.Protein.RotatedTorsions>
[  496  491  490  487 ] final -157.42 input  -89.99 | X-H torsion

> <Gold.Protein.ActiveResidues>
 MET295  LEU298  THR299  LEU301  ALA302  GLU305  TRP335  MET336  LEU339  MET340 
 GLY342  LEU343  ARG346  PHE356  ILE373  ILE376  PHE377  LEU380  LYS471  GLY472 
 MET473  HIS475  LEU476  LEU477  ASN478  MET479  VAL484  VAL487 

> <Gold.Protein.RotatedAtoms>
   37.2652   33.8037   40.7384 H   0  0  0  0  0  0  0  0  0  0  0  0  # atno 496  bound_to 491 

> <Gold.Score>
     Score     S(PLP)   S(hbond)     S(cho)   S(metal)  DE(clash)   DE(tors)     intcor
     37.92     -34.92       0.00       1.00       0.00       0.00       0.00       0.00

> <Gold.PLP.Fitness>
37.9172

> <Gold.PLP.PLP>
-34.9206

> <Gold.PLP.part.hbond>
0.0000

> <Gold.PLP.part.metal>
0.0000

> <Gold.PLP.part.buried>
-3.7281

> <Gold.PLP.part.nonpolar>
-31.4399

> <Gold.PLP.part.repulsive>
0.1257

> <Gold.PLP.ligand.clash>
0.0000

> <Gold.PLP.ligand.torsion>
0.0017

> <Gold.PLP.Chemscore.Hbond>
0.0000

> <Gold.PLP.Chemscore.CHOScore>
1.0000

> <Gold.PLP.Chemscore.Metal>
0.0000

> <Gold.Chemscore.Hbonds>
donor molecule, donor type, donor heavy atom, donor atom, acceptor molecule, acceptor atom, score
      L1  C     9    16       P1   582  1.00

> <Gold.PLP.Chemscore.Internal.Correction>
0.0000

