#       Name:                EN300-76468_i001
#       Creating user name   aseyller
#       Creation time:       Fri Apr 21 18:02:45 2023


#       File generated by GOLD software.
#

@<TRIPOS>MOLECULE
EN300-76468_i001|benzaldehydes|mol2|415|dock15
    16    17     1
SMALL
USER_CHARGES


@<TRIPOS>ATOM
      1 O1          29.2628  36.9114  38.5836 O.2            1 <1>                0.0000
      2 C2          29.0599  37.8977  37.9044 C.2            1 <1>                0.0000
      3 C3          29.9631  38.2444  36.8749 C.2            1 <1>                0.0000
      4 C4          29.9322  39.4140  36.0874 C.2            1 <1>                0.0000
      5 N5          30.9282  39.3768  35.2443 N.2            1 <1>                0.0000
      6 N6          31.6576  38.1974  35.4293 N.pl3          1 <1>                0.0000
      7 C7          32.7648  37.7014  34.8086 C.2            1 <1>                0.0000
      8 C8          33.2656  36.5032  35.2063 C.2            1 <1>                0.0000
      9 C9          32.6344  35.8065  36.2422 C.2            1 <1>                0.0000
     10 N10         31.5665  36.3115  36.8216 N.2            1 <1>                0.0000
     11 C11         31.0746  37.4896  36.4402 C.2            1 <1>                0.0000
     12 H12         28.1866  38.5071  38.0845 H              1 <1>                0.0000
     13 H13         29.2050  40.2084  36.1682 H              1 <1>                0.0000
     14 H14         33.2380  38.2541  34.0104 H              1 <1>                0.0000
     15 H15         34.1420  36.0922  34.7274 H              1 <1>                0.0000
     16 H16         33.0239  34.8527  36.5666 H              1 <1>                0.0000
@<TRIPOS>BOND
    1    1    2 2     
    2    2    3 1     
    3    2   12 1     
    4    3    4 1     
    5    3   11 2     
    6    4    5 2     
    7    4   13 1     
    8    5    6 1     
    9    6    7 1     
   10    6   11 1     
   11    7    8 2     
   12    7   14 1     
   13    8    9 1     
   14    8   15 1     
   15    9   10 2     
   16    9   16 1     
   17   10   11 1     
@<TRIPOS>SUBSTRUCTURE
      1 ****           1
@<TRIPOS>COMMENT
> <Gold.Version>
2022.2.0

> <Gold.Id.Protein>
1qkm|1qkm_protein|mol2

> <Gold.Protein.RotatedTorsions>
[  496  491  490  487 ] final  -84.73 input  -89.99 | X-H torsion

> <Gold.Protein.ActiveResidues>
 MET295  LEU298  THR299  LEU301  ALA302  GLU305  TRP335  MET336  LEU339  MET340 
 GLY342  LEU343  ARG346  PHE356  ILE373  ILE376  PHE377  LEU380  LYS471  GLY472 
 MET473  HIS475  LEU476  LEU477  ASN478  MET479  VAL484  VAL487 

> <Gold.Protein.RotatedAtoms>
   36.7089   34.6844   41.1440 H   0  0  0  0  0  0  0  0  0  0  0  0  # atno 496  bound_to 491 

> <Gold.Score>
     Score     S(PLP)   S(hbond)     S(cho)   S(metal)  DE(clash)   DE(tors)     intcor
     35.41     -32.45       0.00       0.99       0.00       0.00       0.01       0.00

> <Gold.PLP.Fitness>
35.4074

> <Gold.PLP.PLP>
-32.4453

> <Gold.PLP.part.hbond>
0.0000

> <Gold.PLP.part.metal>
0.0000

> <Gold.PLP.part.buried>
-3.2961

> <Gold.PLP.part.nonpolar>
-29.0145

> <Gold.PLP.part.repulsive>
0.0138

> <Gold.PLP.ligand.clash>
0.0000

> <Gold.PLP.ligand.torsion>
0.0084

> <Gold.PLP.Chemscore.Hbond>
0.0000

> <Gold.PLP.Chemscore.CHOScore>
0.9930

> <Gold.PLP.Chemscore.Metal>
0.0000

> <Gold.Chemscore.Hbonds>
donor molecule, donor type, donor heavy atom, donor atom, acceptor molecule, acceptor atom, score
      L1  C     7    14       P1  3229  0.99

> <Gold.PLP.Chemscore.Internal.Correction>
0.0000

