#       Name:                EN300-76468_i001
#       Creating user name   aseyller
#       Creation time:       Fri Apr 21 18:02:46 2023


#       File generated by GOLD software.
#

@<TRIPOS>MOLECULE
EN300-76468_i001|benzaldehydes|mol2|415|dock18
    16    17     1
SMALL
USER_CHARGES


@<TRIPOS>ATOM
      1 O1          31.5159  38.5022  34.4163 O.2            1 <1>                0.0000
      2 C2          32.3712  37.6948  34.7194 C.2            1 <1>                0.0000
      3 C3          32.2575  36.9637  35.9229 C.2            1 <1>                0.0000
      4 C4          33.1606  35.9946  36.4069 C.2            1 <1>                0.0000
      5 N5          32.7159  35.5414  37.5475 N.2            1 <1>                0.0000
      6 N6          31.5133  36.1789  37.8707 N.pl3          1 <1>                0.0000
      7 C7          30.6729  36.0576  38.9365 C.2            1 <1>                0.0000
      8 C8          29.5516  36.8223  38.9857 C.2            1 <1>                0.0000
      9 C9          29.2852  37.7157  37.9426 C.2            1 <1>                0.0000
     10 N10         30.1159  37.8097  36.9267 N.2            1 <1>                0.0000
     11 C11         31.2208  37.0668  36.8762 C.2            1 <1>                0.0000
     12 H12         33.2162  37.5325  34.0668 H              1 <1>                0.0000
     13 H13         34.0691  35.6795  35.9153 H              1 <1>                0.0000
     14 H14         30.8956  35.3618  39.7321 H              1 <1>                0.0000
     15 H15         28.8723  36.7413  39.8213 H              1 <1>                0.0000
     16 H16         28.3964  38.3288  37.9713 H              1 <1>                0.0000
@<TRIPOS>BOND
    1    1    2 2     
    2    2    3 1     
    3    2   12 1     
    4    3    4 1     
    5    3   11 2     
    6    4    5 2     
    7    4   13 1     
    8    5    6 1     
    9    6    7 1     
   10    6   11 1     
   11    7    8 2     
   12    7   14 1     
   13    8    9 1     
   14    8   15 1     
   15    9   10 2     
   16    9   16 1     
   17   10   11 1     
@<TRIPOS>SUBSTRUCTURE
      1 ****           1
@<TRIPOS>COMMENT
> <Gold.Version>
2022.2.0

> <Gold.Id.Protein>
1qkm|1qkm_protein|mol2

> <Gold.Protein.RotatedTorsions>
[  496  491  490  487 ] final  -24.07 input  -89.99 | X-H torsion

> <Gold.Protein.ActiveResidues>
 MET295  LEU298  THR299  LEU301  ALA302  GLU305  TRP335  MET336  LEU339  MET340 
 GLY342  LEU343  ARG346  PHE356  ILE373  ILE376  PHE377  LEU380  LYS471  GLY472 
 MET473  HIS475  LEU476  LEU477  ASN478  MET479  VAL484  VAL487 

> <Gold.Protein.RotatedAtoms>
   36.2929   34.5136   41.9839 H   0  0  0  0  0  0  0  0  0  0  0  0  # atno 496  bound_to 491 

> <Gold.Score>
     Score     S(PLP)   S(hbond)     S(cho)   S(metal)  DE(clash)   DE(tors)     intcor
     34.59     -31.59       0.00       1.00       0.00       0.00       0.00       0.00

> <Gold.PLP.Fitness>
34.5918

> <Gold.PLP.PLP>
-31.5919

> <Gold.PLP.part.hbond>
0.0000

> <Gold.PLP.part.metal>
0.0000

> <Gold.PLP.part.buried>
-4.0340

> <Gold.PLP.part.nonpolar>
-27.7928

> <Gold.PLP.part.repulsive>
0.1005

> <Gold.PLP.ligand.clash>
0.0000

> <Gold.PLP.ligand.torsion>
0.0000

> <Gold.PLP.Chemscore.Hbond>
0.0000

> <Gold.PLP.Chemscore.CHOScore>
1.0000

> <Gold.PLP.Chemscore.Metal>
0.0000

> <Gold.Chemscore.Hbonds>
donor molecule, donor type, donor heavy atom, donor atom, acceptor molecule, acceptor atom, score
      L1  C     7    14       P1   470  1.00

> <Gold.PLP.Chemscore.Internal.Correction>
0.0000

