#       Name:                EN300-76468_i001
#       Creating user name   aseyller
#       Creation time:       Fri Apr 21 18:02:46 2023


#       File generated by GOLD software.
#

@<TRIPOS>MOLECULE
EN300-76468_i001|benzaldehydes|mol2|415|dock17
    16    17     1
SMALL
USER_CHARGES


@<TRIPOS>ATOM
      1 O1          30.2068  40.4548  36.1039 O.2            1 <1>                0.0000
      2 C2          30.0998  39.3795  36.6583 C.2            1 <1>                0.0000
      3 C3          30.9515  38.3114  36.2983 C.2            1 <1>                0.0000
      4 C4          31.6925  38.1922  35.1043 C.2            1 <1>                0.0000
      5 N5          32.3582  37.0697  35.1356 N.2            1 <1>                0.0000
      6 N6          32.0947  36.3995  36.3351 N.pl3          1 <1>                0.0000
      7 C7          32.5383  35.2116  36.8341 C.2            1 <1>                0.0000
      8 C8          32.1041  34.8028  38.0543 C.2            1 <1>                0.0000
      9 C9          31.2127  35.6092  38.7700 C.2            1 <1>                0.0000
     10 N10         30.8022  36.7509  38.2611 N.2            1 <1>                0.0000
     11 C11         31.2298  37.1602  37.0674 C.2            1 <1>                0.0000
     12 H12         29.3566  39.2411  37.4296 H              1 <1>                0.0000
     13 H13         31.7066  38.9102  34.2977 H              1 <1>                0.0000
     14 H14         33.2263  34.6026  36.2663 H              1 <1>                0.0000
     15 H15         32.4433  33.8646  38.4679 H              1 <1>                0.0000
     16 H16         30.8609  35.2940  39.7413 H              1 <1>                0.0000
@<TRIPOS>BOND
    1    1    2 2     
    2    2    3 1     
    3    2   12 1     
    4    3    4 1     
    5    3   11 2     
    6    4    5 2     
    7    4   13 1     
    8    5    6 1     
    9    6    7 1     
   10    6   11 1     
   11    7    8 2     
   12    7   14 1     
   13    8    9 1     
   14    8   15 1     
   15    9   10 2     
   16    9   16 1     
   17   10   11 1     
@<TRIPOS>SUBSTRUCTURE
      1 ****           1
@<TRIPOS>COMMENT
> <Gold.Version>
2022.2.0

> <Gold.Id.Protein>
1qkm|1qkm_protein|mol2

> <Gold.Protein.RotatedTorsions>
[  496  491  490  487 ] final -114.57 input  -89.99 | X-H torsion

> <Gold.Protein.ActiveResidues>
 MET295  LEU298  THR299  LEU301  ALA302  GLU305  TRP335  MET336  LEU339  MET340 
 GLY342  LEU343  ARG346  PHE356  ILE373  ILE376  PHE377  LEU380  LYS471  GLY472 
 MET473  HIS475  LEU476  LEU477  ASN478  MET479  VAL484  VAL487 

> <Gold.Protein.RotatedAtoms>
   36.9801   34.4232   40.8375 H   0  0  0  0  0  0  0  0  0  0  0  0  # atno 496  bound_to 491 

> <Gold.Score>
     Score     S(PLP)   S(hbond)     S(cho)   S(metal)  DE(clash)   DE(tors)     intcor
     34.09     -31.26       0.00       1.00       0.00       0.00       0.08       0.00

> <Gold.PLP.Fitness>
34.0939

> <Gold.PLP.PLP>
-31.2598

> <Gold.PLP.part.hbond>
0.0000

> <Gold.PLP.part.metal>
0.0000

> <Gold.PLP.part.buried>
-3.4468

> <Gold.PLP.part.nonpolar>
-27.9866

> <Gold.PLP.part.repulsive>
0.1494

> <Gold.PLP.ligand.clash>
0.0000

> <Gold.PLP.ligand.torsion>
0.0830

> <Gold.PLP.Chemscore.Hbond>
0.0000

> <Gold.PLP.Chemscore.CHOScore>
1.0000

> <Gold.PLP.Chemscore.Metal>
0.0000

> <Gold.Chemscore.Hbonds>
donor molecule, donor type, donor heavy atom, donor atom, acceptor molecule, acceptor atom, score
      L1  C     9    16       P1   470  1.00

> <Gold.PLP.Chemscore.Internal.Correction>
0.0000

