#       Name:                EN300-76468_i001
#       Creating user name   aseyller
#       Creation time:       Fri Apr 21 18:02:45 2023


#       File generated by GOLD software.
#

@<TRIPOS>MOLECULE
EN300-76468_i001|benzaldehydes|mol2|415|dock13
    16    17     1
SMALL
USER_CHARGES


@<TRIPOS>ATOM
      1 O1          30.6493  36.7972  38.1376 O.2            1 <1>                0.0000
      2 C2          30.4594  36.1009  39.1145 C.2            1 <1>                0.0000
      3 C3          29.1745  36.0386  39.6986 C.2            1 <1>                0.0000
      4 C4          28.8151  35.3361  40.8674 C.2            1 <1>                0.0000
      5 N5          27.5415  35.5176  41.0893 N.2            1 <1>                0.0000
      6 N6          27.0022  36.3378  40.0924 N.pl3          1 <1>                0.0000
      7 C7          25.7417  36.8107  39.8816 C.2            1 <1>                0.0000
      8 C8          25.5043  37.6056  38.8062 C.2            1 <1>                0.0000
      9 C9          26.5575  37.9202  37.9408 C.2            1 <1>                0.0000
     10 N10         27.7636  37.4477  38.1710 N.2            1 <1>                0.0000
     11 C11         28.0039  36.6729  39.2279 C.2            1 <1>                0.0000
     12 H12         31.2717  35.5259  39.5340 H              1 <1>                0.0000
     13 H13         29.4825  34.7456  41.4775 H              1 <1>                0.0000
     14 H14         24.9415  36.5564  40.5609 H              1 <1>                0.0000
     15 H15         24.5125  37.9906  38.6208 H              1 <1>                0.0000
     16 H16         26.3801  38.5514  37.0825 H              1 <1>                0.0000
@<TRIPOS>BOND
    1    1    2 2     
    2    2    3 1     
    3    2   12 1     
    4    3    4 1     
    5    3   11 2     
    6    4    5 2     
    7    4   13 1     
    8    5    6 1     
    9    6    7 1     
   10    6   11 1     
   11    7    8 2     
   12    7   14 1     
   13    8    9 1     
   14    8   15 1     
   15    9   10 2     
   16    9   16 1     
   17   10   11 1     
@<TRIPOS>SUBSTRUCTURE
      1 ****           1
@<TRIPOS>COMMENT
> <Gold.Version>
2022.2.0

> <Gold.Id.Protein>
1qkm|1qkm_protein|mol2

> <Gold.Protein.RotatedTorsions>
[  496  491  490  487 ] final    8.47 input  -89.99 | X-H torsion

> <Gold.Protein.ActiveResidues>
 MET295  LEU298  THR299  LEU301  ALA302  GLU305  TRP335  MET336  LEU339  MET340 
 GLY342  LEU343  ARG346  PHE356  ILE373  ILE376  PHE377  LEU380  LYS471  GLY472 
 MET473  HIS475  LEU476  LEU477  ASN478  MET479  VAL484  VAL487 

> <Gold.Protein.RotatedAtoms>
   36.2701   34.0894   42.2982 H   0  0  0  0  0  0  0  0  0  0  0  0  # atno 496  bound_to 491 

> <Gold.Score>
     Score     S(PLP)   S(hbond)     S(cho)   S(metal)  DE(clash)   DE(tors)     intcor
     38.18     -33.11       0.00       1.69       0.00       0.00       0.00       0.00

> <Gold.PLP.Fitness>
38.1784

> <Gold.PLP.PLP>
-33.1139

> <Gold.PLP.part.hbond>
0.0000

> <Gold.PLP.part.metal>
0.0000

> <Gold.PLP.part.buried>
-3.9246

> <Gold.PLP.part.nonpolar>
-30.8379

> <Gold.PLP.part.repulsive>
0.1527

> <Gold.PLP.ligand.clash>
0.0000

> <Gold.PLP.ligand.torsion>
0.0028

> <Gold.PLP.Chemscore.Hbond>
0.0000

> <Gold.PLP.Chemscore.CHOScore>
1.6900

> <Gold.PLP.Chemscore.Metal>
0.0000

> <Gold.Chemscore.Hbonds>
donor molecule, donor type, donor heavy atom, donor atom, acceptor molecule, acceptor atom, score
      L1  C     4    13       P1   470  1.00
      L1  C     7    14       P1  1131  0.69

> <Gold.PLP.Chemscore.Internal.Correction>
0.0000

