#       Name:                EN300-76468_i001
#       Creating user name   aseyller
#       Creation time:       Fri Apr 21 18:02:42 2023


#       File generated by GOLD software.
#

@<TRIPOS>MOLECULE
EN300-76468_i001|benzaldehydes|mol2|415|dock2
    16    17     1
SMALL
USER_CHARGES


@<TRIPOS>ATOM
      1 O1          30.7726  36.4176  38.7370 O.2            1 <1>                0.0000
      2 C2          30.1867  37.2344  38.0551 C.2            1 <1>                0.0000
      3 C3          28.7930  37.4103  38.2054 C.2            1 <1>                0.0000
      4 C4          27.9451  38.1633  37.3669 C.2            1 <1>                0.0000
      5 N5          26.7263  38.0879  37.8285 N.2            1 <1>                0.0000
      6 N6          26.7072  37.2925  38.9793 N.pl3          1 <1>                0.0000
      7 C7          25.6970  36.9166  39.8131 C.2            1 <1>                0.0000
      8 C8          25.9785  36.1209  40.8771 C.2            1 <1>                0.0000
      9 C9          27.2970  35.7059  41.0926 C.2            1 <1>                0.0000
     10 N10         28.2507  36.0860  40.2698 N.2            1 <1>                0.0000
     11 C11         27.9795  36.8612  39.2206 C.2            1 <1>                0.0000
     12 H12         30.7318  37.8292  37.3372 H              1 <1>                0.0000
     13 H13         28.2530  38.7116  36.4889 H              1 <1>                0.0000
     14 H14         24.6853  37.2476  39.6303 H              1 <1>                0.0000
     15 H15         25.1925  35.8119  41.5502 H              1 <1>                0.0000
     16 H16         27.5323  35.0730  41.9356 H              1 <1>                0.0000
@<TRIPOS>BOND
    1    1    2 2     
    2    2    3 1     
    3    2   12 1     
    4    3    4 1     
    5    3   11 2     
    6    4    5 2     
    7    4   13 1     
    8    5    6 1     
    9    6    7 1     
   10    6   11 1     
   11    7    8 2     
   12    7   14 1     
   13    8    9 1     
   14    8   15 1     
   15    9   10 2     
   16    9   16 1     
   17   10   11 1     
@<TRIPOS>SUBSTRUCTURE
      1 ****           1
@<TRIPOS>COMMENT
> <Gold.Version>
2022.2.0

> <Gold.Id.Protein>
1qkm|1qkm_protein|mol2

> <Gold.Protein.RotatedTorsions>
[  496  491  490  487 ] final  155.15 input  -89.99 | X-H torsion

> <Gold.Protein.ActiveResidues>
 MET295  LEU298  THR299  LEU301  ALA302  GLU305  TRP335  MET336  LEU339  MET340 
 GLY342  LEU343  ARG346  PHE356  ILE373  ILE376  PHE377  LEU380  LYS471  GLY472 
 MET473  HIS475  LEU476  LEU477  ASN478  MET479  VAL484  VAL487 

> <Gold.Protein.RotatedAtoms>
   37.2821   33.1537   41.1293 H   0  0  0  0  0  0  0  0  0  0  0  0  # atno 496  bound_to 491 

> <Gold.Score>
     Score     S(PLP)   S(hbond)     S(cho)   S(metal)  DE(clash)   DE(tors)     intcor
     38.26     -32.64       0.00       1.89       0.00       0.00       0.02       0.00

> <Gold.PLP.Fitness>
38.2618

> <Gold.PLP.PLP>
-32.6396

> <Gold.PLP.part.hbond>
0.0000

> <Gold.PLP.part.metal>
0.0000

> <Gold.PLP.part.buried>
-1.7476

> <Gold.PLP.part.nonpolar>
-31.8841

> <Gold.PLP.part.repulsive>
0.1416

> <Gold.PLP.ligand.clash>
0.0000

> <Gold.PLP.ligand.torsion>
0.0220

> <Gold.PLP.Chemscore.Hbond>
0.0000

> <Gold.PLP.Chemscore.CHOScore>
1.8888

> <Gold.PLP.Chemscore.Metal>
0.0000

> <Gold.Chemscore.Hbonds>
donor molecule, donor type, donor heavy atom, donor atom, acceptor molecule, acceptor atom, score
      L1  C     7    14       P1  1131  0.95
      L1  C     9    16       P1   582  0.94

> <Gold.PLP.Chemscore.Internal.Correction>
0.0000

