#       Name:                EN300-76468_i001
#       Creating user name   aseyller
#       Creation time:       Fri Apr 21 18:02:45 2023


#       File generated by GOLD software.
#

@<TRIPOS>MOLECULE
EN300-76468_i001|benzaldehydes|mol2|415|dock14
    16    17     1
SMALL
USER_CHARGES


@<TRIPOS>ATOM
      1 O1          33.6243  36.6919  34.4871 O.2            1 <1>                0.0000
      2 C2          32.6116  37.0184  35.0729 C.2            1 <1>                0.0000
      3 C3          32.2640  36.3874  36.2881 C.2            1 <1>                0.0000
      4 C4          32.9084  35.2781  36.8742 C.2            1 <1>                0.0000
      5 N5          32.3005  34.9838  37.9914 N.2            1 <1>                0.0000
      6 N6          31.2386  35.8710  38.1974 N.pl3          1 <1>                0.0000
      7 C7          30.3195  35.9788  39.1977 C.2            1 <1>                0.0000
      8 C8          29.3826  36.9599  39.1327 C.2            1 <1>                0.0000
      9 C9          29.3822  37.8360  38.0420 C.2            1 <1>                0.0000
     10 N10         30.2827  37.7059  37.0916 N.2            1 <1>                0.0000
     11 C11         31.2083  36.7494  37.1532 C.2            1 <1>                0.0000
     12 H12         31.9793  37.7942  34.6671 H              1 <1>                0.0000
     13 H13         33.7626  34.7583  36.4664 H              1 <1>                0.0000
     14 H14         30.3357  35.2926  40.0316 H              1 <1>                0.0000
     15 H15         28.6450  37.0625  39.9149 H              1 <1>                0.0000
     16 H16         28.6418  38.6198  37.9800 H              1 <1>                0.0000
@<TRIPOS>BOND
    1    1    2 2     
    2    2    3 1     
    3    2   12 1     
    4    3    4 1     
    5    3   11 2     
    6    4    5 2     
    7    4   13 1     
    8    5    6 1     
    9    6    7 1     
   10    6   11 1     
   11    7    8 2     
   12    7   14 1     
   13    8    9 1     
   14    8   15 1     
   15    9   10 2     
   16    9   16 1     
   17   10   11 1     
@<TRIPOS>SUBSTRUCTURE
      1 ****           1
@<TRIPOS>COMMENT
> <Gold.Version>
2022.2.0

> <Gold.Id.Protein>
1qkm|1qkm_protein|mol2

> <Gold.Protein.RotatedTorsions>
[  496  491  490  487 ] final   74.69 input  -89.99 | X-H torsion

> <Gold.Protein.ActiveResidues>
 MET295  LEU298  THR299  LEU301  ALA302  GLU305  TRP335  MET336  LEU339  MET340 
 GLY342  LEU343  ARG346  PHE356  ILE373  ILE376  PHE377  LEU380  LYS471  GLY472 
 MET473  HIS475  LEU476  LEU477  ASN478  MET479  VAL484  VAL487 

> <Gold.Protein.RotatedAtoms>
   36.6795   33.1501   42.1881 H   0  0  0  0  0  0  0  0  0  0  0  0  # atno 496  bound_to 491 

> <Gold.Score>
     Score     S(PLP)   S(hbond)     S(cho)   S(metal)  DE(clash)   DE(tors)     intcor
     34.98     -32.03       0.00       0.99       0.00       0.00       0.01       0.00

> <Gold.PLP.Fitness>
34.9833

> <Gold.PLP.PLP>
-32.0254

> <Gold.PLP.part.hbond>
0.0000

> <Gold.PLP.part.metal>
0.0000

> <Gold.PLP.part.buried>
-4.2136

> <Gold.PLP.part.nonpolar>
-28.8834

> <Gold.PLP.part.repulsive>
0.6280

> <Gold.PLP.ligand.clash>
0.0000

> <Gold.PLP.ligand.torsion>
0.0116

> <Gold.PLP.Chemscore.Hbond>
0.0000

> <Gold.PLP.Chemscore.CHOScore>
0.9937

> <Gold.PLP.Chemscore.Metal>
0.0000

> <Gold.Chemscore.Hbonds>
donor molecule, donor type, donor heavy atom, donor atom, acceptor molecule, acceptor atom, score
      L1  C     7    14       P1   470  0.99

> <Gold.PLP.Chemscore.Internal.Correction>
0.0000

