#       Name:                plp ligand
#       Creating user name   aseyller
#       Creation time:       Fri Apr 21 18:02:41 2023


#       File generated by GOLD software.
#

@<TRIPOS>MOLECULE
plp ligand
    16    17     1
SMALL
USER_CHARGES


@<TRIPOS>ATOM
      1 O1          -3.7781  -0.5348  -0.0010 ACCEPTOR       1 <1>                0.0000
      2 C2          -2.6247  -0.9155  -0.0006 NONPOLAR       1 <1>                0.0000
      3 C3          -1.5705   0.0250  -0.0005 NONPOLAR       1 <1>                0.0000
      4 C4          -1.6965   1.4297  -0.0003 NONPOLAR       1 <1>                0.0000
      5 N5          -0.5021   1.9566  -0.0003 ACCEPTOR       1 <1>                0.0000
      6 N6           0.4603   0.9412  -0.0005 NONPOLAR       1 <1>                0.0000
      7 C7           1.8226   0.9740  -0.0006 NONPOLAR       1 <1>                0.0000
      8 C8           2.5128  -0.1957  -0.0007 NONPOLAR       1 <1>                0.0000
      9 C9           1.8107  -1.4057  -0.0008 NONPOLAR       1 <1>                0.0000
     10 N10          0.4950  -1.4045  -0.0011 ACCEPTOR       1 <1>                0.0000
     11 C11         -0.1875  -0.2602   0.0056 NONPOLAR       1 <1>                0.0000
     12 H12         -2.4050  -1.9729   0.0042                1 <1>                0.0000
     13 H13         -2.6267   1.9784  -0.0005                1 <1>                0.0000
     14 H14          2.3469   1.9183  -0.0009                1 <1>                0.0000
     15 H15          3.5928  -0.1918  -0.0011                1 <1>                0.0000
     16 H16          2.3493  -2.3419  -0.0009                1 <1>                0.0000
@<TRIPOS>BOND
    1    1    2 2     
    2    2    3 1     
    3    2   12 1     
    4    3    4 1     
    5    3   11 2     
    6    4    5 2     
    7    4   13 1     
    8    5    6 1     
    9    6    7 1     
   10    6   11 1     
   11    7    8 2     
   12    7   14 1     
   13    8    9 1     
   14    8   15 1     
   15    9   10 2     
   16    9   16 1     
   17   10   11 1     
@<TRIPOS>SUBSTRUCTURE
      1 ****           1
@<TRIPOS>SET
DONOR_HYDROGENS      STATIC     ATOMS    <user>   **** ""
0
ATOM$RED        STATIC     ATOMS    COLORGROUP SYSTEM
0
