#       Name:                EN300-154894_i001
#       Creating user name   aseyller
#       Creation time:       Sat Apr 22 07:01:13 2023


#       File generated by GOLD software.
#

@<TRIPOS>MOLECULE
EN300-154894_i001|amine_3|mol2|3853|dock7
    35    35     1
SMALL
USER_CHARGES


@<TRIPOS>ATOM
      1 C1          32.2379  38.4976  34.4067 C.3            1 <1>                0.0000
      2 C2          31.3193  37.2858  34.5760 C.3            1 <1>                0.0000
      3 O3          30.4488  37.4941  35.7193 O.3            1 <1>                0.0000
      4 C4          30.8516  36.9791  36.8962 C.2            1 <1>                0.0000
      5 O5          31.8857  36.3440  36.9593 O.2            1 <1>                0.0000
      6 N6          30.1082  37.1681  38.0043 N.am           1 <1>                0.0000
      7 C7          30.5347  36.6123  39.2958 C.3            1 <1>                0.0000
      8 C8          29.3888  35.7774  39.8758 C.3            1 <1>                0.0000
      9 C9          28.1235  36.6353  39.9479 C.3            1 <1>                0.0000
     10 C10         27.7288  37.0844  38.5391 C.3            1 <1>                0.0000
     11 C11         28.8588  37.9390  37.9450 C.3            1 <1>                0.0000
     12 C12         26.9856  35.8150  40.5590 C.3            1 <1>                0.0000
     13 C13         25.7926  36.7301  40.8427 C.3            1 <1>                0.0000
     14 N14         27.4424  35.2027  41.8137 N.4            1 <1>                1.0000
     15 H15         32.8913  38.3411  33.5484 H              1 <1>                0.0000
     16 H16         31.6346  39.3911  34.2460 H              1 <1>                0.0000
     17 H17         32.8419  38.6238  35.3051 H              1 <1>                0.0000
     18 H18         30.7152  37.1595  33.6776 H              1 <1>                0.0000
     19 H19         31.9226  36.3922  34.7367 H              1 <1>                0.0000
     20 H20         31.4103  35.9798  39.1500 H              1 <1>                0.0000
     21 H21         30.7780  37.4246  39.9807 H              1 <1>                0.0000
     22 H22         29.2071  34.9143  39.2354 H              1 <1>                0.0000
     23 H23         29.6560  35.4385  40.8768 H              1 <1>                0.0000
     24 H24         28.3134  37.5111  40.5684 H              1 <1>                0.0000
     25 H25         27.5627  36.2090  37.9113 H              1 <1>                0.0000
     26 H26         26.8145  37.6758  38.5886 H              1 <1>                0.0000
     27 H27         28.9628  38.8585  38.5208 H              1 <1>                0.0000
     28 H28         28.6281  38.1793  36.9072 H              1 <1>                0.0000
     29 H29         26.6859  35.0332  39.8611 H              1 <1>                0.0000
     30 H30         25.4538  37.1845  39.9118 H              1 <1>                0.0000
     31 H31         24.9821  36.1458  41.2781 H              1 <1>                0.0000
     32 H32         26.0924  37.5119  41.5405 H              1 <1>                0.0000
     33 H33         28.1197  35.8062  42.2554 H              1 <1>                0.0000
     34 H34         26.6548  35.0726  42.4307 H              1 <1>                0.0000
     35 H35         27.8665  34.3086  41.6166 H              1 <1>                0.0000
@<TRIPOS>BOND
    1    1    2 1     
    2    1   15 1     
    3    1   16 1     
    4    1   17 1     
    5    2    3 1     
    6    2   18 1     
    7    2   19 1     
    8    3    4 1     
    9    4    5 2     
   10    4    6 am    
   11    6    7 1     
   12    6   11 1     
   13    7    8 1     
   14    7   20 1     
   15    7   21 1     
   16    8    9 1     
   17    8   22 1     
   18    8   23 1     
   19    9   10 1     
   20    9   12 1     
   21    9   24 1     
   22   10   11 1     
   23   10   25 1     
   24   10   26 1     
   25   11   27 1     
   26   11   28 1     
   27   12   13 1     
   28   12   14 1     
   29   12   29 1     
   30   13   30 1     
   31   13   31 1     
   32   13   32 1     
   33   14   33 1     
   34   14   34 1     
   35   14   35 1     
@<TRIPOS>SUBSTRUCTURE
      1 ****           1
@<TRIPOS>SET
DONOR_HYDROGENS      STATIC     ATOMS    <user>   **** ""
3 33 34 35
ATOM$RED        STATIC     ATOMS    COLORGROUP SYSTEM
3 33 34 35
@<TRIPOS>COMMENT
> <Gold.Version>
2022.2.0

> <Gold.Id.Protein>
1qkm|1qkm_protein|mol2

> <Gold.Protein.RotatedTorsions>
[  496  491  490  487 ] final  -84.93 input  -89.99 | X-H torsion

> <Gold.Protein.ActiveResidues>
 MET295  LEU298  THR299  LEU301  ALA302  GLU305  TRP335  MET336  LEU339  MET340 
 GLY342  LEU343  ARG346  PHE356  ILE373  ILE376  PHE377  LEU380  LYS471  GLY472 
 MET473  HIS475  LEU476  LEU477  ASN478  MET479  VAL484  VAL487 

> <Gold.Protein.RotatedAtoms>
   36.7107   34.6833   41.1415 H   0  0  0  0  0  0  0  0  0  0  0  0  # atno 496  bound_to 491 

> <Gold.Score>
     Score     S(PLP)   S(hbond)     S(cho)   S(metal)  DE(clash)   DE(tors)     intcor
     47.86     -42.54       1.98       0.00       0.00       0.00       0.32       0.00

> <Gold.PLP.Fitness>
47.8552

> <Gold.PLP.PLP>
-42.5425

> <Gold.PLP.part.hbond>
-0.8289

> <Gold.PLP.part.metal>
0.0000

> <Gold.PLP.part.buried>
-4.7659

> <Gold.PLP.part.nonpolar>
-36.8173

> <Gold.PLP.part.repulsive>
0.0804

> <Gold.PLP.ligand.clash>
0.0000

> <Gold.PLP.ligand.torsion>
0.3203

> <Gold.PLP.Chemscore.Hbond>
1.9840

> <Gold.PLP.Chemscore.CHOScore>
0.0000

> <Gold.PLP.Chemscore.Metal>
0.0000

> <Gold.Chemscore.Hbonds>
donor molecule, donor type, donor heavy atom, donor atom, acceptor molecule, acceptor atom, score
      L1  H    14    34       P1   582  1.98

> <Gold.PLP.Chemscore.Internal.Correction>
0.0012

