#       Name:                EN300-154894_i001
#       Creating user name   aseyller
#       Creation time:       Sat Apr 22 07:01:09 2023


#       File generated by GOLD software.
#

@<TRIPOS>MOLECULE
EN300-154894_i001|amine_3|mol2|3853|dock2
    35    35     1
SMALL
USER_CHARGES


@<TRIPOS>ATOM
      1 C1          33.3116  36.8134  34.8955 C.3            1 <1>                0.0000
      2 C2          32.1600  37.8124  35.0245 C.3            1 <1>                0.0000
      3 O3          31.4643  37.5898  36.2793 O.3            1 <1>                0.0000
      4 C4          30.1731  37.9668  36.3377 C.2            1 <1>                0.0000
      5 O5          29.5978  38.3223  35.3281 O.2            1 <1>                0.0000
      6 N6          29.5186  37.9497  37.5157 N.am           1 <1>                0.0000
      7 C7          30.2006  37.5222  38.7449 C.3            1 <1>                0.0000
      8 C8          29.3762  36.4129  39.4058 C.3            1 <1>                0.0000
      9 C9          27.9437  36.9066  39.6210 C.3            1 <1>                0.0000
     10 C10         27.3088  37.2400  38.2690 C.3            1 <1>                0.0000
     11 C11         28.1113  38.3640  37.5962 C.3            1 <1>                0.0000
     12 C12         27.1263  35.8135  40.3123 C.3            1 <1>                0.0000
     13 C13         25.7955  36.3975  40.7908 C.3            1 <1>                0.0000
     14 N14         27.8764  35.2959  41.4645 N.4            1 <1>                1.0000
     15 H15         33.8338  36.9806  33.9535 H              1 <1>                0.0000
     16 H16         34.0055  36.9498  35.7249 H              1 <1>                0.0000
     17 H17         32.9157  35.7981  34.9163 H              1 <1>                0.0000
     18 H18         32.5559  38.8278  35.0037 H              1 <1>                0.0000
     19 H19         31.4660  37.6760  34.1951 H              1 <1>                0.0000
     20 H20         31.1927  37.1434  38.4995 H              1 <1>                0.0000
     21 H21         30.2884  38.3679  39.4270 H              1 <1>                0.0000
     22 H22         29.3652  35.5344  38.7607 H              1 <1>                0.0000
     23 H23         29.8198  36.1535  40.3671 H              1 <1>                0.0000
     24 H24         27.9574  37.7996  40.2458 H              1 <1>                0.0000
     25 H25         27.3172  36.3536  37.6346 H              1 <1>                0.0000
     26 H26         26.2809  37.5692  38.4211 H              1 <1>                0.0000
     27 H27         28.0267  39.2768  38.1859 H              1 <1>                0.0000
     28 H28         27.7249  38.5381  36.5919 H              1 <1>                0.0000
     29 H29         26.9355  35.0029  39.6091 H              1 <1>                0.0000
     30 H30         25.2390  36.7816  39.9359 H              1 <1>                0.0000
     31 H31         25.2132  35.6188  41.2834 H              1 <1>                0.0000
     32 H32         25.9863  37.2082  41.4940 H              1 <1>                0.0000
     33 H33         28.4088  34.4864  41.1829 H              1 <1>                0.0000
     34 H34         28.5035  36.0091  41.8054 H              1 <1>                0.0000
     35 H35         27.2320  35.0368  42.1963 H              1 <1>                0.0000
@<TRIPOS>BOND
    1    1    2 1     
    2    1   15 1     
    3    1   16 1     
    4    1   17 1     
    5    2    3 1     
    6    2   18 1     
    7    2   19 1     
    8    3    4 1     
    9    4    5 2     
   10    4    6 am    
   11    6    7 1     
   12    6   11 1     
   13    7    8 1     
   14    7   20 1     
   15    7   21 1     
   16    8    9 1     
   17    8   22 1     
   18    8   23 1     
   19    9   10 1     
   20    9   12 1     
   21    9   24 1     
   22   10   11 1     
   23   10   25 1     
   24   10   26 1     
   25   11   27 1     
   26   11   28 1     
   27   12   13 1     
   28   12   14 1     
   29   12   29 1     
   30   13   30 1     
   31   13   31 1     
   32   13   32 1     
   33   14   33 1     
   34   14   34 1     
   35   14   35 1     
@<TRIPOS>SUBSTRUCTURE
      1 ****           1
@<TRIPOS>SET
DONOR_HYDROGENS      STATIC     ATOMS    <user>   **** ""
3 33 34 35
ATOM$RED        STATIC     ATOMS    COLORGROUP SYSTEM
3 33 34 35
@<TRIPOS>COMMENT
> <Gold.Version>
2022.2.0

> <Gold.Id.Protein>
1qkm|1qkm_protein|mol2

> <Gold.Protein.RotatedTorsions>
[  496  491  490  487 ] final  143.69 input  -89.99 | X-H torsion

> <Gold.Protein.ActiveResidues>
 MET295  LEU298  THR299  LEU301  ALA302  GLU305  TRP335  MET336  LEU339  MET340 
 GLY342  LEU343  ARG346  PHE356  ILE373  ILE376  PHE377  LEU380  LYS471  GLY472 
 MET473  HIS475  LEU476  LEU477  ASN478  MET479  VAL484  VAL487 

> <Gold.Protein.RotatedAtoms>
   37.2337   33.0516   41.2801 H   0  0  0  0  0  0  0  0  0  0  0  0  # atno 496  bound_to 491 

> <Gold.Score>
     Score     S(PLP)   S(hbond)     S(cho)   S(metal)  DE(clash)   DE(tors)     intcor
     49.17     -43.87       2.00       0.00       0.00       0.00       0.35       0.01

> <Gold.PLP.Fitness>
49.1656

> <Gold.PLP.PLP>
-43.8668

> <Gold.PLP.part.hbond>
-1.0000

> <Gold.PLP.part.metal>
0.0000

> <Gold.PLP.part.buried>
-2.9363

> <Gold.PLP.part.nonpolar>
-39.3521

> <Gold.PLP.part.repulsive>
0.0669

> <Gold.PLP.ligand.clash>
0.0000

> <Gold.PLP.ligand.torsion>
0.3545

> <Gold.PLP.Chemscore.Hbond>
2.0000

> <Gold.PLP.Chemscore.CHOScore>
0.0000

> <Gold.PLP.Chemscore.Metal>
0.0000

> <Gold.Chemscore.Hbonds>
donor molecule, donor type, donor heavy atom, donor atom, acceptor molecule, acceptor atom, score
      L1  H    14    35       P1   582  2.00

> <Gold.PLP.Chemscore.Internal.Correction>
0.0078

