#       Name:                EN300-154894_i001
#       Creating user name   aseyller
#       Creation time:       Sat Apr 22 07:01:19 2023


#       File generated by GOLD software.
#

@<TRIPOS>MOLECULE
EN300-154894_i001|amine_3|mol2|3853|dock13
    35    35     1
SMALL
USER_CHARGES


@<TRIPOS>ATOM
      1 C1          33.1799  36.1011  37.5905 C.3            1 <1>                0.0000
      2 C2          32.1100  37.1940  37.5487 C.3            1 <1>                0.0000
      3 O3          30.8931  36.7042  38.1713 O.3            1 <1>                0.0000
      4 C4          29.7322  37.2390  37.7486 C.2            1 <1>                0.0000
      5 O5          29.7401  38.1511  36.9457 O.2            1 <1>                0.0000
      6 N6          28.5611  36.7627  38.2157 N.am           1 <1>                0.0000
      7 C7          27.2860  37.3360  37.7638 C.3            1 <1>                0.0000
      8 C8          26.4672  37.7465  38.9917 C.3            1 <1>                0.0000
      9 C9          26.3193  36.5439  39.9265 C.3            1 <1>                0.0000
     10 C10         27.7024  36.0892  40.3982 C.3            1 <1>                0.0000
     11 C11         28.5351  35.6562  39.1820 C.3            1 <1>                0.0000
     12 C12         25.4727  36.9408  41.1376 C.3            1 <1>                0.0000
     13 C13         26.3312  37.7401  42.1200 C.3            1 <1>                0.0000
     14 N14         24.9683  35.7307  41.8003 N.4            1 <1>                1.0000
     15 H15         34.0934  36.4688  37.1231 H              1 <1>                0.0000
     16 H16         33.3847  35.8326  38.6269 H              1 <1>                0.0000
     17 H17         32.8238  35.2233  37.0514 H              1 <1>                0.0000
     18 H18         32.4661  38.0718  38.0878 H              1 <1>                0.0000
     19 H19         31.9051  37.4625  36.5122 H              1 <1>                0.0000
     20 H20         27.4785  38.2114  37.1435 H              1 <1>                0.0000
     21 H21         26.7345  36.5922  37.1887 H              1 <1>                0.0000
     22 H22         26.9778  38.5542  39.5160 H              1 <1>                0.0000
     23 H23         25.4805  38.0843  38.6747 H              1 <1>                0.0000
     24 H24         25.8309  35.7278  39.3940 H              1 <1>                0.0000
     25 H25         28.2014  36.9127  40.9094 H              1 <1>                0.0000
     26 H26         27.5950  35.2475  41.0825 H              1 <1>                0.0000
     27 H27         28.0839  34.7755  38.7251 H              1 <1>                0.0000
     28 H28         29.5522  35.4255  39.4990 H              1 <1>                0.0000
     29 H29         24.6323  37.5521  40.8088 H              1 <1>                0.0000
     30 H30         26.7055  38.6380  41.6283 H              1 <1>                0.0000
     31 H31         25.7281  38.0228  42.9828 H              1 <1>                0.0000
     32 H32         27.1716  37.1288  42.4488 H              1 <1>                0.0000
     33 H33         25.6544  35.3985  42.4613 H              1 <1>                0.0000
     34 H34         24.1103  35.9458  42.2855 H              1 <1>                0.0000
     35 H35         24.7940  35.0166  41.1091 H              1 <1>                0.0000
@<TRIPOS>BOND
    1    1    2 1     
    2    1   15 1     
    3    1   16 1     
    4    1   17 1     
    5    2    3 1     
    6    2   18 1     
    7    2   19 1     
    8    3    4 1     
    9    4    5 2     
   10    4    6 am    
   11    6    7 1     
   12    6   11 1     
   13    7    8 1     
   14    7   20 1     
   15    7   21 1     
   16    8    9 1     
   17    8   22 1     
   18    8   23 1     
   19    9   10 1     
   20    9   12 1     
   21    9   24 1     
   22   10   11 1     
   23   10   25 1     
   24   10   26 1     
   25   11   27 1     
   26   11   28 1     
   27   12   13 1     
   28   12   14 1     
   29   12   29 1     
   30   13   30 1     
   31   13   31 1     
   32   13   32 1     
   33   14   33 1     
   34   14   34 1     
   35   14   35 1     
@<TRIPOS>SUBSTRUCTURE
      1 ****           1
@<TRIPOS>SET
DONOR_HYDROGENS      STATIC     ATOMS    <user>   **** ""
3 33 34 35
ATOM$RED        STATIC     ATOMS    COLORGROUP SYSTEM
3 33 34 35
@<TRIPOS>COMMENT
> <Gold.Version>
2022.2.0

> <Gold.Id.Protein>
1qkm|1qkm_protein|mol2

> <Gold.Protein.RotatedTorsions>
[  496  491  490  487 ] final   15.51 input  -89.99 | X-H torsion

> <Gold.Protein.ActiveResidues>
 MET295  LEU298  THR299  LEU301  ALA302  GLU305  TRP335  MET336  LEU339  MET340 
 GLY342  LEU343  ARG346  PHE356  ILE373  ILE376  PHE377  LEU380  LYS471  GLY472 
 MET473  HIS475  LEU476  LEU477  ASN478  MET479  VAL484  VAL487 

> <Gold.Protein.RotatedAtoms>
   36.2874   33.9818   42.3375 H   0  0  0  0  0  0  0  0  0  0  0  0  # atno 496  bound_to 491 

> <Gold.Score>
     Score     S(PLP)   S(hbond)     S(cho)   S(metal)  DE(clash)   DE(tors)     intcor
     48.62     -43.62       2.00       0.00       0.00       0.00       0.50       0.00

> <Gold.PLP.Fitness>
48.6227

> <Gold.PLP.PLP>
-43.6183

> <Gold.PLP.part.hbond>
-2.0740

> <Gold.PLP.part.metal>
0.0000

> <Gold.PLP.part.buried>
-3.8251

> <Gold.PLP.part.nonpolar>
-37.9953

> <Gold.PLP.part.repulsive>
0.1757

> <Gold.PLP.ligand.clash>
0.0000

> <Gold.PLP.ligand.torsion>
0.4984

> <Gold.PLP.Chemscore.Hbond>
2.0000

> <Gold.PLP.Chemscore.CHOScore>
0.0000

> <Gold.PLP.Chemscore.Metal>
0.0000

> <Gold.Chemscore.Hbonds>
donor molecule, donor type, donor heavy atom, donor atom, acceptor molecule, acceptor atom, score
      L1  H    14    33       P1   582  2.00

> <Gold.PLP.Chemscore.Internal.Correction>
0.0011

