#       Name:                EN300-154894_i001
#       Creating user name   aseyller
#       Creation time:       Sat Apr 22 07:01:11 2023


#       File generated by GOLD software.
#

@<TRIPOS>MOLECULE
EN300-154894_i001|amine_3|mol2|3853|dock4
    35    35     1
SMALL
USER_CHARGES


@<TRIPOS>ATOM
      1 C1          25.9939  37.0029  40.5385 C.3            1 <1>                0.0000
      2 C2          26.0888  36.5607  39.0769 C.3            1 <1>                0.0000
      3 O3          27.2947  37.1092  38.4825 O.3            1 <1>                0.0000
      4 C4          28.4586  36.5108  38.7982 C.2            1 <1>                0.0000
      5 O5          28.4621  35.5272  39.5117 O.2            1 <1>                0.0000
      6 N6          29.6199  37.0026  38.3229 N.am           1 <1>                0.0000
      7 C7          29.6320  38.1910  37.4590 C.3            1 <1>                0.0000
      8 C8          30.3980  37.8591  36.1746 C.3            1 <1>                0.0000
      9 C9          31.7881  37.3311  36.5364 C.3            1 <1>                0.0000
     10 C10         31.6499  36.0493  37.3612 C.3            1 <1>                0.0000
     11 C11         30.8985  36.3640  38.6636 C.3            1 <1>                0.0000
     12 C12         32.5687  37.0311  35.2552 C.3            1 <1>                0.0000
     13 C13         32.3999  38.1910  34.2717 C.3            1 <1>                0.0000
     14 N14         32.0566  35.7955  34.6477 N.4            1 <1>                1.0000
     15 H15         25.0887  36.5912  40.9846 H              1 <1>                0.0000
     16 H16         26.8651  36.6415  41.0848 H              1 <1>                0.0000
     17 H17         25.9604  38.0913  40.5872 H              1 <1>                0.0000
     18 H18         26.1223  35.4723  39.0281 H              1 <1>                0.0000
     19 H19         25.2176  36.9223  38.5305 H              1 <1>                0.0000
     20 H20         28.6086  38.4732  37.2117 H              1 <1>                0.0000
     21 H21         30.1253  39.0138  37.9765 H              1 <1>                0.0000
     22 H22         29.8548  37.0990  35.6132 H              1 <1>                0.0000
     23 H23         30.4974  38.7590  35.5675 H              1 <1>                0.0000
     24 H24         32.3216  38.0820  37.1190 H              1 <1>                0.0000
     25 H25         31.0949  35.3062  36.7885 H              1 <1>                0.0000
     26 H26         32.6403  35.6609  37.5986 H              1 <1>                0.0000
     27 H27         31.4971  37.0370  39.2774 H              1 <1>                0.0000
     28 H28         30.7098  35.4393  39.2091 H              1 <1>                0.0000
     29 H29         33.6251  36.9079  35.4938 H              1 <1>                0.0000
     30 H30         32.7799  39.1077  34.7226 H              1 <1>                0.0000
     31 H31         32.9560  37.9772  33.3590 H              1 <1>                0.0000
     32 H32         31.3436  38.3142  34.0332 H              1 <1>                0.0000
     33 H33         32.5793  35.0068  34.9980 H              1 <1>                0.0000
     34 H34         31.0817  35.6842  34.8827 H              1 <1>                0.0000
     35 H35         32.1571  35.8470  33.6450 H              1 <1>                0.0000
@<TRIPOS>BOND
    1    1    2 1     
    2    1   15 1     
    3    1   16 1     
    4    1   17 1     
    5    2    3 1     
    6    2   18 1     
    7    2   19 1     
    8    3    4 1     
    9    4    5 2     
   10    4    6 am    
   11    6    7 1     
   12    6   11 1     
   13    7    8 1     
   14    7   20 1     
   15    7   21 1     
   16    8    9 1     
   17    8   22 1     
   18    8   23 1     
   19    9   10 1     
   20    9   12 1     
   21    9   24 1     
   22   10   11 1     
   23   10   25 1     
   24   10   26 1     
   25   11   27 1     
   26   11   28 1     
   27   12   13 1     
   28   12   14 1     
   29   12   29 1     
   30   13   30 1     
   31   13   31 1     
   32   13   32 1     
   33   14   33 1     
   34   14   34 1     
   35   14   35 1     
@<TRIPOS>SUBSTRUCTURE
      1 ****           1
@<TRIPOS>SET
DONOR_HYDROGENS      STATIC     ATOMS    <user>   **** ""
3 33 34 35
ATOM$RED        STATIC     ATOMS    COLORGROUP SYSTEM
3 33 34 35
@<TRIPOS>COMMENT
> <Gold.Version>
2022.2.0

> <Gold.Id.Protein>
1qkm|1qkm_protein|mol2

> <Gold.Protein.RotatedTorsions>
[  496  491  490  487 ] final -177.65 input  -89.99 | X-H torsion

> <Gold.Protein.ActiveResidues>
 MET295  LEU298  THR299  LEU301  ALA302  GLU305  TRP335  MET336  LEU339  MET340 
 GLY342  LEU343  ARG346  PHE356  ILE373  ILE376  PHE377  LEU380  LYS471  GLY472 
 MET473  HIS475  LEU476  LEU477  ASN478  MET479  VAL484  VAL487 

> <Gold.Protein.RotatedAtoms>
   37.3161   33.4954   40.8486 H   0  0  0  0  0  0  0  0  0  0  0  0  # atno 496  bound_to 491 

> <Gold.Score>
     Score     S(PLP)   S(hbond)     S(cho)   S(metal)  DE(clash)   DE(tors)     intcor
     48.17     -45.73       1.00       0.00       0.00       0.00       0.29       0.00

> <Gold.PLP.Fitness>
48.1660

> <Gold.PLP.PLP>
-45.7349

> <Gold.PLP.part.hbond>
-1.0000

> <Gold.PLP.part.metal>
0.0000

> <Gold.PLP.part.buried>
-4.6007

> <Gold.PLP.part.nonpolar>
-40.1880

> <Gold.PLP.part.repulsive>
0.1150

> <Gold.PLP.ligand.clash>
0.0000

> <Gold.PLP.ligand.torsion>
0.2851

> <Gold.PLP.Chemscore.Hbond>
1.0000

> <Gold.PLP.Chemscore.CHOScore>
0.0000

> <Gold.PLP.Chemscore.Metal>
0.0000

> <Gold.Chemscore.Hbonds>
donor molecule, donor type, donor heavy atom, donor atom, acceptor molecule, acceptor atom, score
      L1  H    14    35       P1  3187  1.00

> <Gold.PLP.Chemscore.Internal.Correction>
0.0012

