#       Name:                EN300-154894_i001
#       Creating user name   aseyller
#       Creation time:       Sat Apr 22 07:01:15 2023


#       File generated by GOLD software.
#

@<TRIPOS>MOLECULE
EN300-154894_i001|amine_3|mol2|3853|dock9
    35    35     1
SMALL
USER_CHARGES


@<TRIPOS>ATOM
      1 C1          32.0993  34.3026  37.6024 C.3            1 <1>                0.0000
      2 C2          32.1434  35.6484  38.3288 C.3            1 <1>                0.0000
      3 O3          30.9140  35.8342  39.0787 O.3            1 <1>                0.0000
      4 C4          29.9108  36.4821  38.4571 C.2            1 <1>                0.0000
      5 O5          30.1597  37.3252  37.6182 O.2            1 <1>                0.0000
      6 N6          28.6304  36.1955  38.7652 N.am           1 <1>                0.0000
      7 C7          27.5249  36.8940  38.0955 C.3            1 <1>                0.0000
      8 C8          26.6029  37.4941  39.1616 C.3            1 <1>                0.0000
      9 C9          26.1578  36.3913  40.1247 C.3            1 <1>                0.0000
     10 C10         27.3828  35.7977  40.8242 C.3            1 <1>                0.0000
     11 C11         28.3135  35.1743  39.7730 C.3            1 <1>                0.0000
     12 C12         25.2091  36.9803  41.1707 C.3            1 <1>                0.0000
     13 C13         26.0149  37.7774  42.1986 C.3            1 <1>                0.0000
     14 N14         24.4910  35.8926  41.8482 N.4            1 <1>                1.0000
     15 H15         33.0221  34.1631  37.0394 H              1 <1>                0.0000
     16 H16         31.9935  33.4994  38.3316 H              1 <1>                0.0000
     17 H17         31.2506  34.2865  36.9186 H              1 <1>                0.0000
     18 H18         32.9921  35.6645  39.0126 H              1 <1>                0.0000
     19 H19         32.2491  36.4517  37.5995 H              1 <1>                0.0000
     20 H20         27.9233  37.6902  37.4667 H              1 <1>                0.0000
     21 H21         26.9642  36.1878  37.4830 H              1 <1>                0.0000
     22 H22         27.1395  38.2652  39.7143 H              1 <1>                0.0000
     23 H23         25.7280  37.9323  38.6811 H              1 <1>                0.0000
     24 H24         25.6429  35.6086  39.5677 H              1 <1>                0.0000
     25 H25         27.9120  36.5848  41.3614 H              1 <1>                0.0000
     26 H26         27.0631  35.0285  41.5273 H              1 <1>                0.0000
     27 H27         27.8153  34.3283  39.2996 H              1 <1>                0.0000
     28 H28         29.2329  34.8381  40.2524 H              1 <1>                0.0000
     29 H29         24.4922  37.6393  40.6808 H              1 <1>                0.0000
     30 H30         26.5478  38.5845  41.6958 H              1 <1>                0.0000
     31 H31         25.3391  38.1970  42.9437 H              1 <1>                0.0000
     32 H32         26.7318  37.1185  42.6883 H              1 <1>                0.0000
     33 H33         23.9127  35.4045  41.1808 H              1 <1>                0.0000
     34 H34         25.1564  35.2496  42.2504 H              1 <1>                0.0000
     35 H35         23.9105  36.2767  42.5787 H              1 <1>                0.0000
@<TRIPOS>BOND
    1    1    2 1     
    2    1   15 1     
    3    1   16 1     
    4    1   17 1     
    5    2    3 1     
    6    2   18 1     
    7    2   19 1     
    8    3    4 1     
    9    4    5 2     
   10    4    6 am    
   11    6    7 1     
   12    6   11 1     
   13    7    8 1     
   14    7   20 1     
   15    7   21 1     
   16    8    9 1     
   17    8   22 1     
   18    8   23 1     
   19    9   10 1     
   20    9   12 1     
   21    9   24 1     
   22   10   11 1     
   23   10   25 1     
   24   10   26 1     
   25   11   27 1     
   26   11   28 1     
   27   12   13 1     
   28   12   14 1     
   29   12   29 1     
   30   13   30 1     
   31   13   31 1     
   32   13   32 1     
   33   14   33 1     
   34   14   34 1     
   35   14   35 1     
@<TRIPOS>SUBSTRUCTURE
      1 ****           1
@<TRIPOS>SET
DONOR_HYDROGENS      STATIC     ATOMS    <user>   **** ""
3 33 34 35
ATOM$RED        STATIC     ATOMS    COLORGROUP SYSTEM
3 33 34 35
@<TRIPOS>COMMENT
> <Gold.Version>
2022.2.0

> <Gold.Id.Protein>
1qkm|1qkm_protein|mol2

> <Gold.Protein.RotatedTorsions>
[  496  491  490  487 ] final  -15.76 input  -89.99 | X-H torsion

> <Gold.Protein.ActiveResidues>
 MET295  LEU298  THR299  LEU301  ALA302  GLU305  TRP335  MET336  LEU339  MET340 
 GLY342  LEU343  ARG346  PHE356  ILE373  ILE376  PHE377  LEU380  LYS471  GLY472 
 MET473  HIS475  LEU476  LEU477  ASN478  MET479  VAL484  VAL487 

> <Gold.Protein.RotatedAtoms>
   36.2711   34.4210   42.0820 H   0  0  0  0  0  0  0  0  0  0  0  0  # atno 496  bound_to 491 

> <Gold.Score>
     Score     S(PLP)   S(hbond)     S(cho)   S(metal)  DE(clash)   DE(tors)     intcor
     52.35     -45.75       2.75       0.00       0.00       0.00       0.83       0.00

> <Gold.PLP.Fitness>
52.3505

> <Gold.PLP.PLP>
-45.7480

> <Gold.PLP.part.hbond>
-2.7171

> <Gold.PLP.part.metal>
0.0000

> <Gold.PLP.part.buried>
-1.2473

> <Gold.PLP.part.nonpolar>
-43.0201

> <Gold.PLP.part.repulsive>
2.0773

> <Gold.PLP.ligand.clash>
0.0000

> <Gold.PLP.ligand.torsion>
0.8273

> <Gold.PLP.Chemscore.Hbond>
2.7520

> <Gold.PLP.Chemscore.CHOScore>
0.0000

> <Gold.PLP.Chemscore.Metal>
0.0000

> <Gold.Chemscore.Hbonds>
donor molecule, donor type, donor heavy atom, donor atom, acceptor molecule, acceptor atom, score
      L1  H    14    33       P1  1131  0.77
      L1  H    14    34       P1   582  1.98

> <Gold.PLP.Chemscore.Internal.Correction>
0.0012

