#       Name:                EN300-154894_i001
#       Creating user name   aseyller
#       Creation time:       Sat Apr 22 07:01:17 2023


#       File generated by GOLD software.
#

@<TRIPOS>MOLECULE
EN300-154894_i001|amine_3|mol2|3853|dock11
    35    35     1
SMALL
USER_CHARGES


@<TRIPOS>ATOM
      1 C1          32.2063  38.2313  33.9998 C.3            1 <1>                0.0000
      2 C2          32.4229  37.0172  34.9054 C.3            1 <1>                0.0000
      3 O3          31.5165  37.0898  36.0374 O.3            1 <1>                0.0000
      4 C4          31.6221  36.1227  36.9680 C.2            1 <1>                0.0000
      5 O5          32.2821  35.1285  36.7389 O.2            1 <1>                0.0000
      6 N6          30.9958  36.2572  38.1539 N.am           1 <1>                0.0000
      7 C7          31.1017  35.2104  39.1794 C.3            1 <1>                0.0000
      8 C8          29.6906  34.7963  39.6086 C.3            1 <1>                0.0000
      9 C9          28.9128  36.0365  40.0545 C.3            1 <1>                0.0000
     10 C10         28.7938  37.0144  38.8833 C.3            1 <1>                0.0000
     11 C11         30.1992  37.4563  38.4479 C.3            1 <1>                0.0000
     12 C12         27.5143  35.6222  40.5167 C.3            1 <1>                0.0000
     13 C13         26.6454  36.8691  40.6938 C.3            1 <1>                0.0000
     14 N14         27.6131  34.9083  41.7967 N.4            1 <1>                1.0000
     15 H15         32.8868  38.1767  33.1501 H              1 <1>                0.0000
     16 H16         31.1770  38.2380  33.6413 H              1 <1>                0.0000
     17 H17         32.4008  39.1439  34.5631 H              1 <1>                0.0000
     18 H18         32.2285  36.1045  34.3422 H              1 <1>                0.0000
     19 H19         33.4523  37.0105  35.2641 H              1 <1>                0.0000
     20 H20         31.6265  34.3481  38.7684 H              1 <1>                0.0000
     21 H21         31.6471  35.5965  40.0406 H              1 <1>                0.0000
     22 H22         29.1778  34.3276  38.7689 H              1 <1>                0.0000
     23 H23         29.7548  34.0901  40.4365 H              1 <1>                0.0000
     24 H24         29.4391  36.5188  40.8782 H              1 <1>                0.0000
     25 H25         28.2893  36.5248  38.0503 H              1 <1>                0.0000
     26 H26         28.2195  37.8870  39.1947 H              1 <1>                0.0000
     27 H27         30.6683  38.0254  39.2505 H              1 <1>                0.0000
     28 H28         30.1271  38.0741  37.5528 H              1 <1>                0.0000
     29 H29         27.0637  34.9685  39.7699 H              1 <1>                0.0000
     30 H30         26.5722  37.3988  39.7440 H              1 <1>                0.0000
     31 H31         25.6492  36.5740  41.0231 H              1 <1>                0.0000
     32 H32         27.0961  37.5228  41.4405 H              1 <1>                0.0000
     33 H33         28.3769  35.2882  42.3355 H              1 <1>                0.0000
     34 H34         26.7517  35.0182  42.3105 H              1 <1>                0.0000
     35 H35         27.7786  33.9282  41.6233 H              1 <1>                0.0000
@<TRIPOS>BOND
    1    1    2 1     
    2    1   15 1     
    3    1   16 1     
    4    1   17 1     
    5    2    3 1     
    6    2   18 1     
    7    2   19 1     
    8    3    4 1     
    9    4    5 2     
   10    4    6 am    
   11    6    7 1     
   12    6   11 1     
   13    7    8 1     
   14    7   20 1     
   15    7   21 1     
   16    8    9 1     
   17    8   22 1     
   18    8   23 1     
   19    9   10 1     
   20    9   12 1     
   21    9   24 1     
   22   10   11 1     
   23   10   25 1     
   24   10   26 1     
   25   11   27 1     
   26   11   28 1     
   27   12   13 1     
   28   12   14 1     
   29   12   29 1     
   30   13   30 1     
   31   13   31 1     
   32   13   32 1     
   33   14   33 1     
   34   14   34 1     
   35   14   35 1     
@<TRIPOS>SUBSTRUCTURE
      1 ****           1
@<TRIPOS>SET
DONOR_HYDROGENS      STATIC     ATOMS    <user>   **** ""
3 33 34 35
ATOM$RED        STATIC     ATOMS    COLORGROUP SYSTEM
3 33 34 35
@<TRIPOS>COMMENT
> <Gold.Version>
2022.2.0

> <Gold.Id.Protein>
1qkm|1qkm_protein|mol2

> <Gold.Protein.RotatedTorsions>
[  496  491  490  487 ] final -116.20 input  -89.99 | X-H torsion

> <Gold.Protein.ActiveResidues>
 MET295  LEU298  THR299  LEU301  ALA302  GLU305  TRP335  MET336  LEU339  MET340 
 GLY342  LEU343  ARG346  PHE356  ILE373  ILE376  PHE377  LEU380  LYS471  GLY472 
 MET473  HIS475  LEU476  LEU477  ASN478  MET479  VAL484  VAL487 

> <Gold.Protein.RotatedAtoms>
   36.9942   34.4035   40.8256 H   0  0  0  0  0  0  0  0  0  0  0  0  # atno 496  bound_to 491 

> <Gold.Score>
     Score     S(PLP)   S(hbond)     S(cho)   S(metal)  DE(clash)   DE(tors)     intcor
     45.60     -41.42       1.57       0.00       0.00       0.00       0.26       0.00

> <Gold.PLP.Fitness>
45.6002

> <Gold.PLP.PLP>
-41.4184

> <Gold.PLP.part.hbond>
-0.9917

> <Gold.PLP.part.metal>
0.0000

> <Gold.PLP.part.buried>
-2.6087

> <Gold.PLP.part.nonpolar>
-38.6193

> <Gold.PLP.part.repulsive>
0.1119

> <Gold.PLP.ligand.clash>
0.0000

> <Gold.PLP.ligand.torsion>
0.2617

> <Gold.PLP.Chemscore.Hbond>
1.5680

> <Gold.PLP.Chemscore.CHOScore>
0.0000

> <Gold.PLP.Chemscore.Metal>
0.0000

> <Gold.Chemscore.Hbonds>
donor molecule, donor type, donor heavy atom, donor atom, acceptor molecule, acceptor atom, score
      L1  H    14    34       P1   582  1.57

> <Gold.PLP.Chemscore.Internal.Correction>
0.0012

