#       Name:                EN300-154894_i001
#       Creating user name   aseyller
#       Creation time:       Sat Apr 22 07:01:16 2023


#       File generated by GOLD software.
#

@<TRIPOS>MOLECULE
EN300-154894_i001|amine_3|mol2|3853|dock10
    35    35     1
SMALL
USER_CHARGES


@<TRIPOS>ATOM
      1 C1          25.8238  37.1442  40.9031 C.3            1 <1>                0.0000
      2 C2          25.8016  36.7047  39.4378 C.3            1 <1>                0.0000
      3 O3          27.0080  37.1672  38.7753 O.3            1 <1>                0.0000
      4 C4          28.1753  36.6452  39.1968 C.2            1 <1>                0.0000
      5 O5          28.1931  35.8800  40.1405 O.2            1 <1>                0.0000
      6 N6          29.3241  36.9713  38.5718 N.am           1 <1>                0.0000
      7 C7          29.3187  37.8950  37.4293 C.3            1 <1>                0.0000
      8 C8          30.0313  37.2250  36.2503 C.3            1 <1>                0.0000
      9 C9          31.4272  36.7779  36.6904 C.3            1 <1>                0.0000
     10 C10         31.3038  35.7567  37.8237 C.3            1 <1>                0.0000
     11 C11         30.6063  36.4144  39.0240 C.3            1 <1>                0.0000
     12 C12         32.1550  36.1391  35.5058 C.3            1 <1>                0.0000
     13 C13         33.6168  35.8874  35.8809 C.3            1 <1>                0.0000
     14 N14         32.0948  37.0428  34.3492 N.4            1 <1>                1.0000
     15 H15         24.9181  36.7970  41.4004 H              1 <1>                0.0000
     16 H16         26.6963  36.7170  41.3974 H              1 <1>                0.0000
     17 H17         25.8728  38.2318  40.9554 H              1 <1>                0.0000
     18 H18         25.7525  35.6170  39.3855 H              1 <1>                0.0000
     19 H19         24.9291  37.1319  38.9434 H              1 <1>                0.0000
     20 H20         28.2905  38.1262  37.1513 H              1 <1>                0.0000
     21 H21         29.8417  38.8125  37.6988 H              1 <1>                0.0000
     22 H22         29.4576  36.3577  35.9237 H              1 <1>                0.0000
     23 H23         30.1193  37.9345  35.4275 H              1 <1>                0.0000
     24 H24         31.9919  37.6420  37.0402 H              1 <1>                0.0000
     25 H25         30.7181  34.9032  37.4822 H              1 <1>                0.0000
     26 H26         32.2974  35.4211  38.1208 H              1 <1>                0.0000
     27 H27         31.2363  37.2099  39.4219 H              1 <1>                0.0000
     28 H28         30.4265  35.6669  39.7967 H              1 <1>                0.0000
     29 H29         31.6766  35.1929  35.2529 H              1 <1>                0.0000
     30 H30         33.6614  35.2170  36.7391 H              1 <1>                0.0000
     31 H31         34.1353  35.4325  35.0370 H              1 <1>                0.0000
     32 H32         34.0951  36.8336  36.1339 H              1 <1>                0.0000
     33 H33         32.9036  37.6460  34.3513 H              1 <1>                0.0000
     34 H34         32.0821  36.5001  33.4987 H              1 <1>                0.0000
     35 H35         31.2573  37.6030  34.4033 H              1 <1>                0.0000
@<TRIPOS>BOND
    1    1    2 1     
    2    1   15 1     
    3    1   16 1     
    4    1   17 1     
    5    2    3 1     
    6    2   18 1     
    7    2   19 1     
    8    3    4 1     
    9    4    5 2     
   10    4    6 am    
   11    6    7 1     
   12    6   11 1     
   13    7    8 1     
   14    7   20 1     
   15    7   21 1     
   16    8    9 1     
   17    8   22 1     
   18    8   23 1     
   19    9   10 1     
   20    9   12 1     
   21    9   24 1     
   22   10   11 1     
   23   10   25 1     
   24   10   26 1     
   25   11   27 1     
   26   11   28 1     
   27   12   13 1     
   28   12   14 1     
   29   12   29 1     
   30   13   30 1     
   31   13   31 1     
   32   13   32 1     
   33   14   33 1     
   34   14   34 1     
   35   14   35 1     
@<TRIPOS>SUBSTRUCTURE
      1 ****           1
@<TRIPOS>SET
DONOR_HYDROGENS      STATIC     ATOMS    <user>   **** ""
3 33 34 35
ATOM$RED        STATIC     ATOMS    COLORGROUP SYSTEM
3 33 34 35
@<TRIPOS>COMMENT
> <Gold.Version>
2022.2.0

> <Gold.Id.Protein>
1qkm|1qkm_protein|mol2

> <Gold.Protein.RotatedTorsions>
[  496  491  490  487 ] final  115.23 input  -89.99 | X-H torsion

> <Gold.Protein.ActiveResidues>
 MET295  LEU298  THR299  LEU301  ALA302  GLU305  TRP335  MET336  LEU339  MET340 
 GLY342  LEU343  ARG346  PHE356  ILE373  ILE376  PHE377  LEU380  LYS471  GLY472 
 MET473  HIS475  LEU476  LEU477  ASN478  MET479  VAL484  VAL487 

> <Gold.Protein.RotatedAtoms>
   37.0428   32.9395   41.6874 H   0  0  0  0  0  0  0  0  0  0  0  0  # atno 496  bound_to 491 

> <Gold.Score>
     Score     S(PLP)   S(hbond)     S(cho)   S(metal)  DE(clash)   DE(tors)     intcor
     46.38     -43.57       1.00       0.00       0.00       0.00       0.10       0.00

> <Gold.PLP.Fitness>
46.3754

> <Gold.PLP.PLP>
-43.5711

> <Gold.PLP.part.hbond>
-1.0000

> <Gold.PLP.part.metal>
0.0000

> <Gold.PLP.part.buried>
-4.9379

> <Gold.PLP.part.nonpolar>
-37.9669

> <Gold.PLP.part.repulsive>
0.1227

> <Gold.PLP.ligand.clash>
0.0000

> <Gold.PLP.ligand.torsion>
0.0984

> <Gold.PLP.Chemscore.Hbond>
1.0000

> <Gold.PLP.Chemscore.CHOScore>
0.0000

> <Gold.PLP.Chemscore.Metal>
0.0000

> <Gold.Chemscore.Hbonds>
donor molecule, donor type, donor heavy atom, donor atom, acceptor molecule, acceptor atom, score
      L1  H    14    34       P1  3187  1.00

> <Gold.PLP.Chemscore.Internal.Correction>
0.0012

