#       Name:                EN300-154894_i001
#       Creating user name   aseyller
#       Creation time:       Sat Apr 22 07:01:24 2023


#       File generated by GOLD software.
#

@<TRIPOS>MOLECULE
EN300-154894_i001|amine_3|mol2|3853|dock18
    35    35     1
SMALL
USER_CHARGES


@<TRIPOS>ATOM
      1 C1          33.5836  36.7097  35.1558 C.3            1 <1>                0.0000
      2 C2          32.1459  36.4257  34.7159 C.3            1 <1>                0.0000
      3 O3          31.2276  36.8583  35.7541 O.3            1 <1>                0.0000
      4 C4          31.3687  36.2947  36.9686 C.2            1 <1>                0.0000
      5 O5          32.1870  35.4124  37.1377 O.2            1 <1>                0.0000
      6 N6          30.6025  36.7092  37.9970 N.am           1 <1>                0.0000
      7 C7          30.7449  36.1038  39.3282 C.3            1 <1>                0.0000
      8 C8          29.3700  35.6194  39.7991 C.3            1 <1>                0.0000
      9 C9          28.3763  36.7818  39.7404 C.3            1 <1>                0.0000
     10 C10         28.2471  37.2720  38.2964 C.3            1 <1>                0.0000
     11 C11         29.6131  37.7791  37.8097 C.3            1 <1>                0.0000
     12 C12         27.0102  36.3104  40.2428 C.3            1 <1>                0.0000
     13 C13         25.9342  37.3058  39.8040 C.3            1 <1>                0.0000
     14 N14         27.0303  36.2259  41.7092 N.4            1 <1>                1.0000
     15 H15         34.2729  36.3850  34.3764 H              1 <1>                0.0000
     16 H16         33.7065  37.7791  35.3271 H              1 <1>                0.0000
     17 H17         33.7953  36.1674  36.0772 H              1 <1>                0.0000
     18 H18         31.9341  36.9679  33.7944 H              1 <1>                0.0000
     19 H19         32.0229  35.3562  34.5446 H              1 <1>                0.0000
     20 H20         31.4312  35.2588  39.2738 H              1 <1>                0.0000
     21 H21         31.1302  36.8457  40.0276 H              1 <1>                0.0000
     22 H22         29.0263  34.8137  39.1504 H              1 <1>                0.0000
     23 H23         29.4439  35.2555  40.8240 H              1 <1>                0.0000
     24 H24         28.7331  37.5968  40.3700 H              1 <1>                0.0000
     25 H25         27.9139  36.4508  37.6617 H              1 <1>                0.0000
     26 H26         27.5217  38.0844  38.2515 H              1 <1>                0.0000
     27 H27         29.9033  38.6575  38.3861 H              1 <1>                0.0000
     28 H28         29.5516  38.0372  36.7525 H              1 <1>                0.0000
     29 H29         26.7886  35.3283  39.8252 H              1 <1>                0.0000
     30 H30         25.9193  37.3685  38.7160 H              1 <1>                0.0000
     31 H31         24.9610  36.9700  40.1620 H              1 <1>                0.0000
     32 H32         26.1559  38.2879  40.2216 H              1 <1>                0.0000
     33 H33         26.4558  35.4526  42.0094 H              1 <1>                0.0000
     34 H34         27.9779  36.0833  42.0249 H              1 <1>                0.0000
     35 H35         26.6709  37.0836  42.1005 H              1 <1>                0.0000
@<TRIPOS>BOND
    1    1    2 1     
    2    1   15 1     
    3    1   16 1     
    4    1   17 1     
    5    2    3 1     
    6    2   18 1     
    7    2   19 1     
    8    3    4 1     
    9    4    5 2     
   10    4    6 am    
   11    6    7 1     
   12    6   11 1     
   13    7    8 1     
   14    7   20 1     
   15    7   21 1     
   16    8    9 1     
   17    8   22 1     
   18    8   23 1     
   19    9   10 1     
   20    9   12 1     
   21    9   24 1     
   22   10   11 1     
   23   10   25 1     
   24   10   26 1     
   25   11   27 1     
   26   11   28 1     
   27   12   13 1     
   28   12   14 1     
   29   12   29 1     
   30   13   30 1     
   31   13   31 1     
   32   13   32 1     
   33   14   33 1     
   34   14   34 1     
   35   14   35 1     
@<TRIPOS>SUBSTRUCTURE
      1 ****           1
@<TRIPOS>SET
DONOR_HYDROGENS      STATIC     ATOMS    <user>   **** ""
3 33 34 35
ATOM$RED        STATIC     ATOMS    COLORGROUP SYSTEM
3 33 34 35
@<TRIPOS>COMMENT
> <Gold.Version>
2022.2.0

> <Gold.Id.Protein>
1qkm|1qkm_protein|mol2

> <Gold.Protein.RotatedTorsions>
[  496  491  490  487 ] final   79.33 input  -89.99 | X-H torsion

> <Gold.Protein.ActiveResidues>
 MET295  LEU298  THR299  LEU301  ALA302  GLU305  TRP335  MET336  LEU339  MET340 
 GLY342  LEU343  ARG346  PHE356  ILE373  ILE376  PHE377  LEU380  LYS471  GLY472 
 MET473  HIS475  LEU476  LEU477  ASN478  MET479  VAL484  VAL487 

> <Gold.Protein.RotatedAtoms>
   36.7217   33.1057   42.1428 H   0  0  0  0  0  0  0  0  0  0  0  0  # atno 496  bound_to 491 

> <Gold.Score>
     Score     S(PLP)   S(hbond)     S(cho)   S(metal)  DE(clash)   DE(tors)     intcor
     44.83     -41.09       1.44       0.00       0.00       0.01       0.29       0.00

> <Gold.PLP.Fitness>
44.8258

> <Gold.PLP.PLP>
-41.0893

> <Gold.PLP.part.hbond>
-1.0000

> <Gold.PLP.part.metal>
0.0000

> <Gold.PLP.part.buried>
-1.4140

> <Gold.PLP.part.nonpolar>
-38.2827

> <Gold.PLP.part.repulsive>
0.0821

> <Gold.PLP.ligand.clash>
0.0064

> <Gold.PLP.ligand.torsion>
0.2887

> <Gold.PLP.Chemscore.Hbond>
1.4400

> <Gold.PLP.Chemscore.CHOScore>
0.0000

> <Gold.PLP.Chemscore.Metal>
0.0000

> <Gold.Chemscore.Hbonds>
donor molecule, donor type, donor heavy atom, donor atom, acceptor molecule, acceptor atom, score
      L1  H    14    33       P1   582  1.44

> <Gold.PLP.Chemscore.Internal.Correction>
0.0004

