#       Name:                EN300-154894_i001
#       Creating user name   aseyller
#       Creation time:       Sat Apr 22 07:01:12 2023


#       File generated by GOLD software.
#

@<TRIPOS>MOLECULE
EN300-154894_i001|amine_3|mol2|3853|dock6
    35    35     1
SMALL
USER_CHARGES


@<TRIPOS>ATOM
      1 C1          33.1345  36.5050  35.0699 C.3            1 <1>                0.0000
      2 C2          32.4760  35.4997  36.0169 C.3            1 <1>                0.0000
      3 O3          31.4093  36.1548  36.7526 O.3            1 <1>                0.0000
      4 C4          31.2498  35.8019  38.0420 C.2            1 <1>                0.0000
      5 O5          31.9656  34.9508  38.5319 O.2            1 <1>                0.0000
      6 N6          30.2965  36.3926  38.7895 N.am           1 <1>                0.0000
      7 C7          30.1105  36.0181  40.1980 C.3            1 <1>                0.0000
      8 C8          28.6431  35.6363  40.4169 C.3            1 <1>                0.0000
      9 C9          27.7461  36.7841  39.9480 C.3            1 <1>                0.0000
     10 C10         27.9642  37.0260  38.4526 C.3            1 <1>                0.0000
     11 C11         29.4275  37.4276  38.2130 C.3            1 <1>                0.0000
     12 C12         26.2809  36.4204  40.1971 C.3            1 <1>                0.0000
     13 C13         25.3789  37.3540  39.3873 C.3            1 <1>                0.0000
     14 N14         25.9769  36.5645  41.6271 N.4            1 <1>                1.0000
     15 H15         33.9353  36.0131  34.5177 H              1 <1>                0.0000
     16 H16         32.3908  36.8856  34.3698 H              1 <1>                0.0000
     17 H17         33.5465  37.3322  35.6477 H              1 <1>                0.0000
     18 H18         32.0640  34.6723  35.4391 H              1 <1>                0.0000
     19 H19         33.2197  35.1190  36.7170 H              1 <1>                0.0000
     20 H20         30.7490  35.1678  40.4374 H              1 <1>                0.0000
     21 H21         30.3677  36.8624  40.8375 H              1 <1>                0.0000
     22 H22         28.4120  34.7372  39.8457 H              1 <1>                0.0000
     23 H23         28.4701  35.4492  41.4768 H              1 <1>                0.0000
     24 H24         27.9946  37.6891  40.5023 H              1 <1>                0.0000
     25 H25         27.7394  36.1137  37.8999 H              1 <1>                0.0000
     26 H26         27.3080  37.8279  38.1143 H              1 <1>                0.0000
     27 H27         29.6261  38.3868  38.6908 H              1 <1>                0.0000
     28 H28         29.6144  37.5049  37.1419 H              1 <1>                0.0000
     29 H29         26.1054  35.3893  39.8904 H              1 <1>                0.0000
     30 H30         25.6045  37.2470  38.3263 H              1 <1>                0.0000
     31 H31         24.3352  37.0949  39.5648 H              1 <1>                0.0000
     32 H32         25.5545  38.3851  39.6939 H              1 <1>                0.0000
     33 H33         26.0775  35.6706  42.0840 H              1 <1>                0.0000
     34 H34         26.6146  37.2277  42.0413 H              1 <1>                0.0000
     35 H35         25.0298  36.8942  41.7379 H              1 <1>                0.0000
@<TRIPOS>BOND
    1    1    2 1     
    2    1   15 1     
    3    1   16 1     
    4    1   17 1     
    5    2    3 1     
    6    2   18 1     
    7    2   19 1     
    8    3    4 1     
    9    4    5 2     
   10    4    6 am    
   11    6    7 1     
   12    6   11 1     
   13    7    8 1     
   14    7   20 1     
   15    7   21 1     
   16    8    9 1     
   17    8   22 1     
   18    8   23 1     
   19    9   10 1     
   20    9   12 1     
   21    9   24 1     
   22   10   11 1     
   23   10   25 1     
   24   10   26 1     
   25   11   27 1     
   26   11   28 1     
   27   12   13 1     
   28   12   14 1     
   29   12   29 1     
   30   13   30 1     
   31   13   31 1     
   32   13   32 1     
   33   14   33 1     
   34   14   34 1     
   35   14   35 1     
@<TRIPOS>SUBSTRUCTURE
      1 ****           1
@<TRIPOS>SET
DONOR_HYDROGENS      STATIC     ATOMS    <user>   **** ""
3 33 34 35
ATOM$RED        STATIC     ATOMS    COLORGROUP SYSTEM
3 33 34 35
@<TRIPOS>COMMENT
> <Gold.Version>
2022.2.0

> <Gold.Id.Protein>
1qkm|1qkm_protein|mol2

> <Gold.Protein.RotatedTorsions>
[  496  491  490  487 ] final  123.41 input  -89.99 | X-H torsion

> <Gold.Protein.ActiveResidues>
 MET295  LEU298  THR299  LEU301  ALA302  GLU305  TRP335  MET336  LEU339  MET340 
 GLY342  LEU343  ARG346  PHE356  ILE373  ILE376  PHE377  LEU380  LYS471  GLY472 
 MET473  HIS475  LEU476  LEU477  ASN478  MET479  VAL484  VAL487 

> <Gold.Protein.RotatedAtoms>
   37.1063   32.9497   41.5694 H   0  0  0  0  0  0  0  0  0  0  0  0  # atno 496  bound_to 491 

> <Gold.Score>
     Score     S(PLP)   S(hbond)     S(cho)   S(metal)  DE(clash)   DE(tors)     intcor
     47.39     -42.42       2.00       0.00       0.00       0.00       0.51       0.00

> <Gold.PLP.Fitness>
47.3906

> <Gold.PLP.PLP>
-42.4158

> <Gold.PLP.part.hbond>
-1.0000

> <Gold.PLP.part.metal>
0.0000

> <Gold.PLP.part.buried>
-0.7780

> <Gold.PLP.part.nonpolar>
-41.8057

> <Gold.PLP.part.repulsive>
0.1608

> <Gold.PLP.ligand.clash>
0.0000

> <Gold.PLP.ligand.torsion>
0.5132

> <Gold.PLP.Chemscore.Hbond>
2.0000

> <Gold.PLP.Chemscore.CHOScore>
0.0000

> <Gold.PLP.Chemscore.Metal>
0.0000

> <Gold.Chemscore.Hbonds>
donor molecule, donor type, donor heavy atom, donor atom, acceptor molecule, acceptor atom, score
      L1  H    14    33       P1   582  2.00

> <Gold.PLP.Chemscore.Internal.Correction>
0.0012

