#       Name:                EN300-154894_i001
#       Creating user name   aseyller
#       Creation time:       Sat Apr 22 07:01:26 2023


#       File generated by GOLD software.
#

@<TRIPOS>MOLECULE
EN300-154894_i001|amine_3|mol2|3853|dock20
    35    35     1
SMALL
USER_CHARGES


@<TRIPOS>ATOM
      1 C1          32.0185  37.9080  34.3279 C.3            1 <1>                0.0000
      2 C2          31.9897  38.8537  35.5302 C.3            1 <1>                0.0000
      3 O3          31.3412  38.1942  36.6495 O.3            1 <1>                0.0000
      4 C4          29.9951  38.1709  36.6487 C.2            1 <1>                0.0000
      5 O5          29.3744  38.9429  35.9449 O.2            1 <1>                0.0000
      6 N6          29.3359  37.2912  37.4285 N.am           1 <1>                0.0000
      7 C7          27.8671  37.2537  37.4385 C.3            1 <1>                0.0000
      8 C8          27.3805  37.3812  38.8855 C.3            1 <1>                0.0000
      9 C9          28.0427  36.2975  39.7395 C.3            1 <1>                0.0000
     10 C10         29.5610  36.4888  39.7220 C.3            1 <1>                0.0000
     11 C11         30.0724  36.3474  38.2803 C.3            1 <1>                0.0000
     12 C12         27.5326  36.4000  41.1784 C.3            1 <1>                0.0000
     13 C13         28.4631  35.6163  42.1063 C.3            1 <1>                0.0000
     14 N14         26.1766  35.8407  41.2582 N.4            1 <1>                1.0000
     15 H15         32.5054  38.4032  33.4877 H              1 <1>                0.0000
     16 H16         32.5721  37.0059  34.5884 H              1 <1>                0.0000
     17 H17         30.9986  37.6412  34.0511 H              1 <1>                0.0000
     18 H18         33.0096  39.1206  35.8071 H              1 <1>                0.0000
     19 H19         31.4361  39.7559  35.2697 H              1 <1>                0.0000
     20 H20         27.4765  38.0818  36.8472 H              1 <1>                0.0000
     21 H21         27.5230  36.3082  37.0192 H              1 <1>                0.0000
     22 H22         27.6473  38.3641  39.2737 H              1 <1>                0.0000
     23 H23         26.2979  37.2584  38.9174 H              1 <1>                0.0000
     24 H24         27.7957  35.3156  39.3360 H              1 <1>                0.0000
     25 H25         29.8073  37.4802  40.1025 H              1 <1>                0.0000
     26 H26         30.0304  35.7310  40.3493 H              1 <1>                0.0000
     27 H27         29.9076  35.3277  37.9325 H              1 <1>                0.0000
     28 H28         31.1368  36.5799  38.2457 H              1 <1>                0.0000
     29 H29         27.5126  37.4463  41.4831 H              1 <1>                0.0000
     30 H30         29.4692  36.0313  42.0470 H              1 <1>                0.0000
     31 H31         28.0997  35.6893  43.1313 H              1 <1>                0.0000
     32 H32         28.4831  34.5700  41.8015 H              1 <1>                0.0000
     33 H33         25.9660  35.3462  40.4043 H              1 <1>                0.0000
     34 H34         26.1211  35.2034  42.0384 H              1 <1>                0.0000
     35 H35         25.5114  36.5884  41.3867 H              1 <1>                0.0000
@<TRIPOS>BOND
    1    1    2 1     
    2    1   15 1     
    3    1   16 1     
    4    1   17 1     
    5    2    3 1     
    6    2   18 1     
    7    2   19 1     
    8    3    4 1     
    9    4    5 2     
   10    4    6 am    
   11    6    7 1     
   12    6   11 1     
   13    7    8 1     
   14    7   20 1     
   15    7   21 1     
   16    8    9 1     
   17    8   22 1     
   18    8   23 1     
   19    9   10 1     
   20    9   12 1     
   21    9   24 1     
   22   10   11 1     
   23   10   25 1     
   24   10   26 1     
   25   11   27 1     
   26   11   28 1     
   27   12   13 1     
   28   12   14 1     
   29   12   29 1     
   30   13   30 1     
   31   13   31 1     
   32   13   32 1     
   33   14   33 1     
   34   14   34 1     
   35   14   35 1     
@<TRIPOS>SUBSTRUCTURE
      1 ****           1
@<TRIPOS>SET
DONOR_HYDROGENS      STATIC     ATOMS    <user>   **** ""
3 33 34 35
ATOM$RED        STATIC     ATOMS    COLORGROUP SYSTEM
3 33 34 35
@<TRIPOS>COMMENT
> <Gold.Version>
2022.2.0

> <Gold.Id.Protein>
1qkm|1qkm_protein|mol2

> <Gold.Protein.RotatedTorsions>
[  496  491  490  487 ] final  100.85 input  -89.99 | X-H torsion

> <Gold.Protein.ActiveResidues>
 MET295  LEU298  THR299  LEU301  ALA302  GLU305  TRP335  MET336  LEU339  MET340 
 GLY342  LEU343  ARG346  PHE356  ILE373  ILE376  PHE377  LEU380  LYS471  GLY472 
 MET473  HIS475  LEU476  LEU477  ASN478  MET479  VAL484  VAL487 

> <Gold.Protein.RotatedAtoms>
   36.9193   32.9658   41.8869 H   0  0  0  0  0  0  0  0  0  0  0  0  # atno 496  bound_to 491 

> <Gold.Score>
     Score     S(PLP)   S(hbond)     S(cho)   S(metal)  DE(clash)   DE(tors)     intcor
     44.24     -39.42       2.00       0.00       0.00       0.00       0.59       0.00

> <Gold.PLP.Fitness>
44.2362

> <Gold.PLP.PLP>
-39.4224

> <Gold.PLP.part.hbond>
-1.0000

> <Gold.PLP.part.metal>
0.0000

> <Gold.PLP.part.buried>
-2.4366

> <Gold.PLP.part.nonpolar>
-36.2934

> <Gold.PLP.part.repulsive>
0.0433

> <Gold.PLP.ligand.clash>
0.0000

> <Gold.PLP.ligand.torsion>
0.5933

> <Gold.PLP.Chemscore.Hbond>
2.0000

> <Gold.PLP.Chemscore.CHOScore>
0.0000

> <Gold.PLP.Chemscore.Metal>
0.0000

> <Gold.Chemscore.Hbonds>
donor molecule, donor type, donor heavy atom, donor atom, acceptor molecule, acceptor atom, score
      L1  H    14    34       P1   582  2.00

> <Gold.PLP.Chemscore.Internal.Correction>
0.0004

