#       Name:                EN300-154894_i001
#       Creating user name   aseyller
#       Creation time:       Sat Apr 22 07:01:21 2023


#       File generated by GOLD software.
#

@<TRIPOS>MOLECULE
EN300-154894_i001|amine_3|mol2|3853|dock15
    35    35     1
SMALL
USER_CHARGES


@<TRIPOS>ATOM
      1 C1          26.0159  37.0074  40.8528 C.3            1 <1>                0.0000
      2 C2          26.7241  35.8034  40.2285 C.3            1 <1>                0.0000
      3 O3          28.0139  36.2177  39.7062 O.3            1 <1>                0.0000
      4 C4          28.0070  37.0995  38.6889 C.2            1 <1>                0.0000
      5 O5          26.9517  37.4764  38.2188 O.2            1 <1>                0.0000
      6 N6          29.1703  37.5644  38.1920 N.am           1 <1>                0.0000
      7 C7          29.1788  38.5270  37.0821 C.3            1 <1>                0.0000
      8 C8          30.0682  37.9795  35.9614 C.3            1 <1>                0.0000
      9 C9          31.4540  37.6589  36.5259 C.3            1 <1>                0.0000
     10 C10         31.3292  36.5868  37.6108 C.3            1 <1>                0.0000
     11 C11         30.4541  37.1228  38.7540 C.3            1 <1>                0.0000
     12 C12         32.3557  37.1442  35.4020 C.3            1 <1>                0.0000
     13 C13         32.3948  38.1715  34.2687 C.3            1 <1>                0.0000
     14 N14         31.8253  35.8727  34.8922 N.4            1 <1>                1.0000
     15 H15         25.0476  36.6963  41.2448 H              1 <1>                0.0000
     16 H16         26.6249  37.4068  41.6637 H              1 <1>                0.0000
     17 H17         25.8708  37.7768  40.0945 H              1 <1>                0.0000
     18 H18         26.8691  35.0339  40.9867 H              1 <1>                0.0000
     19 H19         26.1150  35.4040  39.4174 H              1 <1>                0.0000
     20 H20         28.1638  38.6638  36.7093 H              1 <1>                0.0000
     21 H21         29.5746  39.4815  37.4293 H              1 <1>                0.0000
     22 H22         29.6225  37.0721  35.5538 H              1 <1>                0.0000
     23 H23         30.1606  38.7261  35.1726 H              1 <1>                0.0000
     24 H24         31.8889  38.5614  36.9555 H              1 <1>                0.0000
     25 H25         30.8717  35.6924  37.1876 H              1 <1>                0.0000
     26 H26         32.3191  36.3420  37.9961 H              1 <1>                0.0000
     27 H27         30.9560  37.9617  39.2359 H              1 <1>                0.0000
     28 H28         30.2795  36.3311  39.4826 H              1 <1>                0.0000
     29 H29         33.3636  36.9893  35.7869 H              1 <1>                0.0000
     30 H30         32.7883  39.1150  34.6470 H              1 <1>                0.0000
     31 H31         33.0371  37.8048  33.4680 H              1 <1>                0.0000
     32 H32         31.3869  38.3265  33.8839 H              1 <1>                0.0000
     33 H33         30.8218  35.8610  34.9964 H              1 <1>                0.0000
     34 H34         32.0633  35.7761  33.9165 H              1 <1>                0.0000
     35 H35         32.2266  35.1078  35.4136 H              1 <1>                0.0000
@<TRIPOS>BOND
    1    1    2 1     
    2    1   15 1     
    3    1   16 1     
    4    1   17 1     
    5    2    3 1     
    6    2   18 1     
    7    2   19 1     
    8    3    4 1     
    9    4    5 2     
   10    4    6 am    
   11    6    7 1     
   12    6   11 1     
   13    7    8 1     
   14    7   20 1     
   15    7   21 1     
   16    8    9 1     
   17    8   22 1     
   18    8   23 1     
   19    9   10 1     
   20    9   12 1     
   21    9   24 1     
   22   10   11 1     
   23   10   25 1     
   24   10   26 1     
   25   11   27 1     
   26   11   28 1     
   27   12   13 1     
   28   12   14 1     
   29   12   29 1     
   30   13   30 1     
   31   13   31 1     
   32   13   32 1     
   33   14   33 1     
   34   14   34 1     
   35   14   35 1     
@<TRIPOS>SUBSTRUCTURE
      1 ****           1
@<TRIPOS>SET
DONOR_HYDROGENS      STATIC     ATOMS    <user>   **** ""
3 33 34 35
ATOM$RED        STATIC     ATOMS    COLORGROUP SYSTEM
3 33 34 35
@<TRIPOS>COMMENT
> <Gold.Version>
2022.2.0

> <Gold.Id.Protein>
1qkm|1qkm_protein|mol2

> <Gold.Protein.RotatedTorsions>
[  496  491  490  487 ] final -164.56 input  -89.99 | X-H torsion

> <Gold.Protein.ActiveResidues>
 MET295  LEU298  THR299  LEU301  ALA302  GLU305  TRP335  MET336  LEU339  MET340 
 GLY342  LEU343  ARG346  PHE356  ILE373  ILE376  PHE377  LEU380  LYS471  GLY472 
 MET473  HIS475  LEU476  LEU477  ASN478  MET479  VAL484  VAL487 

> <Gold.Protein.RotatedAtoms>
   37.2904   33.6924   40.7663 H   0  0  0  0  0  0  0  0  0  0  0  0  # atno 496  bound_to 491 

> <Gold.Score>
     Score     S(PLP)   S(hbond)     S(cho)   S(metal)  DE(clash)   DE(tors)     intcor
     45.90     -42.96       1.00       0.00       0.00       0.00       0.03       0.00

> <Gold.PLP.Fitness>
45.8955

> <Gold.PLP.PLP>
-42.9565

> <Gold.PLP.part.hbond>
-1.0000

> <Gold.PLP.part.metal>
0.0000

> <Gold.PLP.part.buried>
-4.3836

> <Gold.PLP.part.nonpolar>
-37.6015

> <Gold.PLP.part.repulsive>
0.0738

> <Gold.PLP.ligand.clash>
0.0000

> <Gold.PLP.ligand.torsion>
0.0311

> <Gold.PLP.Chemscore.Hbond>
1.0000

> <Gold.PLP.Chemscore.CHOScore>
0.0000

> <Gold.PLP.Chemscore.Metal>
0.0000

> <Gold.Chemscore.Hbonds>
donor molecule, donor type, donor heavy atom, donor atom, acceptor molecule, acceptor atom, score
      L1  H    14    34       P1  3187  1.00

> <Gold.PLP.Chemscore.Internal.Correction>
0.0011

