#       Name:                EN300-154894_i001
#       Creating user name   aseyller
#       Creation time:       Sat Apr 22 07:01:10 2023


#       File generated by GOLD software.
#

@<TRIPOS>MOLECULE
EN300-154894_i001|amine_3|mol2|3853|dock3
    35    35     1
SMALL
USER_CHARGES


@<TRIPOS>ATOM
      1 C1          31.2267  38.5023  35.2664 C.3            1 <1>                0.0000
      2 C2          31.2776  37.9057  36.6744 C.3            1 <1>                0.0000
      3 O3          29.9260  37.6708  37.1498 O.3            1 <1>                0.0000
      4 C4          29.7627  36.7081  38.0766 C.2            1 <1>                0.0000
      5 O5          30.7330  36.1581  38.5589 O.2            1 <1>                0.0000
      6 N6          28.5230  36.3543  38.4698 N.am           1 <1>                0.0000
      7 C7          27.3400  37.0102  37.8960 C.3            1 <1>                0.0000
      8 C8          26.4708  37.5459  39.0381 C.3            1 <1>                0.0000
      9 C9          26.1494  36.4059  40.0072 C.3            1 <1>                0.0000
     10 C10         27.4486  35.8601  40.6042 C.3            1 <1>                0.0000
     11 C11         28.3286  35.3013  39.4758 C.3            1 <1>                0.0000
     12 C12         25.2526  36.9297  41.1308 C.3            1 <1>                0.0000
     13 C13         26.1016  37.7015  42.1430 C.3            1 <1>                0.0000
     14 N14         24.5977  35.7989  41.8020 N.4            1 <1>                1.0000
     15 H15         32.2414  38.6787  34.9096 H              1 <1>                0.0000
     16 H16         30.7211  37.8077  34.5956 H              1 <1>                0.0000
     17 H17         30.6811  39.4456  35.2912 H              1 <1>                0.0000
     18 H18         31.8233  36.9624  36.6497 H              1 <1>                0.0000
     19 H19         31.7832  38.6004  37.3453 H              1 <1>                0.0000
     20 H20         27.6537  37.8357  37.2573 H              1 <1>                0.0000
     21 H21         26.7701  36.2886  37.3106 H              1 <1>                0.0000
     22 H22         27.0093  38.3322  39.5670 H              1 <1>                0.0000
     23 H23         25.5437  37.9496  38.6311 H              1 <1>                0.0000
     24 H24         25.6327  35.6091  39.4721 H              1 <1>                0.0000
     25 H25         27.9778  36.6623  41.1185 H              1 <1>                0.0000
     26 H26         27.2175  35.0640  41.3119 H              1 <1>                0.0000
     27 H27         27.8377  34.4407  39.0216 H              1 <1>                0.0000
     28 H28         29.2953  35.0017  39.8807 H              1 <1>                0.0000
     29 H29         24.4950  37.5920  40.7121 H              1 <1>                0.0000
     30 H30         26.5876  38.5404  41.6449 H              1 <1>                0.0000
     31 H31         25.4628  38.0745  42.9435 H              1 <1>                0.0000
     32 H32         26.8593  37.0391  42.5616 H              1 <1>                0.0000
     33 H33         24.1019  35.2445  41.1202 H              1 <1>                0.0000
     34 H34         25.2946  35.2285  42.2569 H              1 <1>                0.0000
     35 H35         23.9469  36.1473  42.4898 H              1 <1>                0.0000
@<TRIPOS>BOND
    1    1    2 1     
    2    1   15 1     
    3    1   16 1     
    4    1   17 1     
    5    2    3 1     
    6    2   18 1     
    7    2   19 1     
    8    3    4 1     
    9    4    5 2     
   10    4    6 am    
   11    6    7 1     
   12    6   11 1     
   13    7    8 1     
   14    7   20 1     
   15    7   21 1     
   16    8    9 1     
   17    8   22 1     
   18    8   23 1     
   19    9   10 1     
   20    9   12 1     
   21    9   24 1     
   22   10   11 1     
   23   10   25 1     
   24   10   26 1     
   25   11   27 1     
   26   11   28 1     
   27   12   13 1     
   28   12   14 1     
   29   12   29 1     
   30   13   30 1     
   31   13   31 1     
   32   13   32 1     
   33   14   33 1     
   34   14   34 1     
   35   14   35 1     
@<TRIPOS>SUBSTRUCTURE
      1 ****           1
@<TRIPOS>SET
DONOR_HYDROGENS      STATIC     ATOMS    <user>   **** ""
3 33 34 35
ATOM$RED        STATIC     ATOMS    COLORGROUP SYSTEM
3 33 34 35
@<TRIPOS>COMMENT
> <Gold.Version>
2022.2.0

> <Gold.Id.Protein>
1qkm|1qkm_protein|mol2

> <Gold.Protein.RotatedTorsions>
[  496  491  490  487 ] final   79.35 input  -89.99 | X-H torsion

> <Gold.Protein.ActiveResidues>
 MET295  LEU298  THR299  LEU301  ALA302  GLU305  TRP335  MET336  LEU339  MET340 
 GLY342  LEU343  ARG346  PHE356  ILE373  ILE376  PHE377  LEU380  LYS471  GLY472 
 MET473  HIS475  LEU476  LEU477  ASN478  MET479  VAL484  VAL487 

> <Gold.Protein.RotatedAtoms>
   36.7219   33.1055   42.1425 H   0  0  0  0  0  0  0  0  0  0  0  0  # atno 496  bound_to 491 

> <Gold.Score>
     Score     S(PLP)   S(hbond)     S(cho)   S(metal)  DE(clash)   DE(tors)     intcor
     50.08     -44.18       2.29       0.00       0.00       0.00       0.49       0.01

> <Gold.PLP.Fitness>
50.0817

> <Gold.PLP.PLP>
-44.1792

> <Gold.PLP.part.hbond>
-2.6832

> <Gold.PLP.part.metal>
0.0000

> <Gold.PLP.part.buried>
-1.8778

> <Gold.PLP.part.nonpolar>
-39.8830

> <Gold.PLP.part.repulsive>
1.1874

> <Gold.PLP.ligand.clash>
0.0000

> <Gold.PLP.ligand.torsion>
0.4941

> <Gold.PLP.Chemscore.Hbond>
2.2948

> <Gold.PLP.Chemscore.CHOScore>
0.0000

> <Gold.PLP.Chemscore.Metal>
0.0000

> <Gold.Chemscore.Hbonds>
donor molecule, donor type, donor heavy atom, donor atom, acceptor molecule, acceptor atom, score
      L1  H    14    33       P1  1131  0.29
      L1  H    14    34       P1   582  2.00

> <Gold.PLP.Chemscore.Internal.Correction>
0.0061

