#       Name:                EN300-154894_i001
#       Creating user name   aseyller
#       Creation time:       Sat Apr 22 07:01:23 2023


#       File generated by GOLD software.
#

@<TRIPOS>MOLECULE
EN300-154894_i001|amine_3|mol2|3853|dock17
    35    35     1
SMALL
USER_CHARGES


@<TRIPOS>ATOM
      1 C1          30.4038  40.5968  36.1022 C.3            1 <1>                0.0000
      2 C2          30.5216  39.0979  36.3853 C.3            1 <1>                0.0000
      3 O3          29.2397  38.5888  36.8391 O.3            1 <1>                0.0000
      4 C4          29.2578  37.4786  37.6005 C.2            1 <1>                0.0000
      5 O5          30.3136  36.9334  37.8549 O.2            1 <1>                0.0000
      6 N6          28.1049  36.9718  38.0807 N.am           1 <1>                0.0000
      7 C7          26.8205  37.6197  37.7819 C.3            1 <1>                0.0000
      8 C8          26.0887  37.8946  39.0993 C.3            1 <1>                0.0000
      9 C9          25.9658  36.5910  39.8916 C.3            1 <1>                0.0000
     10 C10         27.3623  36.0565  40.2173 C.3            1 <1>                0.0000
     11 C11         28.1080  35.7576  38.9079 C.3            1 <1>                0.0000
     12 C12         25.2048  36.8550  41.1925 C.3            1 <1>                0.0000
     13 C13         26.1014  37.6316  42.1590 C.3            1 <1>                0.0000
     14 N14         24.8196  35.5755  41.8027 N.4            1 <1>                1.0000
     15 H15         31.3661  40.9789  35.7615 H              1 <1>                0.0000
     16 H16         29.6529  40.7628  35.3298 H              1 <1>                0.0000
     17 H17         30.1085  41.1165  37.0136 H              1 <1>                0.0000
     18 H18         30.8170  38.5781  35.4739 H              1 <1>                0.0000
     19 H19         31.2726  38.9319  37.1579 H              1 <1>                0.0000
     20 H20         26.9982  38.5597  37.2595 H              1 <1>                0.0000
     21 H21         26.2156  36.9614  37.1583 H              1 <1>                0.0000
     22 H22         26.6513  38.6233  39.6828 H              1 <1>                0.0000
     23 H23         25.0939  38.2869  38.8879 H              1 <1>                0.0000
     24 H24         25.4245  35.8547  39.2976 H              1 <1>                0.0000
     25 H25         27.9130  36.8026  40.7903 H              1 <1>                0.0000
     26 H26         27.2742  35.1406  40.8017 H              1 <1>                0.0000
     27 H27         27.6068  34.9472  38.3787 H              1 <1>                0.0000
     28 H28         29.1360  35.4710  39.1300 H              1 <1>                0.0000
     29 H29         24.3101  37.4393  40.9778 H              1 <1>                0.0000
     30 H30         26.3873  38.5810  41.7062 H              1 <1>                0.0000
     31 H31         25.5593  37.8197  43.0858 H              1 <1>                0.0000
     32 H32         26.9962  37.0474  42.3736 H              1 <1>                0.0000
     33 H33         25.4094  35.3923  42.6005 H              1 <1>                0.0000
     34 H34         23.8564  35.6212  42.0999 H              1 <1>                0.0000
     35 H35         24.9282  34.8344  41.1268 H              1 <1>                0.0000
@<TRIPOS>BOND
    1    1    2 1     
    2    1   15 1     
    3    1   16 1     
    4    1   17 1     
    5    2    3 1     
    6    2   18 1     
    7    2   19 1     
    8    3    4 1     
    9    4    5 2     
   10    4    6 am    
   11    6    7 1     
   12    6   11 1     
   13    7    8 1     
   14    7   20 1     
   15    7   21 1     
   16    8    9 1     
   17    8   22 1     
   18    8   23 1     
   19    9   10 1     
   20    9   12 1     
   21    9   24 1     
   22   10   11 1     
   23   10   25 1     
   24   10   26 1     
   25   11   27 1     
   26   11   28 1     
   27   12   13 1     
   28   12   14 1     
   29   12   29 1     
   30   13   30 1     
   31   13   31 1     
   32   13   32 1     
   33   14   33 1     
   34   14   34 1     
   35   14   35 1     
@<TRIPOS>SUBSTRUCTURE
      1 ****           1
@<TRIPOS>SET
DONOR_HYDROGENS      STATIC     ATOMS    <user>   **** ""
3 33 34 35
ATOM$RED        STATIC     ATOMS    COLORGROUP SYSTEM
3 33 34 35
@<TRIPOS>COMMENT
> <Gold.Version>
2022.2.0

> <Gold.Id.Protein>
1qkm|1qkm_protein|mol2

> <Gold.Protein.RotatedTorsions>
[  496  491  490  487 ] final   85.61 input  -89.99 | X-H torsion

> <Gold.Protein.ActiveResidues>
 MET295  LEU298  THR299  LEU301  ALA302  GLU305  TRP335  MET336  LEU339  MET340 
 GLY342  LEU343  ARG346  PHE356  ILE373  ILE376  PHE377  LEU380  LYS471  GLY472 
 MET473  HIS475  LEU476  LEU477  ASN478  MET479  VAL484  VAL487 

> <Gold.Protein.RotatedAtoms>
   36.7797   33.0531   42.0752 H   0  0  0  0  0  0  0  0  0  0  0  0  # atno 496  bound_to 491 

> <Gold.Score>
     Score     S(PLP)   S(hbond)     S(cho)   S(metal)  DE(clash)   DE(tors)     intcor
     47.32     -41.93       2.00       0.00       0.00       0.00       0.30       0.00

> <Gold.PLP.Fitness>
47.3238

> <Gold.PLP.PLP>
-41.9267

> <Gold.PLP.part.hbond>
-2.7825

> <Gold.PLP.part.metal>
0.0000

> <Gold.PLP.part.buried>
-0.0451

> <Gold.PLP.part.nonpolar>
-39.4341

> <Gold.PLP.part.repulsive>
0.1550

> <Gold.PLP.ligand.clash>
0.0000

> <Gold.PLP.ligand.torsion>
0.3016

> <Gold.PLP.Chemscore.Hbond>
2.0000

> <Gold.PLP.Chemscore.CHOScore>
0.0000

> <Gold.PLP.Chemscore.Metal>
0.0000

> <Gold.Chemscore.Hbonds>
donor molecule, donor type, donor heavy atom, donor atom, acceptor molecule, acceptor atom, score
      L1  H    14    33       P1   582  2.00

> <Gold.PLP.Chemscore.Internal.Correction>
0.0004

