#       Name:                EN300-154894_i001
#       Creating user name   aseyller
#       Creation time:       Sat Apr 22 07:01:08 2023


#       File generated by GOLD software.
#

@<TRIPOS>MOLECULE
EN300-154894_i001|amine_3|mol2|3853|dock1
    35    35     1
SMALL
USER_CHARGES


@<TRIPOS>ATOM
      1 C1          32.9596  37.2133  34.9381 C.3            1 <1>                0.0000
      2 C2          32.4265  35.8870  35.4837 C.3            1 <1>                0.0000
      3 O3          31.7430  36.1213  36.7431 O.3            1 <1>                0.0000
      4 C4          30.6124  36.8509  36.6985 C.2            1 <1>                0.0000
      5 O5          30.2102  37.2839  35.6367 O.2            1 <1>                0.0000
      6 N6          29.9267  37.1011  37.8315 N.am           1 <1>                0.0000
      7 C7          30.4002  36.5844  39.1228 C.3            1 <1>                0.0000
      8 C8          29.2633  35.8019  39.7875 C.3            1 <1>                0.0000
      9 C9          28.0236  36.6940  39.8840 C.3            1 <1>                0.0000
     10 C10         27.5738  37.0989  38.4783 C.3            1 <1>                0.0000
     11 C11         28.6945  37.9009  37.7996 C.3            1 <1>                0.0000
     12 C12         26.8966  35.9271  40.5788 C.3            1 <1>                0.0000
     13 C13         25.7620  36.8927  40.9272 C.3            1 <1>                0.0000
     14 N14         27.4099  35.3103  41.8092 N.4            1 <1>                1.0000
     15 H15         33.4727  37.0373  33.9927 H              1 <1>                0.0000
     16 H16         32.1288  37.9005  34.7783 H              1 <1>                0.0000
     17 H17         33.6569  37.6468  35.6549 H              1 <1>                0.0000
     18 H18         31.7291  35.4533  34.7669 H              1 <1>                0.0000
     19 H19         33.2574  35.1996  35.6436 H              1 <1>                0.0000
     20 H20         31.2527  35.9246  38.9619 H              1 <1>                0.0000
     21 H21         30.6947  37.4159  39.7632 H              1 <1>                0.0000
     22 H22         29.0313  34.9198  39.1907 H              1 <1>                0.0000
     23 H23         29.5692  35.4948  40.7877 H              1 <1>                0.0000
     24 H24         28.2632  37.5877  40.4601 H              1 <1>                0.0000
     25 H25         27.3576  36.2045  37.8938 H              1 <1>                0.0000
     26 H26         26.6772  37.7149  38.5466 H              1 <1>                0.0000
     27 H27         28.8474  38.8388  38.3332 H              1 <1>                0.0000
     28 H28         28.4210  38.1072  36.7648 H              1 <1>                0.0000
     29 H29         26.5210  35.1506  39.9124 H              1 <1>                0.0000
     30 H30         25.3811  37.3503  40.0142 H              1 <1>                0.0000
     31 H31         24.9591  36.3463  41.4221 H              1 <1>                0.0000
     32 H32         26.1376  37.6692  41.5935 H              1 <1>                0.0000
     33 H33         26.6447  35.1389  42.4441 H              1 <1>                0.0000
     34 H34         27.8624  34.4370  41.5842 H              1 <1>                0.0000
     35 H35         28.0753  35.9315  42.2444 H              1 <1>                0.0000
@<TRIPOS>BOND
    1    1    2 1     
    2    1   15 1     
    3    1   16 1     
    4    1   17 1     
    5    2    3 1     
    6    2   18 1     
    7    2   19 1     
    8    3    4 1     
    9    4    5 2     
   10    4    6 am    
   11    6    7 1     
   12    6   11 1     
   13    7    8 1     
   14    7   20 1     
   15    7   21 1     
   16    8    9 1     
   17    8   22 1     
   18    8   23 1     
   19    9   10 1     
   20    9   12 1     
   21    9   24 1     
   22   10   11 1     
   23   10   25 1     
   24   10   26 1     
   25   11   27 1     
   26   11   28 1     
   27   12   13 1     
   28   12   14 1     
   29   12   29 1     
   30   13   30 1     
   31   13   31 1     
   32   13   32 1     
   33   14   33 1     
   34   14   34 1     
   35   14   35 1     
@<TRIPOS>SUBSTRUCTURE
      1 ****           1
@<TRIPOS>SET
DONOR_HYDROGENS      STATIC     ATOMS    <user>   **** ""
3 33 34 35
ATOM$RED        STATIC     ATOMS    COLORGROUP SYSTEM
3 33 34 35
@<TRIPOS>COMMENT
> <Gold.Version>
2022.2.0

> <Gold.Id.Protein>
1qkm|1qkm_protein|mol2

> <Gold.Protein.RotatedTorsions>
[  496  491  490  487 ] final   -5.61 input  -89.99 | X-H torsion

> <Gold.Protein.ActiveResidues>
 MET295  LEU298  THR299  LEU301  ALA302  GLU305  TRP335  MET336  LEU339  MET340 
 GLY342  LEU343  ARG346  PHE356  ILE373  ILE376  PHE377  LEU380  LYS471  GLY472 
 MET473  HIS475  LEU476  LEU477  ASN478  MET479  VAL484  VAL487 

> <Gold.Protein.RotatedAtoms>
   36.2592   34.2916   42.1866 H   0  0  0  0  0  0  0  0  0  0  0  0  # atno 496  bound_to 491 

> <Gold.Score>
     Score     S(PLP)   S(hbond)     S(cho)   S(metal)  DE(clash)   DE(tors)     intcor
     51.52     -45.78       2.00       0.00       0.00       0.00       0.14       0.01

> <Gold.PLP.Fitness>
51.5190

> <Gold.PLP.PLP>
-45.7837

> <Gold.PLP.part.hbond>
-0.8874

> <Gold.PLP.part.metal>
0.0000

> <Gold.PLP.part.buried>
-4.8057

> <Gold.PLP.part.nonpolar>
-39.8387

> <Gold.PLP.part.repulsive>
0.0853

> <Gold.PLP.ligand.clash>
0.0000

> <Gold.PLP.ligand.torsion>
0.1362

> <Gold.PLP.Chemscore.Hbond>
2.0000

> <Gold.PLP.Chemscore.CHOScore>
0.0000

> <Gold.PLP.Chemscore.Metal>
0.0000

> <Gold.Chemscore.Hbonds>
donor molecule, donor type, donor heavy atom, donor atom, acceptor molecule, acceptor atom, score
      L1  H    14    33       P1   582  2.00

> <Gold.PLP.Chemscore.Internal.Correction>
0.0078

