#       Name:                EN300-154894_i001
#       Creating user name   aseyller
#       Creation time:       Sat Apr 22 07:01:20 2023


#       File generated by GOLD software.
#

@<TRIPOS>MOLECULE
EN300-154894_i001|amine_3|mol2|3853|dock14
    35    35     1
SMALL
USER_CHARGES


@<TRIPOS>ATOM
      1 C1          30.8966  39.3459  35.1131 C.3            1 <1>                0.0000
      2 C2          30.8940  40.1668  36.4043 C.3            1 <1>                0.0000
      3 O3          30.2699  39.3976  37.4658 O.3            1 <1>                0.0000
      4 C4          29.0942  38.8062  37.1820 C.2            1 <1>                0.0000
      5 O5          28.3421  39.3078  36.3700 O.2            1 <1>                0.0000
      6 N6          28.7513  37.6577  37.7985 N.am           1 <1>                0.0000
      7 C7          27.4717  37.0006  37.4993 C.3            1 <1>                0.0000
      8 C8          26.7189  36.7662  38.8128 C.3            1 <1>                0.0000
      9 C9          27.6152  35.9867  39.7777 C.3            1 <1>                0.0000
     10 C10         28.8730  36.8041  40.0812 C.3            1 <1>                0.0000
     11 C11         29.6527  37.0359  38.7780 C.3            1 <1>                0.0000
     12 C12         26.8541  35.7207  41.0781 C.3            1 <1>                0.0000
     13 C13         26.1354  36.9976  41.5187 C.3            1 <1>                0.0000
     14 N14         27.7998  35.3056  42.1228 N.4            1 <1>                1.0000
     15 H15         31.3652  39.9235  34.3163 H              1 <1>                0.0000
     16 H16         31.4556  38.4234  35.2703 H              1 <1>                0.0000
     17 H17         29.8709  39.1060  34.8332 H              1 <1>                0.0000
     18 H18         31.9198  40.4068  36.6842 H              1 <1>                0.0000
     19 H19         30.3350  41.0894  36.2471 H              1 <1>                0.0000
     20 H20         26.8770  37.6391  36.8462 H              1 <1>                0.0000
     21 H21         27.6576  36.0450  37.0091 H              1 <1>                0.0000
     22 H22         26.4543  37.7259  39.2567 H              1 <1>                0.0000
     23 H23         25.8125  36.1937  38.6154 H              1 <1>                0.0000
     24 H24         27.8996  35.0378  39.3231 H              1 <1>                0.0000
     25 H25         28.5881  37.7634  40.5133 H              1 <1>                0.0000
     26 H26         29.4998  36.2587  40.7867 H              1 <1>                0.0000
     27 H27         30.0157  36.0823  38.3948 H              1 <1>                0.0000
     28 H28         30.4958  37.6997  38.9698 H              1 <1>                0.0000
     29 H29         26.1222  34.9295  40.9153 H              1 <1>                0.0000
     30 H30         25.4338  37.3055  40.7435 H              1 <1>                0.0000
     31 H31         25.5933  36.8080  42.4451 H              1 <1>                0.0000
     32 H32         26.8673  37.7887  41.6814 H              1 <1>                0.0000
     33 H33         27.2894  34.9362  42.9109 H              1 <1>                0.0000
     34 H34         28.4144  34.5942  41.7566 H              1 <1>                0.0000
     35 H35         28.3449  36.1015  42.4184 H              1 <1>                0.0000
@<TRIPOS>BOND
    1    1    2 1     
    2    1   15 1     
    3    1   16 1     
    4    1   17 1     
    5    2    3 1     
    6    2   18 1     
    7    2   19 1     
    8    3    4 1     
    9    4    5 2     
   10    4    6 am    
   11    6    7 1     
   12    6   11 1     
   13    7    8 1     
   14    7   20 1     
   15    7   21 1     
   16    8    9 1     
   17    8   22 1     
   18    8   23 1     
   19    9   10 1     
   20    9   12 1     
   21    9   24 1     
   22   10   11 1     
   23   10   25 1     
   24   10   26 1     
   25   11   27 1     
   26   11   28 1     
   27   12   13 1     
   28   12   14 1     
   29   12   29 1     
   30   13   30 1     
   31   13   31 1     
   32   13   32 1     
   33   14   33 1     
   34   14   34 1     
   35   14   35 1     
@<TRIPOS>SUBSTRUCTURE
      1 ****           1
@<TRIPOS>SET
DONOR_HYDROGENS      STATIC     ATOMS    <user>   **** ""
3 33 34 35
ATOM$RED        STATIC     ATOMS    COLORGROUP SYSTEM
3 33 34 35
@<TRIPOS>COMMENT
> <Gold.Version>
2022.2.0

> <Gold.Id.Protein>
1qkm|1qkm_protein|mol2

> <Gold.Protein.RotatedTorsions>
[  496  491  490  487 ] final  -82.06 input  -89.99 | X-H torsion

> <Gold.Protein.ActiveResidues>
 MET295  LEU298  THR299  LEU301  ALA302  GLU305  TRP335  MET336  LEU339  MET340 
 GLY342  LEU343  ARG346  PHE356  ILE373  ILE376  PHE377  LEU380  LYS471  GLY472 
 MET473  HIS475  LEU476  LEU477  ASN478  MET479  VAL484  VAL487 

> <Gold.Protein.RotatedAtoms>
   36.6846   34.6974   41.1782 H   0  0  0  0  0  0  0  0  0  0  0  0  # atno 496  bound_to 491 

> <Gold.Score>
     Score     S(PLP)   S(hbond)     S(cho)   S(metal)  DE(clash)   DE(tors)     intcor
     46.99     -42.25       2.00       0.00       0.00       0.00       0.63       0.00

> <Gold.PLP.Fitness>
46.9855

> <Gold.PLP.PLP>
-42.2497

> <Gold.PLP.part.hbond>
-0.9089

> <Gold.PLP.part.metal>
0.0000

> <Gold.PLP.part.buried>
-0.2292

> <Gold.PLP.part.nonpolar>
-42.4940

> <Gold.PLP.part.repulsive>
0.0810

> <Gold.PLP.ligand.clash>
0.0000

> <Gold.PLP.ligand.torsion>
0.6327

> <Gold.PLP.Chemscore.Hbond>
2.0000

> <Gold.PLP.Chemscore.CHOScore>
0.0000

> <Gold.PLP.Chemscore.Metal>
0.0000

> <Gold.Chemscore.Hbonds>
donor molecule, donor type, donor heavy atom, donor atom, acceptor molecule, acceptor atom, score
      L1  H    14    33       P1   582  2.00

> <Gold.PLP.Chemscore.Internal.Correction>
0.0011

