#       Name:                EN300-154894_i001
#       Creating user name   aseyller
#       Creation time:       Sat Apr 22 07:01:07 2023


#       File generated by GOLD software.
#

@<TRIPOS>MOLECULE
EN300-154894_i001
    35    35     1
SMALL
USER_CHARGES


@<TRIPOS>ATOM
      1 C1           5.2926   1.2794  -0.3454 C.3            1 <1>                0.0000
      2 C2           4.4946  -0.0259  -0.3645 C.3            1 <1>                0.0000
      3 O3           3.1341   0.2320   0.0722 O.3            1 <1>                0.0000
      4 C4           2.2952  -0.8202   0.1125 C.2            1 <1>                0.0000
      5 O5           2.6892  -1.9240  -0.2084 O.2            1 <1>                0.0000
      6 N6           1.0184  -0.6494   0.5089 N.am           1 <1>                0.0000
      7 C7           0.0911  -1.7880   0.5581 C.3            1 <1>                0.0000
      8 C8          -1.1611  -1.4394  -0.2526 C.3            1 <1>                0.0000
      9 C9          -1.7506  -0.1259   0.2663 C.3            1 <1>                0.0000
     10 C10         -0.7296   0.9998   0.0859 C.3            1 <1>                0.0000
     11 C11          0.5290   0.6779   0.9058 C.3            1 <1>                0.0000
     12 C12         -3.0211   0.2077  -0.5183 C.3            1 <1>                0.0000
     13 C13         -3.6106   1.5210   0.0002 C.3            1 <1>                0.0000
     14 N14         -4.0019  -0.8719  -0.3440 N.4            1 <1>                1.0000
     15 H15          6.3139   1.0857  -0.6732 H              1 <1>                0.0000
     16 H16          4.8260   2.0003  -1.0167 H              1 <1>                0.0000
     17 H17          5.3062   1.6820   0.6674 H              1 <1>                0.0000
     18 H18          4.4810  -0.4286  -1.3773 H              1 <1>                0.0000
     19 H19          4.9612  -0.7469   0.3069 H              1 <1>                0.0000
     20 H20          0.5704  -2.6683   0.1299 H              1 <1>                0.0000
     21 H21         -0.1874  -1.9879   1.5928 H              1 <1>                0.0000
     22 H22         -0.8948  -1.3286  -1.3037 H              1 <1>                0.0000
     23 H23         -1.8974  -2.2360  -0.1453 H              1 <1>                0.0000
     24 H24         -1.9938  -0.2296   1.3237 H              1 <1>                0.0000
     25 H25         -0.4674   1.0877  -0.9685 H              1 <1>                0.0000
     26 H26         -1.1587   1.9394   0.4340 H              1 <1>                0.0000
     27 H27          0.2838   0.6803   1.9678 H              1 <1>                0.0000
     28 H28          1.2972   1.4245   0.7043 H              1 <1>                0.0000
     29 H29         -2.7784   0.3109  -1.5759 H              1 <1>                0.0000
     30 H30         -2.8828   2.3220  -0.1291 H              1 <1>                0.0000
     31 H31         -4.5157   1.7586  -0.5587 H              1 <1>                0.0000
     32 H32         -3.8532   1.4178   1.0578 H              1 <1>                0.0000
     33 H33         -4.2265  -0.9674   0.6350 H              1 <1>                0.0000
     34 H34         -4.8397  -0.6519  -0.8614 H              1 <1>                0.0000
     35 H35         -3.6131  -1.7379  -0.6859 H              1 <1>                0.0000
@<TRIPOS>BOND
    1    1    2 1     
    2    1   15 1     
    3    1   16 1     
    4    1   17 1     
    5    2    3 1     
    6    2   18 1     
    7    2   19 1     
    8    3    4 1     
    9    4    5 2     
   10    4    6 am    
   11    6    7 1     
   12    6   11 1     
   13    7    8 1     
   14    7   20 1     
   15    7   21 1     
   16    8    9 1     
   17    8   22 1     
   18    8   23 1     
   19    9   10 1     
   20    9   12 1     
   21    9   24 1     
   22   10   11 1     
   23   10   25 1     
   24   10   26 1     
   25   11   27 1     
   26   11   28 1     
   27   12   13 1     
   28   12   14 1     
   29   12   29 1     
   30   13   30 1     
   31   13   31 1     
   32   13   32 1     
   33   14   33 1     
   34   14   34 1     
   35   14   35 1     
@<TRIPOS>SUBSTRUCTURE
      1 ****           1
@<TRIPOS>SET
DONOR_HYDROGENS      STATIC     ATOMS    <user>   **** ""
3 33 34 35
ATOM$RED        STATIC     ATOMS    COLORGROUP SYSTEM
3 33 34 35
