#       Name:                EN300-154894_i001
#       Creating user name   aseyller
#       Creation time:       Sat Apr 22 07:01:25 2023


#       File generated by GOLD software.
#

@<TRIPOS>MOLECULE
EN300-154894_i001|amine_3|mol2|3853|dock19
    35    35     1
SMALL
USER_CHARGES


@<TRIPOS>ATOM
      1 C1          33.3855  35.4685  36.6911 C.3            1 <1>                0.0000
      2 C2          32.4144  36.5160  36.1426 C.3            1 <1>                0.0000
      3 O3          31.5570  36.9894  37.2145 O.3            1 <1>                0.0000
      4 C4          30.2571  37.1785  36.9192 C.2            1 <1>                0.0000
      5 O5          29.8748  37.0812  35.7699 O.2            1 <1>                0.0000
      6 N6          29.3799  37.4757  37.8983 N.am           1 <1>                0.0000
      7 C7          29.8269  37.5967  39.2926 C.3            1 <1>                0.0000
      8 C8          28.9678  36.6782  40.1673 C.3            1 <1>                0.0000
      9 C9          27.4897  37.0098  39.9502 C.3            1 <1>                0.0000
     10 C10         27.1203  36.7658  38.4852 C.3            1 <1>                0.0000
     11 C11         27.9594  37.6909  37.5907 C.3            1 <1>                0.0000
     12 C12         26.6299  36.1177  40.8480 C.3            1 <1>                0.0000
     13 C13         25.2107  36.6848  40.9215 C.3            1 <1>                0.0000
     14 N14         27.2108  36.0754  42.1966 N.4            1 <1>                1.0000
     15 H15         34.0291  35.1131  35.8864 H              1 <1>                0.0000
     16 H16         33.9969  35.9152  37.4751 H              1 <1>                0.0000
     17 H17         32.8220  34.6310  37.1024 H              1 <1>                0.0000
     18 H18         32.9778  37.3535  35.7312 H              1 <1>                0.0000
     19 H19         31.8029  36.0693  35.3585 H              1 <1>                0.0000
     20 H20         30.8729  37.2997  39.3680 H              1 <1>                0.0000
     21 H21         29.7130  38.6287  39.6246 H              1 <1>                0.0000
     22 H22         29.1516  35.6392  39.8938 H              1 <1>                0.0000
     23 H23         29.2244  36.8298  41.2158 H              1 <1>                0.0000
     24 H24         27.3115  38.0556  40.2003 H              1 <1>                0.0000
     25 H25         27.3214  35.7259  38.2275 H              1 <1>                0.0000
     26 H26         26.0619  36.9797  38.3363 H              1 <1>                0.0000
     27 H27         27.6910  38.7292  37.7852 H              1 <1>                0.0000
     28 H28         27.7736  37.4533  36.5432 H              1 <1>                0.0000
     29 H29         26.5975  35.1097  40.4345 H              1 <1>                0.0000
     30 H30         24.7798  36.7162  39.9208 H              1 <1>                0.0000
     31 H31         24.5983  36.0493  41.5611 H              1 <1>                0.0000
     32 H32         25.2432  37.6928  41.3349 H              1 <1>                0.0000
     33 H33         28.0542  35.5218  42.1823 H              1 <1>                0.0000
     34 H34         27.4291  37.0131  42.4983 H              1 <1>                0.0000
     35 H35         26.5481  35.6622  42.8354 H              1 <1>                0.0000
@<TRIPOS>BOND
    1    1    2 1     
    2    1   15 1     
    3    1   16 1     
    4    1   17 1     
    5    2    3 1     
    6    2   18 1     
    7    2   19 1     
    8    3    4 1     
    9    4    5 2     
   10    4    6 am    
   11    6    7 1     
   12    6   11 1     
   13    7    8 1     
   14    7   20 1     
   15    7   21 1     
   16    8    9 1     
   17    8   22 1     
   18    8   23 1     
   19    9   10 1     
   20    9   12 1     
   21    9   24 1     
   22   10   11 1     
   23   10   25 1     
   24   10   26 1     
   25   11   27 1     
   26   11   28 1     
   27   12   13 1     
   28   12   14 1     
   29   12   29 1     
   30   13   30 1     
   31   13   31 1     
   32   13   32 1     
   33   14   33 1     
   34   14   34 1     
   35   14   35 1     
@<TRIPOS>SUBSTRUCTURE
      1 ****           1
@<TRIPOS>SET
DONOR_HYDROGENS      STATIC     ATOMS    <user>   **** ""
3 33 34 35
ATOM$RED        STATIC     ATOMS    COLORGROUP SYSTEM
3 33 34 35
@<TRIPOS>COMMENT
> <Gold.Version>
2022.2.0

> <Gold.Id.Protein>
1qkm|1qkm_protein|mol2

> <Gold.Protein.RotatedTorsions>
[  496  491  490  487 ] final -153.84 input  -89.99 | X-H torsion

> <Gold.Protein.ActiveResidues>
 MET295  LEU298  THR299  LEU301  ALA302  GLU305  TRP335  MET336  LEU339  MET340 
 GLY342  LEU343  ARG346  PHE356  ILE373  ILE376  PHE377  LEU380  LYS471  GLY472 
 MET473  HIS475  LEU476  LEU477  ASN478  MET479  VAL484  VAL487 

> <Gold.Protein.RotatedAtoms>
   37.2498   33.8598   40.7292 H   0  0  0  0  0  0  0  0  0  0  0  0  # atno 496  bound_to 491 

> <Gold.Score>
     Score     S(PLP)   S(hbond)     S(cho)   S(metal)  DE(clash)   DE(tors)     intcor
     46.29     -41.41       2.00       0.00       0.00       0.00       0.56       0.00

> <Gold.PLP.Fitness>
46.2899

> <Gold.PLP.PLP>
-41.4099

> <Gold.PLP.part.hbond>
-0.8165

> <Gold.PLP.part.metal>
0.0000

> <Gold.PLP.part.buried>
-2.1554

> <Gold.PLP.part.nonpolar>
-38.3690

> <Gold.PLP.part.repulsive>
0.0739

> <Gold.PLP.ligand.clash>
0.0000

> <Gold.PLP.ligand.torsion>
0.5602

> <Gold.PLP.Chemscore.Hbond>
2.0000

> <Gold.PLP.Chemscore.CHOScore>
0.0000

> <Gold.PLP.Chemscore.Metal>
0.0000

> <Gold.Chemscore.Hbonds>
donor molecule, donor type, donor heavy atom, donor atom, acceptor molecule, acceptor atom, score
      L1  H    14    35       P1   582  2.00

> <Gold.PLP.Chemscore.Internal.Correction>
0.0004

