#       Name:                EN300-154894_i001
#       Creating user name   aseyller
#       Creation time:       Sat Apr 22 07:01:22 2023


#       File generated by GOLD software.
#

@<TRIPOS>MOLECULE
EN300-154894_i001|amine_3|mol2|3853|dock16
    35    35     1
SMALL
USER_CHARGES


@<TRIPOS>ATOM
      1 C1          25.5013  37.6002  39.5055 C.3            1 <1>                0.0000
      2 C2          26.4679  36.4153  39.5572 C.3            1 <1>                0.0000
      3 O3          27.7860  36.8468  39.1272 O.3            1 <1>                0.0000
      4 C4          28.8043  35.9883  39.3233 C.2            1 <1>                0.0000
      5 O5          28.6153  34.9481  39.9223 O.2            1 <1>                0.0000
      6 N6          30.0335  36.2825  38.8551 N.am           1 <1>                0.0000
      7 C7          30.2777  37.5362  38.1288 C.3            1 <1>                0.0000
      8 C8          30.9316  37.2070  36.7832 C.3            1 <1>                0.0000
      9 C9          32.1867  36.3649  37.0229 C.3            1 <1>                0.0000
     10 C10         31.7988  35.0512  37.7055 C.3            1 <1>                0.0000
     11 C11         31.1560  35.3584  39.0665 C.3            1 <1>                0.0000
     12 C12         32.8617  36.0633  35.6833 C.3            1 <1>                0.0000
     13 C13         33.3020  37.3739  35.0277 C.3            1 <1>                0.0000
     14 N14         31.9130  35.3695  34.8022 N.4            1 <1>                1.0000
     15 H15         24.5119  37.2762  39.8283 H              1 <1>                0.0000
     16 H16         25.8587  38.3897  40.1665 H              1 <1>                0.0000
     17 H17         25.4448  37.9786  38.4849 H              1 <1>                0.0000
     18 H18         26.5245  36.0368  40.5778 H              1 <1>                0.0000
     19 H19         26.1105  35.6257  38.8961 H              1 <1>                0.0000
     20 H20         29.3317  38.0505  37.9594 H              1 <1>                0.0000
     21 H21         30.9428  38.1728  38.7123 H              1 <1>                0.0000
     22 H22         30.2301  36.6468  36.1651 H              1 <1>                0.0000
     23 H23         31.2057  38.1321  36.2760 H              1 <1>                0.0000
     24 H24         32.8773  36.9158  37.6613 H              1 <1>                0.0000
     25 H25         31.0891  34.5112  37.0787 H              1 <1>                0.0000
     26 H26         32.6901  34.4417  37.8547 H              1 <1>                0.0000
     27 H27         31.8945  35.8166  39.7243 H              1 <1>                0.0000
     28 H28         30.7882  34.4349  39.5137 H              1 <1>                0.0000
     29 H29         33.7329  35.4299  35.8499 H              1 <1>                0.0000
     30 H30         34.0058  37.8887  35.6815 H              1 <1>                0.0000
     31 H31         33.7827  37.1590  34.0733 H              1 <1>                0.0000
     32 H32         32.4307  38.0073  34.8611 H              1 <1>                0.0000
     33 H33         32.1722  35.5255  33.8396 H              1 <1>                0.0000
     34 H34         31.9324  34.3802  34.9996 H              1 <1>                0.0000
     35 H35         30.9829  35.7262  34.9621 H              1 <1>                0.0000
@<TRIPOS>BOND
    1    1    2 1     
    2    1   15 1     
    3    1   16 1     
    4    1   17 1     
    5    2    3 1     
    6    2   18 1     
    7    2   19 1     
    8    3    4 1     
    9    4    5 2     
   10    4    6 am    
   11    6    7 1     
   12    6   11 1     
   13    7    8 1     
   14    7   20 1     
   15    7   21 1     
   16    8    9 1     
   17    8   22 1     
   18    8   23 1     
   19    9   10 1     
   20    9   12 1     
   21    9   24 1     
   22   10   11 1     
   23   10   25 1     
   24   10   26 1     
   25   11   27 1     
   26   11   28 1     
   27   12   13 1     
   28   12   14 1     
   29   12   29 1     
   30   13   30 1     
   31   13   31 1     
   32   13   32 1     
   33   14   33 1     
   34   14   34 1     
   35   14   35 1     
@<TRIPOS>SUBSTRUCTURE
      1 ****           1
@<TRIPOS>SET
DONOR_HYDROGENS      STATIC     ATOMS    <user>   **** ""
3 33 34 35
ATOM$RED        STATIC     ATOMS    COLORGROUP SYSTEM
3 33 34 35
@<TRIPOS>COMMENT
> <Gold.Version>
2022.2.0

> <Gold.Id.Protein>
1qkm|1qkm_protein|mol2

> <Gold.Protein.RotatedTorsions>
[  496  491  490  487 ] final   30.31 input  -89.99 | X-H torsion

> <Gold.Protein.ActiveResidues>
 MET295  LEU298  THR299  LEU301  ALA302  GLU305  TRP335  MET336  LEU339  MET340 
 GLY342  LEU343  ARG346  PHE356  ILE373  ILE376  PHE377  LEU380  LYS471  GLY472 
 MET473  HIS475  LEU476  LEU477  ASN478  MET479  VAL484  VAL487 

> <Gold.Protein.RotatedAtoms>
   36.3479   33.7505   42.3810 H   0  0  0  0  0  0  0  0  0  0  0  0  # atno 496  bound_to 491 

> <Gold.Score>
     Score     S(PLP)   S(hbond)     S(cho)   S(metal)  DE(clash)   DE(tors)     intcor
     44.46     -41.65       0.98       0.00       0.00       0.00       0.06       0.00

> <Gold.PLP.Fitness>
44.4554

> <Gold.PLP.PLP>
-41.6469

> <Gold.PLP.part.hbond>
-1.0000

> <Gold.PLP.part.metal>
0.0000

> <Gold.PLP.part.buried>
-0.3272

> <Gold.PLP.part.nonpolar>
-40.7163

> <Gold.PLP.part.repulsive>
0.1488

> <Gold.PLP.ligand.clash>
0.0000

> <Gold.PLP.ligand.torsion>
0.0599

> <Gold.PLP.Chemscore.Hbond>
0.9760

> <Gold.PLP.Chemscore.CHOScore>
0.0000

> <Gold.PLP.Chemscore.Metal>
0.0000

> <Gold.Chemscore.Hbonds>
donor molecule, donor type, donor heavy atom, donor atom, acceptor molecule, acceptor atom, score
      L1  H    14    33       P1  3187  0.98

> <Gold.PLP.Chemscore.Internal.Correction>
0.0004

