#       Name:                EN300-154894_i001
#       Creating user name   aseyller
#       Creation time:       Sat Apr 22 07:01:18 2023


#       File generated by GOLD software.
#

@<TRIPOS>MOLECULE
EN300-154894_i001|amine_3|mol2|3853|dock12
    35    35     1
SMALL
USER_CHARGES


@<TRIPOS>ATOM
      1 C1          26.6606  36.6858  40.9591 C.3            1 <1>                0.0000
      2 C2          27.2868  35.5043  40.2155 C.3            1 <1>                0.0000
      3 O3          28.5376  35.9226  39.6082 O.3            1 <1>                0.0000
      4 C4          28.4689  36.8814  38.6656 C.2            1 <1>                0.0000
      5 O5          27.3912  37.3421  38.3450 O.2            1 <1>                0.0000
      6 N6          29.5955  37.3305  38.0777 N.am           1 <1>                0.0000
      7 C7          29.5366  38.3764  37.0476 C.3            1 <1>                0.0000
      8 C8          30.2694  37.8791  35.7975 C.3            1 <1>                0.0000
      9 C9          31.6885  37.4519  36.1791 C.3            1 <1>                0.0000
     10 C10         31.6233  36.3042  37.1894 C.3            1 <1>                0.0000
     11 C11         30.9065  36.7877  38.4592 C.3            1 <1>                0.0000
     12 C12         32.4348  36.9870  34.9269 C.3            1 <1>                0.0000
     13 C13         33.7411  36.3034  35.3362 C.3            1 <1>                0.0000
     14 N14         32.7346  38.1468  34.0766 N.4            1 <1>                1.0000
     15 H15         25.7217  36.3717  41.4150 H              1 <1>                0.0000
     16 H16         27.3442  37.0300  41.7352 H              1 <1>                0.0000
     17 H17         26.4701  37.4972  40.2568 H              1 <1>                0.0000
     18 H18         27.4773  34.6928  40.9178 H              1 <1>                0.0000
     19 H19         26.6033  35.1600  39.4392 H              1 <1>                0.0000
     20 H20         28.4963  38.5885  36.8013 H              1 <1>                0.0000
     21 H21         30.0185  39.2814  37.4178 H              1 <1>                0.0000
     22 H22         29.7340  37.0281  35.3765 H              1 <1>                0.0000
     23 H23         30.3166  38.6807  35.0604 H              1 <1>                0.0000
     24 H24         32.2152  38.2968  36.6227 H              1 <1>                0.0000
     25 H25         31.0752  35.4679  36.7551 H              1 <1>                0.0000
     26 H26         32.6342  35.9848  37.4429 H              1 <1>                0.0000
     27 H27         31.5020  37.5620  38.9426 H              1 <1>                0.0000
     28 H28         30.7688  35.9497  39.1425 H              1 <1>                0.0000
     29 H29         31.8135  36.2822  34.3744 H              1 <1>                0.0000
     30 H30         33.5186  35.4429  35.9671 H              1 <1>                0.0000
     31 H31         34.2727  35.9722  34.4442 H              1 <1>                0.0000
     32 H32         34.3623  37.0081  35.8888 H              1 <1>                0.0000
     33 H33         32.6603  38.9921  34.6224 H              1 <1>                0.0000
     34 H34         33.6716  38.0631  33.7119 H              1 <1>                0.0000
     35 H35         32.0778  38.1816  33.3116 H              1 <1>                0.0000
@<TRIPOS>BOND
    1    1    2 1     
    2    1   15 1     
    3    1   16 1     
    4    1   17 1     
    5    2    3 1     
    6    2   18 1     
    7    2   19 1     
    8    3    4 1     
    9    4    5 2     
   10    4    6 am    
   11    6    7 1     
   12    6   11 1     
   13    7    8 1     
   14    7   20 1     
   15    7   21 1     
   16    8    9 1     
   17    8   22 1     
   18    8   23 1     
   19    9   10 1     
   20    9   12 1     
   21    9   24 1     
   22   10   11 1     
   23   10   25 1     
   24   10   26 1     
   25   11   27 1     
   26   11   28 1     
   27   12   13 1     
   28   12   14 1     
   29   12   29 1     
   30   13   30 1     
   31   13   31 1     
   32   13   32 1     
   33   14   33 1     
   34   14   34 1     
   35   14   35 1     
@<TRIPOS>SUBSTRUCTURE
      1 ****           1
@<TRIPOS>SET
DONOR_HYDROGENS      STATIC     ATOMS    <user>   **** ""
3 33 34 35
ATOM$RED        STATIC     ATOMS    COLORGROUP SYSTEM
3 33 34 35
@<TRIPOS>COMMENT
> <Gold.Version>
2022.2.0

> <Gold.Id.Protein>
1qkm|1qkm_protein|mol2

> <Gold.Protein.RotatedTorsions>
[  496  491  490  487 ] final  -43.22 input  -89.99 | X-H torsion

> <Gold.Protein.ActiveResidues>
 MET295  LEU298  THR299  LEU301  ALA302  GLU305  TRP335  MET336  LEU339  MET340 
 GLY342  LEU343  ARG346  PHE356  ILE373  ILE376  PHE377  LEU380  LYS471  GLY472 
 MET473  HIS475  LEU476  LEU477  ASN478  MET479  VAL484  VAL487 

> <Gold.Protein.RotatedAtoms>
   36.3817   34.6702   41.7268 H   0  0  0  0  0  0  0  0  0  0  0  0  # atno 496  bound_to 491 

> <Gold.Score>
     Score     S(PLP)   S(hbond)     S(cho)   S(metal)  DE(clash)   DE(tors)     intcor
     44.72     -42.00       0.99       0.00       0.00       0.00       0.13       0.00

> <Gold.PLP.Fitness>
44.7159

> <Gold.PLP.PLP>
-41.9954

> <Gold.PLP.part.hbond>
-1.0000

> <Gold.PLP.part.metal>
0.0000

> <Gold.PLP.part.buried>
-4.7372

> <Gold.PLP.part.nonpolar>
-36.4718

> <Gold.PLP.part.repulsive>
0.0877

> <Gold.PLP.ligand.clash>
0.0000

> <Gold.PLP.ligand.torsion>
0.1271

> <Gold.PLP.Chemscore.Hbond>
0.9913

> <Gold.PLP.Chemscore.CHOScore>
0.0000

> <Gold.PLP.Chemscore.Metal>
0.0000

> <Gold.Chemscore.Hbonds>
donor molecule, donor type, donor heavy atom, donor atom, acceptor molecule, acceptor atom, score
      L1  H    14    34       P1  3229  0.99

> <Gold.PLP.Chemscore.Internal.Correction>
0.0011

