#       Name:                EN300-126376_i001
#       Creating user name   aseyller
#       Creation time:       Fri Apr 21 19:04:07 2023


#       File generated by GOLD software.
#

@<TRIPOS>MOLECULE
EN300-126376_i001|benzaldehydes|mol2|705|dock8
    21    21     1
SMALL
USER_CHARGES


@<TRIPOS>ATOM
      1 C1          31.5506  33.7523  38.4023 C.3            1 <1>                0.0000
      2 O2          30.6712  34.8229  38.8369 O.3            1 <1>                0.0000
      3 C3          31.0219  36.0741  38.5002 C.2            1 <1>                0.0000
      4 O4          32.0554  36.2729  37.9067 O.2            1 <1>                0.0000
      5 C5          30.1264  37.2309  38.8622 C.3            1 <1>                0.0000
      6 N6          28.8697  36.7209  39.4159 N.pl3          1 <1>                0.0000
      7 C7          28.7497  35.9632  40.5254 C.2            1 <1>                0.0000
      8 C8          27.4387  35.6817  40.7298 C.2            1 <1>                0.0000
      9 C9          26.7053  36.2866  39.7076 C.2            1 <1>                0.0000
     10 C10         27.6133  36.9407  38.8927 C.2            1 <1>                0.0000
     11 C11         27.3090  37.6883  37.7323 C.2            1 <1>                0.0000
     12 O12         28.1108  38.4913  37.2996 O.2            1 <1>                0.0000
     13 H13         31.1523  32.7954  38.7395 H              1 <1>                0.0000
     14 H14         31.6164  33.7553  37.3142 H              1 <1>                0.0000
     15 H15         32.5433  33.9026  38.8266 H              1 <1>                0.0000
     16 H16         30.6229  37.8564  39.6040 H              1 <1>                0.0000
     17 H17         29.9173  37.8214  37.9703 H              1 <1>                0.0000
     18 H18         29.5663  35.6335  41.1504 H              1 <1>                0.0000
     19 H19         27.0339  35.0931  41.5399 H              1 <1>                0.0000
     20 H20         25.6335  36.2538  39.5794 H              1 <1>                0.0000
     21 H21         26.3634  37.5455  37.2304 H              1 <1>                0.0000
@<TRIPOS>BOND
    1    1    2 1     
    2    1   13 1     
    3    1   14 1     
    4    1   15 1     
    5    2    3 1     
    6    3    4 2     
    7    3    5 1     
    8    5    6 1     
    9    5   16 1     
   10    5   17 1     
   11    6    7 1     
   12    6   10 1     
   13    7    8 2     
   14    7   18 1     
   15    8    9 1     
   16    8   19 1     
   17    9   10 2     
   18    9   20 1     
   19   10   11 1     
   20   11   12 2     
   21   11   21 1     
@<TRIPOS>SUBSTRUCTURE
      1 ****           1
@<TRIPOS>COMMENT
> <Gold.Version>
2022.2.0

> <Gold.Id.Protein>
1qkm|1qkm_protein|mol2

> <Gold.Protein.RotatedTorsions>
[  496  491  490  487 ] final  -29.10 input  -89.99 | X-H torsion

> <Gold.Protein.ActiveResidues>
 MET295  LEU298  THR299  LEU301  ALA302  GLU305  TRP335  MET336  LEU339  MET340 
 GLY342  LEU343  ARG346  PHE356  ILE373  ILE376  PHE377  LEU380  LYS471  GLY472 
 MET473  HIS475  LEU476  LEU477  ASN478  MET479  VAL484  VAL487 

> <Gold.Protein.RotatedAtoms>
   36.3112   34.5628   41.9199 H   0  0  0  0  0  0  0  0  0  0  0  0  # atno 496  bound_to 491 

> <Gold.Score>
     Score     S(PLP)   S(hbond)     S(cho)   S(metal)  DE(clash)   DE(tors)     intcor
     42.53     -39.81       0.00       1.00       0.00       0.00       0.14       0.00

> <Gold.PLP.Fitness>
42.5333

> <Gold.PLP.PLP>
-39.8136

> <Gold.PLP.part.hbond>
0.0000

> <Gold.PLP.part.metal>
0.0000

> <Gold.PLP.part.buried>
-4.1557

> <Gold.PLP.part.nonpolar>
-36.1988

> <Gold.PLP.part.repulsive>
0.1174

> <Gold.PLP.ligand.clash>
0.0000

> <Gold.PLP.ligand.torsion>
0.1406

> <Gold.PLP.Chemscore.Hbond>
0.0000

> <Gold.PLP.Chemscore.CHOScore>
1.0000

> <Gold.PLP.Chemscore.Metal>
0.0000

> <Gold.Chemscore.Hbonds>
donor molecule, donor type, donor heavy atom, donor atom, acceptor molecule, acceptor atom, score
      L1  C     7    18       P1   470  1.00

> <Gold.PLP.Chemscore.Internal.Correction>
0.0010

