#       Name:                EN300-126376_i001
#       Creating user name   aseyller
#       Creation time:       Fri Apr 21 19:04:13 2023


#       File generated by GOLD software.
#

@<TRIPOS>MOLECULE
EN300-126376_i001|benzaldehydes|mol2|705|dock15
    21    21     1
SMALL
USER_CHARGES


@<TRIPOS>ATOM
      1 C1          31.5109  34.2436  38.2779 C.3            1 <1>                0.0000
      2 O2          31.1073  35.3723  39.0975 O.3            1 <1>                0.0000
      3 C3          29.7985  35.4889  39.3719 C.2            1 <1>                0.0000
      4 O4          29.0092  34.7088  38.8941 O.2            1 <1>                0.0000
      5 C5          29.3137  36.5928  40.2761 C.3            1 <1>                0.0000
      6 N6          27.8530  36.6775  40.2033 N.pl3          1 <1>                0.0000
      7 C7          26.9994  36.4237  41.2164 C.2            1 <1>                0.0000
      8 C8          25.7279  36.6046  40.7801 C.2            1 <1>                0.0000
      9 C9          25.7847  36.9873  39.4389 C.2            1 <1>                0.0000
     10 C10         27.1234  37.0354  39.0896 C.2            1 <1>                0.0000
     11 C11         27.6456  37.3789  37.8218 C.2            1 <1>                0.0000
     12 O12         28.8473  37.4256  37.6524 O.2            1 <1>                0.0000
     13 H13         32.5909  34.2679  38.1326 H              1 <1>                0.0000
     14 H14         31.2322  33.3149  38.7759 H              1 <1>                0.0000
     15 H15         31.0126  34.3006  37.3102 H              1 <1>                0.0000
     16 H16         29.6147  36.3807  41.3020 H              1 <1>                0.0000
     17 H17         29.7489  37.5402  39.9582 H              1 <1>                0.0000
     18 H18         27.2829  36.1245  42.2146 H              1 <1>                0.0000
     19 H19         24.8304  36.4750  41.3666 H              1 <1>                0.0000
     20 H20         24.9445  37.2077  38.7972 H              1 <1>                0.0000
     21 H21         26.9760  37.5999  37.0038 H              1 <1>                0.0000
@<TRIPOS>BOND
    1    1    2 1     
    2    1   13 1     
    3    1   14 1     
    4    1   15 1     
    5    2    3 1     
    6    3    4 2     
    7    3    5 1     
    8    5    6 1     
    9    5   16 1     
   10    5   17 1     
   11    6    7 1     
   12    6   10 1     
   13    7    8 2     
   14    7   18 1     
   15    8    9 1     
   16    8   19 1     
   17    9   10 2     
   18    9   20 1     
   19   10   11 1     
   20   11   12 2     
   21   11   21 1     
@<TRIPOS>SUBSTRUCTURE
      1 ****           1
@<TRIPOS>COMMENT
> <Gold.Version>
2022.2.0

> <Gold.Id.Protein>
1qkm|1qkm_protein|mol2

> <Gold.Protein.RotatedTorsions>
[  496  491  490  487 ] final  169.53 input  -89.99 | X-H torsion

> <Gold.Protein.ActiveResidues>
 MET295  LEU298  THR299  LEU301  ALA302  GLU305  TRP335  MET336  LEU339  MET340 
 GLY342  LEU343  ARG346  PHE356  ILE373  ILE376  PHE377  LEU380  LYS471  GLY472 
 MET473  HIS475  LEU476  LEU477  ASN478  MET479  VAL484  VAL487 

> <Gold.Protein.RotatedAtoms>
   37.3148   33.3197   40.9646 H   0  0  0  0  0  0  0  0  0  0  0  0  # atno 496  bound_to 491 

> <Gold.Score>
     Score     S(PLP)   S(hbond)     S(cho)   S(metal)  DE(clash)   DE(tors)     intcor
     43.76     -41.16       0.00       0.97       0.00       0.00       0.16       0.00

> <Gold.PLP.Fitness>
43.7598

> <Gold.PLP.PLP>
-41.1593

> <Gold.PLP.part.hbond>
0.0000

> <Gold.PLP.part.metal>
0.0000

> <Gold.PLP.part.buried>
-4.3167

> <Gold.PLP.part.nonpolar>
-38.1823

> <Gold.PLP.part.repulsive>
0.5617

> <Gold.PLP.ligand.clash>
0.0000

> <Gold.PLP.ligand.torsion>
0.1580

> <Gold.PLP.Chemscore.Hbond>
0.0000

> <Gold.PLP.Chemscore.CHOScore>
0.9718

> <Gold.PLP.Chemscore.Metal>
0.0000

> <Gold.Chemscore.Hbonds>
donor molecule, donor type, donor heavy atom, donor atom, acceptor molecule, acceptor atom, score
      L1  C     7    18       P1   582  0.97

> <Gold.PLP.Chemscore.Internal.Correction>
0.0010

