#       Name:                EN300-126376_i001
#       Creating user name   aseyller
#       Creation time:       Fri Apr 21 19:04:10 2023


#       File generated by GOLD software.
#

@<TRIPOS>MOLECULE
EN300-126376_i001|benzaldehydes|mol2|705|dock12
    21    21     1
SMALL
USER_CHARGES


@<TRIPOS>ATOM
      1 C1          26.4719  37.0581  38.9392 C.3            1 <1>                0.0000
      2 O2          27.8181  37.2175  38.4188 O.3            1 <1>                0.0000
      3 C3          28.8235  36.7532  39.1774 C.2            1 <1>                0.0000
      4 O4          28.5897  36.2650  40.2577 O.2            1 <1>                0.0000
      5 C5          30.2440  36.8407  38.6817 C.3            1 <1>                0.0000
      6 N6          30.7764  35.4902  38.4843 N.pl3          1 <1>                0.0000
      7 C7          30.1670  34.3438  38.8501 C.2            1 <1>                0.0000
      8 C8          30.9555  33.2945  38.5083 C.2            1 <1>                0.0000
      9 C9          32.1068  33.8018  37.9036 C.2            1 <1>                0.0000
     10 C10         31.9805  35.1803  37.8887 C.2            1 <1>                0.0000
     11 C11         32.9179  36.1010  37.3676 C.2            1 <1>                0.0000
     12 O12         32.6971  37.2935  37.4301 O.2            1 <1>                0.0000
     13 H13         25.7566  37.4746  38.2300 H              1 <1>                0.0000
     14 H14         26.2624  35.9986  39.0867 H              1 <1>                0.0000
     15 H15         26.3862  37.5814  39.8915 H              1 <1>                0.0000
     16 H16         30.2660  37.3817  37.7357 H              1 <1>                0.0000
     17 H17         30.8532  37.3677  39.4159 H              1 <1>                0.0000
     18 H18         29.2056  34.2729  39.3370 H              1 <1>                0.0000
     19 H19         30.7323  32.2510  38.6751 H              1 <1>                0.0000
     20 H20         32.9362  33.2280  37.5174 H              1 <1>                0.0000
     21 H21         33.8306  35.7439  36.9137 H              1 <1>                0.0000
@<TRIPOS>BOND
    1    1    2 1     
    2    1   13 1     
    3    1   14 1     
    4    1   15 1     
    5    2    3 1     
    6    3    4 2     
    7    3    5 1     
    8    5    6 1     
    9    5   16 1     
   10    5   17 1     
   11    6    7 1     
   12    6   10 1     
   13    7    8 2     
   14    7   18 1     
   15    8    9 1     
   16    8   19 1     
   17    9   10 2     
   18    9   20 1     
   19   10   11 1     
   20   11   12 2     
   21   11   21 1     
@<TRIPOS>SUBSTRUCTURE
      1 ****           1
@<TRIPOS>COMMENT
> <Gold.Version>
2022.2.0

> <Gold.Id.Protein>
1qkm|1qkm_protein|mol2

> <Gold.Protein.RotatedTorsions>
[  496  491  490  487 ] final   -2.09 input  -89.99 | X-H torsion

> <Gold.Protein.ActiveResidues>
 MET295  LEU298  THR299  LEU301  ALA302  GLU305  TRP335  MET336  LEU339  MET340 
 GLY342  LEU343  ARG346  PHE356  ILE373  ILE376  PHE377  LEU380  LYS471  GLY472 
 MET473  HIS475  LEU476  LEU477  ASN478  MET479  VAL484  VAL487 

> <Gold.Protein.RotatedAtoms>
   36.2589   34.2431   42.2184 H   0  0  0  0  0  0  0  0  0  0  0  0  # atno 496  bound_to 491 

> <Gold.Score>
     Score     S(PLP)   S(hbond)     S(cho)   S(metal)  DE(clash)   DE(tors)     intcor
     38.83     -39.01       0.00       0.00       0.00       0.00       0.09       0.00

> <Gold.PLP.Fitness>
38.8331

> <Gold.PLP.PLP>
-39.0148

> <Gold.PLP.part.hbond>
0.0000

> <Gold.PLP.part.metal>
0.0000

> <Gold.PLP.part.buried>
-3.5263

> <Gold.PLP.part.nonpolar>
-35.4430

> <Gold.PLP.part.repulsive>
0.0737

> <Gold.PLP.ligand.clash>
0.0000

> <Gold.PLP.ligand.torsion>
0.0913

> <Gold.PLP.Chemscore.Hbond>
0.0000

> <Gold.PLP.Chemscore.CHOScore>
0.0000

> <Gold.PLP.Chemscore.Metal>
0.0000

> <Gold.PLP.Chemscore.Internal.Correction>
0.0010

