#       Name:                EN300-126376_i001
#       Creating user name   aseyller
#       Creation time:       Fri Apr 21 19:04:06 2023


#       File generated by GOLD software.
#

@<TRIPOS>MOLECULE
EN300-126376_i001|benzaldehydes|mol2|705|dock7
    21    21     1
SMALL
USER_CHARGES


@<TRIPOS>ATOM
      1 C1          27.7224  35.5286  40.9052 C.3            1 <1>                0.0000
      2 O2          29.0102  35.8933  40.3423 O.3            1 <1>                0.0000
      3 C3          28.9995  36.6912  39.2629 C.2            1 <1>                0.0000
      4 O4          27.9515  36.9798  38.7353 O.2            1 <1>                0.0000
      5 C5          30.2946  37.2271  38.7091 C.3            1 <1>                0.0000
      6 N6          31.0973  36.1193  38.1851 N.pl3          1 <1>                0.0000
      7 C7          31.3112  34.9411  38.8061 C.2            1 <1>                0.0000
      8 C8          32.1000  34.1643  38.0224 C.2            1 <1>                0.0000
      9 C9          32.3935  34.8831  36.8624 C.2            1 <1>                0.0000
     10 C10         31.7541  36.1059  36.9731 C.2            1 <1>                0.0000
     11 C11         31.7783  37.1519  36.0227 C.2            1 <1>                0.0000
     12 O12         31.1731  38.1825  36.2384 O.2            1 <1>                0.0000
     13 H13         27.8737  34.8833  41.7705 H              1 <1>                0.0000
     14 H14         27.1918  36.4299  41.2124 H              1 <1>                0.0000
     15 H15         27.1349  34.9990  40.1552 H              1 <1>                0.0000
     16 H16         30.0820  37.9332  37.9064 H              1 <1>                0.0000
     17 H17         30.8467  37.7329  39.5012 H              1 <1>                0.0000
     18 H18         30.9178  34.6615  39.7722 H              1 <1>                0.0000
     19 H19         32.4409  33.1662  38.2551 H              1 <1>                0.0000
     20 H20         33.0006  34.5476  36.0346 H              1 <1>                0.0000
     21 H21         32.3349  37.0347  35.1046 H              1 <1>                0.0000
@<TRIPOS>BOND
    1    1    2 1     
    2    1   13 1     
    3    1   14 1     
    4    1   15 1     
    5    2    3 1     
    6    3    4 2     
    7    3    5 1     
    8    5    6 1     
    9    5   16 1     
   10    5   17 1     
   11    6    7 1     
   12    6   10 1     
   13    7    8 2     
   14    7   18 1     
   15    8    9 1     
   16    8   19 1     
   17    9   10 2     
   18    9   20 1     
   19   10   11 1     
   20   11   12 2     
   21   11   21 1     
@<TRIPOS>SUBSTRUCTURE
      1 ****           1
@<TRIPOS>COMMENT
> <Gold.Version>
2022.2.0

> <Gold.Id.Protein>
1qkm|1qkm_protein|mol2

> <Gold.Protein.RotatedTorsions>
[  496  491  490  487 ] final -131.50 input  -89.99 | X-H torsion

> <Gold.Protein.ActiveResidues>
 MET295  LEU298  THR299  LEU301  ALA302  GLU305  TRP335  MET336  LEU339  MET340 
 GLY342  LEU343  ARG346  PHE356  ILE373  ILE376  PHE377  LEU380  LYS471  GLY472 
 MET473  HIS475  LEU476  LEU477  ASN478  MET479  VAL484  VAL487 

> <Gold.Protein.RotatedAtoms>
   37.1158   34.1994   40.7444 H   0  0  0  0  0  0  0  0  0  0  0  0  # atno 496  bound_to 491 

> <Gold.Score>
     Score     S(PLP)   S(hbond)     S(cho)   S(metal)  DE(clash)   DE(tors)     intcor
     38.74     -36.28       0.00       0.99       0.00       0.00       0.25       0.00

> <Gold.PLP.Fitness>
38.7419

> <Gold.PLP.PLP>
-36.2795

> <Gold.PLP.part.hbond>
0.0000

> <Gold.PLP.part.metal>
0.0000

> <Gold.PLP.part.buried>
-3.5402

> <Gold.PLP.part.nonpolar>
-32.8853

> <Gold.PLP.part.repulsive>
0.0976

> <Gold.PLP.ligand.clash>
0.0000

> <Gold.PLP.ligand.torsion>
0.2523

> <Gold.PLP.Chemscore.Hbond>
0.0000

> <Gold.PLP.Chemscore.CHOScore>
0.9886

> <Gold.PLP.Chemscore.Metal>
0.0000

> <Gold.Chemscore.Hbonds>
donor molecule, donor type, donor heavy atom, donor atom, acceptor molecule, acceptor atom, score
      L1  C     7    18       P1   470  0.99

> <Gold.PLP.Chemscore.Internal.Correction>
0.0010

