#       Name:                EN300-126376_i001
#       Creating user name   aseyller
#       Creation time:       Fri Apr 21 19:04:16 2023


#       File generated by GOLD software.
#

@<TRIPOS>MOLECULE
EN300-126376_i001|benzaldehydes|mol2|705|dock20
    21    21     1
SMALL
USER_CHARGES


@<TRIPOS>ATOM
      1 C1          32.0139  34.1570  37.9027 C.3            1 <1>                0.0000
      2 O2          30.8965  34.5471  38.7438 O.3            1 <1>                0.0000
      3 C3          30.5608  35.8468  38.7470 C.2            1 <1>                0.0000
      4 O4          31.0546  36.6003  37.9418 O.2            1 <1>                0.0000
      5 C5          29.5680  36.3661  39.7548 C.3            1 <1>                0.0000
      6 N6          28.4457  36.9961  39.0548 N.pl3          1 <1>                0.0000
      7 C7          28.5429  37.7926  37.9707 C.2            1 <1>                0.0000
      8 C8          27.3001  38.1896  37.5999 C.2            1 <1>                0.0000
      9 C9          26.3851  37.6196  38.4867 C.2            1 <1>                0.0000
     10 C10         27.1150  36.8681  39.3916 C.2            1 <1>                0.0000
     11 C11         26.5927  36.1159  40.4683 C.2            1 <1>                0.0000
     12 O12         27.3436  35.5153  41.2101 O.2            1 <1>                0.0000
     13 H13         32.1790  33.0834  37.9927 H              1 <1>                0.0000
     14 H14         31.7912  34.4046  36.8647 H              1 <1>                0.0000
     15 H15         32.9103  34.6903  38.2190 H              1 <1>                0.0000
     16 H16         29.1995  35.5389  40.3614 H              1 <1>                0.0000
     17 H17         30.0533  37.1002  40.3978 H              1 <1>                0.0000
     18 H18         29.4627  38.0700  37.4773 H              1 <1>                0.0000
     19 H19         27.0608  38.8332  36.7662 H              1 <1>                0.0000
     20 H20         25.3119  37.7390  38.4679 H              1 <1>                0.0000
     21 H21         25.5259  36.0753  40.6314 H              1 <1>                0.0000
@<TRIPOS>BOND
    1    1    2 1     
    2    1   13 1     
    3    1   14 1     
    4    1   15 1     
    5    2    3 1     
    6    3    4 2     
    7    3    5 1     
    8    5    6 1     
    9    5   16 1     
   10    5   17 1     
   11    6    7 1     
   12    6   10 1     
   13    7    8 2     
   14    7   18 1     
   15    8    9 1     
   16    8   19 1     
   17    9   10 2     
   18    9   20 1     
   19   10   11 1     
   20   11   12 2     
   21   11   21 1     
@<TRIPOS>SUBSTRUCTURE
      1 ****           1
@<TRIPOS>COMMENT
> <Gold.Version>
2022.2.0

> <Gold.Id.Protein>
1qkm|1qkm_protein|mol2

> <Gold.Protein.RotatedTorsions>
[  496  491  490  487 ] final   88.48 input  -89.99 | X-H torsion

> <Gold.Protein.ActiveResidues>
 MET295  LEU298  THR299  LEU301  ALA302  GLU305  TRP335  MET336  LEU339  MET340 
 GLY342  LEU343  ARG346  PHE356  ILE373  ILE376  PHE377  LEU380  LYS471  GLY472 
 MET473  HIS475  LEU476  LEU477  ASN478  MET479  VAL484  VAL487 

> <Gold.Protein.RotatedAtoms>
   36.8062   33.0322   42.0422 H   0  0  0  0  0  0  0  0  0  0  0  0  # atno 496  bound_to 491 

> <Gold.Score>
     Score     S(PLP)   S(hbond)     S(cho)   S(metal)  DE(clash)   DE(tors)     intcor
     38.39     -39.10       0.00       0.00       0.00       0.00       0.36       0.00

> <Gold.PLP.Fitness>
38.3883

> <Gold.PLP.PLP>
-39.1012

> <Gold.PLP.part.hbond>
0.0000

> <Gold.PLP.part.metal>
0.0000

> <Gold.PLP.part.buried>
-4.4453

> <Gold.PLP.part.nonpolar>
-35.2313

> <Gold.PLP.part.repulsive>
0.9026

> <Gold.PLP.ligand.clash>
0.0000

> <Gold.PLP.ligand.torsion>
0.3569

> <Gold.PLP.Chemscore.Hbond>
0.0000

> <Gold.PLP.Chemscore.CHOScore>
0.0000

> <Gold.PLP.Chemscore.Metal>
0.0000

> <Gold.PLP.Chemscore.Internal.Correction>
0.0010

