#       Name:                EN300-126376_i001
#       Creating user name   aseyller
#       Creation time:       Fri Apr 21 19:04:15 2023


#       File generated by GOLD software.
#

@<TRIPOS>MOLECULE
EN300-126376_i001|benzaldehydes|mol2|705|dock18
    21    21     1
SMALL
USER_CHARGES


@<TRIPOS>ATOM
      1 C1          29.6231  39.8309  36.2576 C.3            1 <1>                0.0000
      2 O2          28.4484  39.3978  36.9930 O.3            1 <1>                0.0000
      3 C3          28.3708  38.0944  37.3047 C.2            1 <1>                0.0000
      4 O4          29.2310  37.3320  36.9323 O.2            1 <1>                0.0000
      5 C5          27.2109  37.5822  38.1192 C.3            1 <1>                0.0000
      6 N6          27.7129  36.9654  39.3495 N.pl3          1 <1>                0.0000
      7 C7          28.9830  36.5674  39.5678 C.2            1 <1>                0.0000
      8 C8          29.0749  36.0438  40.8157 C.2            1 <1>                0.0000
      9 C9          27.8116  36.1155  41.4052 C.2            1 <1>                0.0000
     10 C10         26.9666  36.7009  40.4782 C.2            1 <1>                0.0000
     11 C11         25.5898  36.9692  40.6530 C.2            1 <1>                0.0000
     12 O12         25.1332  37.0972  41.7710 O.2            1 <1>                0.0000
     13 H13         29.5601  40.9029  36.0709 H              1 <1>                0.0000
     14 H14         30.5175  39.6158  36.8423 H              1 <1>                0.0000
     15 H15         29.6735  39.2990  35.3076 H              1 <1>                0.0000
     16 H16         26.5501  38.4114  38.3719 H              1 <1>                0.0000
     17 H17         26.6595  36.8415  37.5402 H              1 <1>                0.0000
     18 H18         29.7962  36.6520  38.8622 H              1 <1>                0.0000
     19 H19         29.9675  35.6421  41.2722 H              1 <1>                0.0000
     20 H20         27.5453  35.7814  42.3971 H              1 <1>                0.0000
     21 H21         24.9439  37.0605  39.7922 H              1 <1>                0.0000
@<TRIPOS>BOND
    1    1    2 1     
    2    1   13 1     
    3    1   14 1     
    4    1   15 1     
    5    2    3 1     
    6    3    4 2     
    7    3    5 1     
    8    5    6 1     
    9    5   16 1     
   10    5   17 1     
   11    6    7 1     
   12    6   10 1     
   13    7    8 2     
   14    7   18 1     
   15    8    9 1     
   16    8   19 1     
   17    9   10 2     
   18    9   20 1     
   19   10   11 1     
   20   11   12 2     
   21   11   21 1     
@<TRIPOS>SUBSTRUCTURE
      1 ****           1
@<TRIPOS>COMMENT
> <Gold.Version>
2022.2.0

> <Gold.Id.Protein>
1qkm|1qkm_protein|mol2

> <Gold.Protein.RotatedTorsions>
[  496  491  490  487 ] final   -8.82 input  -89.99 | X-H torsion

> <Gold.Protein.ActiveResidues>
 MET295  LEU298  THR299  LEU301  ALA302  GLU305  TRP335  MET336  LEU339  MET340 
 GLY342  LEU343  ARG346  PHE356  ILE373  ILE376  PHE377  LEU380  LYS471  GLY472 
 MET473  HIS475  LEU476  LEU477  ASN478  MET479  VAL484  VAL487 

> <Gold.Protein.RotatedAtoms>
   36.2611   34.3342   42.1555 H   0  0  0  0  0  0  0  0  0  0  0  0  # atno 496  bound_to 491 

> <Gold.Score>
     Score     S(PLP)   S(hbond)     S(cho)   S(metal)  DE(clash)   DE(tors)     intcor
     40.52     -40.19       0.35       0.00       0.00       0.00       0.36       0.00

> <Gold.PLP.Fitness>
40.5241

> <Gold.PLP.PLP>
-40.1903

> <Gold.PLP.part.hbond>
-1.0000

> <Gold.PLP.part.metal>
0.0000

> <Gold.PLP.part.buried>
-3.1706

> <Gold.PLP.part.nonpolar>
-36.6077

> <Gold.PLP.part.repulsive>
0.2627

> <Gold.PLP.ligand.clash>
0.0000

> <Gold.PLP.ligand.torsion>
0.3616

> <Gold.PLP.Chemscore.Hbond>
0.3520

> <Gold.PLP.Chemscore.CHOScore>
0.0000

> <Gold.PLP.Chemscore.Metal>
0.0000

> <Gold.Chemscore.Hbonds>
donor molecule, donor type, donor heavy atom, donor atom, acceptor molecule, acceptor atom, score
      P1  H  1258  1270       L1    12  0.35

> <Gold.PLP.Chemscore.Internal.Correction>
0.0010

