#       Name:                EN300-126376_i001
#       Creating user name   aseyller
#       Creation time:       Fri Apr 21 19:04:05 2023


#       File generated by GOLD software.
#

@<TRIPOS>MOLECULE
EN300-126376_i001|benzaldehydes|mol2|705|dock6
    21    21     1
SMALL
USER_CHARGES


@<TRIPOS>ATOM
      1 C1          26.2432  36.5492  39.0001 C.3            1 <1>                0.0000
      2 O2          27.5216  37.1173  38.6110 O.3            1 <1>                0.0000
      3 C3          28.6225  36.5573  39.1364 C.2            1 <1>                0.0000
      4 O4          28.5346  35.5353  39.7750 O.2            1 <1>                0.0000
      5 C5          29.9684  37.2031  38.9297 C.3            1 <1>                0.0000
      6 N6          30.8748  36.2480  38.2876 N.pl3          1 <1>                0.0000
      7 C7          31.2566  35.0601  38.8000 C.2            1 <1>                0.0000
      8 C8          32.0978  34.4512  37.9274 C.2            1 <1>                0.0000
      9 C9          32.2510  35.2902  36.8224 C.2            1 <1>                0.0000
     10 C10         31.4743  36.4118  37.0569 C.2            1 <1>                0.0000
     11 C11         31.3301  37.5245  36.1972 C.2            1 <1>                0.0000
     12 O12         30.6575  38.4751  36.5420 O.2            1 <1>                0.0000
     13 H13         25.4383  37.0931  38.5057 H              1 <1>                0.0000
     14 H14         26.2071  35.5003  38.7059 H              1 <1>                0.0000
     15 H15         26.1246  36.6277  40.0807 H              1 <1>                0.0000
     16 H16         29.8562  38.0813  38.2939 H              1 <1>                0.0000
     17 H17         30.3795  37.5025  39.8937 H              1 <1>                0.0000
     18 H18         30.9429  34.6584  39.7521 H              1 <1>                0.0000
     19 H19         32.5666  33.4878  38.0639 H              1 <1>                0.0000
     20 H20         32.8569  35.0988  35.9491 H              1 <1>                0.0000
     21 H21         31.8180  37.5294  35.2337 H              1 <1>                0.0000
@<TRIPOS>BOND
    1    1    2 1     
    2    1   13 1     
    3    1   14 1     
    4    1   15 1     
    5    2    3 1     
    6    3    4 2     
    7    3    5 1     
    8    5    6 1     
    9    5   16 1     
   10    5   17 1     
   11    6    7 1     
   12    6   10 1     
   13    7    8 2     
   14    7   18 1     
   15    8    9 1     
   16    8   19 1     
   17    9   10 2     
   18    9   20 1     
   19   10   11 1     
   20   11   12 2     
   21   11   21 1     
@<TRIPOS>SUBSTRUCTURE
      1 ****           1
@<TRIPOS>COMMENT
> <Gold.Version>
2022.2.0

> <Gold.Id.Protein>
1qkm|1qkm_protein|mol2

> <Gold.Protein.RotatedTorsions>
[  496  491  490  487 ] final   30.30 input  -89.99 | X-H torsion

> <Gold.Protein.ActiveResidues>
 MET295  LEU298  THR299  LEU301  ALA302  GLU305  TRP335  MET336  LEU339  MET340 
 GLY342  LEU343  ARG346  PHE356  ILE373  ILE376  PHE377  LEU380  LYS471  GLY472 
 MET473  HIS475  LEU476  LEU477  ASN478  MET479  VAL484  VAL487 

> <Gold.Protein.RotatedAtoms>
   36.3479   33.7507   42.3809 H   0  0  0  0  0  0  0  0  0  0  0  0  # atno 496  bound_to 491 

> <Gold.Score>
     Score     S(PLP)   S(hbond)     S(cho)   S(metal)  DE(clash)   DE(tors)     intcor
     39.14     -36.31       0.00       0.99       0.00       0.00       0.08       0.00

> <Gold.PLP.Fitness>
39.1376

> <Gold.PLP.PLP>
-36.3124

> <Gold.PLP.part.hbond>
0.0000

> <Gold.PLP.part.metal>
0.0000

> <Gold.PLP.part.buried>
-3.4443

> <Gold.PLP.part.nonpolar>
-33.2350

> <Gold.PLP.part.repulsive>
0.0571

> <Gold.PLP.ligand.clash>
0.0000

> <Gold.PLP.ligand.torsion>
0.0769

> <Gold.PLP.Chemscore.Hbond>
0.0000

> <Gold.PLP.Chemscore.CHOScore>
0.9927

> <Gold.PLP.Chemscore.Metal>
0.0000

> <Gold.Chemscore.Hbonds>
donor molecule, donor type, donor heavy atom, donor atom, acceptor molecule, acceptor atom, score
      L1  C     7    18       P1   470  0.99

> <Gold.PLP.Chemscore.Internal.Correction>
0.0010

