#       Name:                EN300-126376_i001
#       Creating user name   aseyller
#       Creation time:       Fri Apr 21 19:04:03 2023


#       File generated by GOLD software.
#

@<TRIPOS>MOLECULE
EN300-126376_i001|benzaldehydes|mol2|705|dock3
    21    21     1
SMALL
USER_CHARGES


@<TRIPOS>ATOM
      1 C1          32.7243  35.6040  37.3646 C.3            1 <1>                0.0000
      2 O2          31.6903  36.6016  37.5744 O.3            1 <1>                0.0000
      3 C3          30.7430  36.3158  38.4815 C.2            1 <1>                0.0000
      4 O4          30.7978  35.2839  39.1077 O.2            1 <1>                0.0000
      5 C5          29.6113  37.2822  38.7191 C.3            1 <1>                0.0000
      6 N6          28.8157  36.8306  39.8634 N.pl3          1 <1>                0.0000
      7 C7          29.3010  36.5073  41.0796 C.2            1 <1>                0.0000
      8 C8          28.2728  36.1353  41.8822 C.2            1 <1>                0.0000
      9 C9          27.0940  36.2284  41.1405 C.2            1 <1>                0.0000
     10 C10         27.4463  36.6714  39.8772 C.2            1 <1>                0.0000
     11 C11         26.5654  36.9077  38.7973 C.2            1 <1>                0.0000
     12 O12         26.6828  37.9133  38.1267 O.2            1 <1>                0.0000
     13 H13         33.4241  35.9596  36.6083 H              1 <1>                0.0000
     14 H14         33.2570  35.4307  38.2996 H              1 <1>                0.0000
     15 H15         32.2681  34.6729  37.0284 H              1 <1>                0.0000
     16 H16         30.0166  38.2725  38.9265 H              1 <1>                0.0000
     17 H17         28.9794  37.3266  37.8321 H              1 <1>                0.0000
     18 H18         30.3413  36.5393  41.3679 H              1 <1>                0.0000
     19 H19         28.3523  35.8219  42.9127 H              1 <1>                0.0000
     20 H20         26.0966  36.0019  41.4874 H              1 <1>                0.0000
     21 H21         25.7878  36.1939  38.5686 H              1 <1>                0.0000
@<TRIPOS>BOND
    1    1    2 1     
    2    1   13 1     
    3    1   14 1     
    4    1   15 1     
    5    2    3 1     
    6    3    4 2     
    7    3    5 1     
    8    5    6 1     
    9    5   16 1     
   10    5   17 1     
   11    6    7 1     
   12    6   10 1     
   13    7    8 2     
   14    7   18 1     
   15    8    9 1     
   16    8   19 1     
   17    9   10 2     
   18    9   20 1     
   19   10   11 1     
   20   11   12 2     
   21   11   21 1     
@<TRIPOS>SUBSTRUCTURE
      1 ****           1
@<TRIPOS>COMMENT
> <Gold.Version>
2022.2.0

> <Gold.Id.Protein>
1qkm|1qkm_protein|mol2

> <Gold.Protein.RotatedTorsions>
[  496  491  490  487 ] final  -17.59 input  -89.99 | X-H torsion

> <Gold.Protein.ActiveResidues>
 MET295  LEU298  THR299  LEU301  ALA302  GLU305  TRP335  MET336  LEU339  MET340 
 GLY342  LEU343  ARG346  PHE356  ILE373  ILE376  PHE377  LEU380  LYS471  GLY472 
 MET473  HIS475  LEU476  LEU477  ASN478  MET479  VAL484  VAL487 

> <Gold.Protein.RotatedAtoms>
   36.2750   34.4426   42.0612 H   0  0  0  0  0  0  0  0  0  0  0  0  # atno 496  bound_to 491 

> <Gold.Score>
     Score     S(PLP)   S(hbond)     S(cho)   S(metal)  DE(clash)   DE(tors)     intcor
     42.09     -40.09       0.00       1.00       0.00       0.00       0.50       0.00

> <Gold.PLP.Fitness>
42.0905

> <Gold.PLP.PLP>
-40.0876

> <Gold.PLP.part.hbond>
0.0000

> <Gold.PLP.part.metal>
0.0000

> <Gold.PLP.part.buried>
-2.1867

> <Gold.PLP.part.nonpolar>
-38.8302

> <Gold.PLP.part.repulsive>
0.1141

> <Gold.PLP.ligand.clash>
0.0000

> <Gold.PLP.ligand.torsion>
0.5000

> <Gold.PLP.Chemscore.Hbond>
0.0000

> <Gold.PLP.Chemscore.CHOScore>
1.0000

> <Gold.PLP.Chemscore.Metal>
0.0000

> <Gold.Chemscore.Hbonds>
donor molecule, donor type, donor heavy atom, donor atom, acceptor molecule, acceptor atom, score
      L1  C     7    18       P1   470  1.00

> <Gold.PLP.Chemscore.Internal.Correction>
0.0029

