#       Name:                EN300-126376_i001
#       Creating user name   aseyller
#       Creation time:       Fri Apr 21 19:04:11 2023


#       File generated by GOLD software.
#

@<TRIPOS>MOLECULE
EN300-126376_i001|benzaldehydes|mol2|705|dock13
    21    21     1
SMALL
USER_CHARGES


@<TRIPOS>ATOM
      1 C1          31.8809  34.4590  37.9385 C.3            1 <1>                0.0000
      2 O2          31.2575  35.3949  38.8571 O.3            1 <1>                0.0000
      3 C3          30.4941  36.3593  38.3196 C.2            1 <1>                0.0000
      4 O4          30.3228  36.3984  37.1241 O.2            1 <1>                0.0000
      5 C5          29.8505  37.3933  39.2072 C.3            1 <1>                0.0000
      6 N6          28.8834  36.7417  40.0939 N.pl3          1 <1>                0.0000
      7 C7          29.1099  36.3792  41.3732 C.2            1 <1>                0.0000
      8 C8          27.9884  35.8056  41.8763 C.2            1 <1>                0.0000
      9 C9          27.0181  35.8078  40.8728 C.2            1 <1>                0.0000
     10 C10         27.5891  36.4030  39.7610 C.2            1 <1>                0.0000
     11 C11         26.9635  36.6155  38.5114 C.2            1 <1>                0.0000
     12 O12         27.5896  37.1081  37.5948 O.2            1 <1>                0.0000
     13 H13         32.4681  33.7336  38.5016 H              1 <1>                0.0000
     14 H14         31.1095  33.9393  37.3702 H              1 <1>                0.0000
     15 H15         32.5330  35.0014  37.2540 H              1 <1>                0.0000
     16 H16         30.6168  37.8866  39.8051 H              1 <1>                0.0000
     17 H17         29.3383  38.1325  38.5914 H              1 <1>                0.0000
     18 H18         30.0357  36.5223  41.9106 H              1 <1>                0.0000
     19 H19         27.8677  35.4159  42.8762 H              1 <1>                0.0000
     20 H20         26.0123  35.4222  40.9503 H              1 <1>                0.0000
     21 H21         25.9286  36.3399  38.3718 H              1 <1>                0.0000
@<TRIPOS>BOND
    1    1    2 1     
    2    1   13 1     
    3    1   14 1     
    4    1   15 1     
    5    2    3 1     
    6    3    4 2     
    7    3    5 1     
    8    5    6 1     
    9    5   16 1     
   10    5   17 1     
   11    6    7 1     
   12    6   10 1     
   13    7    8 2     
   14    7   18 1     
   15    8    9 1     
   16    8   19 1     
   17    9   10 2     
   18    9   20 1     
   19   10   11 1     
   20   11   12 2     
   21   11   21 1     
@<TRIPOS>SUBSTRUCTURE
      1 ****           1
@<TRIPOS>COMMENT
> <Gold.Version>
2022.2.0

> <Gold.Id.Protein>
1qkm|1qkm_protein|mol2

> <Gold.Protein.RotatedTorsions>
[  496  491  490  487 ] final  178.00 input  -89.99 | X-H torsion

> <Gold.Protein.ActiveResidues>
 MET295  LEU298  THR299  LEU301  ALA302  GLU305  TRP335  MET336  LEU339  MET340 
 GLY342  LEU343  ARG346  PHE356  ILE373  ILE376  PHE377  LEU380  LYS471  GLY472 
 MET473  HIS475  LEU476  LEU477  ASN478  MET479  VAL484  VAL487 

> <Gold.Protein.RotatedAtoms>
   37.3186   33.4334   40.8843 H   0  0  0  0  0  0  0  0  0  0  0  0  # atno 496  bound_to 491 

> <Gold.Score>
     Score     S(PLP)   S(hbond)     S(cho)   S(metal)  DE(clash)   DE(tors)     intcor
     41.13     -38.80       0.00       1.00       0.00       0.00       0.34       0.00

> <Gold.PLP.Fitness>
41.1269

> <Gold.PLP.PLP>
-38.8021

> <Gold.PLP.part.hbond>
0.0000

> <Gold.PLP.part.metal>
0.0000

> <Gold.PLP.part.buried>
-0.4917

> <Gold.PLP.part.nonpolar>
-38.9411

> <Gold.PLP.part.repulsive>
0.0925

> <Gold.PLP.ligand.clash>
0.0000

> <Gold.PLP.ligand.torsion>
0.3374

> <Gold.PLP.Chemscore.Hbond>
0.0000

> <Gold.PLP.Chemscore.CHOScore>
0.9996

> <Gold.PLP.Chemscore.Metal>
0.0000

> <Gold.Chemscore.Hbonds>
donor molecule, donor type, donor heavy atom, donor atom, acceptor molecule, acceptor atom, score
      L1  C     7    18       P1   470  1.00

> <Gold.PLP.Chemscore.Internal.Correction>
0.0010

