#       Name:                EN300-126376_i001
#       Creating user name   aseyller
#       Creation time:       Fri Apr 21 19:04:13 2023


#       File generated by GOLD software.
#

@<TRIPOS>MOLECULE
EN300-126376_i001|benzaldehydes|mol2|705|dock16
    21    21     1
SMALL
USER_CHARGES


@<TRIPOS>ATOM
      1 C1          32.1060  38.1833  34.0007 C.3            1 <1>                0.0000
      2 O2          32.1362  38.1355  35.4516 O.3            1 <1>                0.0000
      3 C3          32.6012  37.0092  36.0147 C.2            1 <1>                0.0000
      4 O4          32.9905  36.1018  35.3183 O.2            1 <1>                0.0000
      5 C5          32.6379  36.8766  37.5154 C.3            1 <1>                0.0000
      6 N6          31.9900  35.6236  37.9109 N.pl3          1 <1>                0.0000
      7 C7          32.4321  34.3835  37.6178 C.2            1 <1>                0.0000
      8 C8          31.5781  33.4723  38.1473 C.2            1 <1>                0.0000
      9 C9          30.5583  34.1678  38.7991 C.2            1 <1>                0.0000
     10 C10         30.8306  35.5167  38.6491 C.2            1 <1>                0.0000
     11 C11         30.0570  36.5875  39.1521 C.2            1 <1>                0.0000
     12 O12         29.0280  36.3619  39.7565 O.2            1 <1>                0.0000
     13 H13         31.7097  39.1457  33.6770 H              1 <1>                0.0000
     14 H14         33.1165  38.0571  33.6119 H              1 <1>                0.0000
     15 H15         31.4692  37.3829  33.6240 H              1 <1>                0.0000
     16 H16         33.6738  36.8728  37.8546 H              1 <1>                0.0000
     17 H17         32.1107  37.7167  37.9673 H              1 <1>                0.0000
     18 H18         33.3228  34.1531  37.0524 H              1 <1>                0.0000
     19 H19         31.6707  32.3985  38.0766 H              1 <1>                0.0000
     20 H20         29.7191  33.7356  39.3237 H              1 <1>                0.0000
     21 H21         30.3808  37.6064  38.9989 H              1 <1>                0.0000
@<TRIPOS>BOND
    1    1    2 1     
    2    1   13 1     
    3    1   14 1     
    4    1   15 1     
    5    2    3 1     
    6    3    4 2     
    7    3    5 1     
    8    5    6 1     
    9    5   16 1     
   10    5   17 1     
   11    6    7 1     
   12    6   10 1     
   13    7    8 2     
   14    7   18 1     
   15    8    9 1     
   16    8   19 1     
   17    9   10 2     
   18    9   20 1     
   19   10   11 1     
   20   11   12 2     
   21   11   21 1     
@<TRIPOS>SUBSTRUCTURE
      1 ****           1
@<TRIPOS>COMMENT
> <Gold.Version>
2022.2.0

> <Gold.Id.Protein>
1qkm|1qkm_protein|mol2

> <Gold.Protein.RotatedTorsions>
[  496  491  490  487 ] final   16.97 input  -89.99 | X-H torsion

> <Gold.Protein.ActiveResidues>
 MET295  LEU298  THR299  LEU301  ALA302  GLU305  TRP335  MET336  LEU339  MET340 
 GLY342  LEU343  ARG346  PHE356  ILE373  ILE376  PHE377  LEU380  LYS471  GLY472 
 MET473  HIS475  LEU476  LEU477  ASN478  MET479  VAL484  VAL487 

> <Gold.Protein.RotatedAtoms>
   36.2919   33.9592   42.3441 H   0  0  0  0  0  0  0  0  0  0  0  0  # atno 496  bound_to 491 

> <Gold.Score>
     Score     S(PLP)   S(hbond)     S(cho)   S(metal)  DE(clash)   DE(tors)     intcor
     39.45     -39.66       0.00       0.00       0.00       0.00       0.10       0.00

> <Gold.PLP.Fitness>
39.4525

> <Gold.PLP.PLP>
-39.6565

> <Gold.PLP.part.hbond>
0.0000

> <Gold.PLP.part.metal>
0.0000

> <Gold.PLP.part.buried>
-4.7960

> <Gold.PLP.part.nonpolar>
-34.9821

> <Gold.PLP.part.repulsive>
0.2273

> <Gold.PLP.ligand.clash>
0.0000

> <Gold.PLP.ligand.torsion>
0.1025

> <Gold.PLP.Chemscore.Hbond>
0.0000

> <Gold.PLP.Chemscore.CHOScore>
0.0000

> <Gold.PLP.Chemscore.Metal>
0.0000

> <Gold.PLP.Chemscore.Internal.Correction>
0.0010

