#       Name:                EN300-126376_i001
#       Creating user name   aseyller
#       Creation time:       Fri Apr 21 19:04:04 2023


#       File generated by GOLD software.
#

@<TRIPOS>MOLECULE
EN300-126376_i001|benzaldehydes|mol2|705|dock4
    21    21     1
SMALL
USER_CHARGES


@<TRIPOS>ATOM
      1 C1          28.3619  36.3955  41.6933 C.3            1 <1>                0.0000
      2 O2          29.4277  36.6981  40.7547 O.3            1 <1>                0.0000
      3 C3          29.0695  36.9445  39.4847 C.2            1 <1>                0.0000
      4 O4          27.9002  36.9768  39.1821 O.2            1 <1>                0.0000
      5 C5          30.1259  37.1808  38.4362 C.3            1 <1>                0.0000
      6 N6          30.9281  35.9665  38.2688 N.pl3          1 <1>                0.0000
      7 C7          30.9409  34.9109  39.1084 C.2            1 <1>                0.0000
      8 C8          31.8001  33.9760  38.6314 C.2            1 <1>                0.0000
      9 C9          32.3495  34.4638  37.4445 C.2            1 <1>                0.0000
     10 C10         31.7904  35.7108  37.2239 C.2            1 <1>                0.0000
     11 C11         32.0611  36.5683  36.1333 C.2            1 <1>                0.0000
     12 O12         32.7952  36.1998  35.2387 O.2            1 <1>                0.0000
     13 H13         28.7872  36.2172  42.6809 H              1 <1>                0.0000
     14 H14         27.6707  37.2370  41.7418 H              1 <1>                0.0000
     15 H15         27.8276  35.5052  41.3616 H              1 <1>                0.0000
     16 H16         29.6482  37.4341  37.4898 H              1 <1>                0.0000
     17 H17         30.7708  38.0020  38.7490 H              1 <1>                0.0000
     18 H18         30.3603  34.8241  40.0149 H              1 <1>                0.0000
     19 H19         32.0206  33.0230  39.0893 H              1 <1>                0.0000
     20 H20         33.0703  33.9621  36.8160 H              1 <1>                0.0000
     21 H21         31.6152  37.5512  36.0955 H              1 <1>                0.0000
@<TRIPOS>BOND
    1    1    2 1     
    2    1   13 1     
    3    1   14 1     
    4    1   15 1     
    5    2    3 1     
    6    3    4 2     
    7    3    5 1     
    8    5    6 1     
    9    5   16 1     
   10    5   17 1     
   11    6    7 1     
   12    6   10 1     
   13    7    8 2     
   14    7   18 1     
   15    8    9 1     
   16    8   19 1     
   17    9   10 2     
   18    9   20 1     
   19   10   11 1     
   20   11   12 2     
   21   11   21 1     
@<TRIPOS>SUBSTRUCTURE
      1 ****           1
@<TRIPOS>COMMENT
> <Gold.Version>
2022.2.0

> <Gold.Id.Protein>
1qkm|1qkm_protein|mol2

> <Gold.Protein.RotatedTorsions>
[  496  491  490  487 ] final  174.54 input  -89.99 | X-H torsion

> <Gold.Protein.ActiveResidues>
 MET295  LEU298  THR299  LEU301  ALA302  GLU305  TRP335  MET336  LEU339  MET340 
 GLY342  LEU343  ARG346  PHE356  ILE373  ILE376  PHE377  LEU380  LYS471  GLY472 
 MET473  HIS475  LEU476  LEU477  ASN478  MET479  VAL484  VAL487 

> <Gold.Protein.RotatedAtoms>
   37.3184   33.3857   40.9155 H   0  0  0  0  0  0  0  0  0  0  0  0  # atno 496  bound_to 491 

> <Gold.Score>
     Score     S(PLP)   S(hbond)     S(cho)   S(metal)  DE(clash)   DE(tors)     intcor
     40.61     -39.22       0.00       0.60       0.00       0.00       0.21       0.00

> <Gold.PLP.Fitness>
40.6098

> <Gold.PLP.PLP>
-39.2178

> <Gold.PLP.part.hbond>
0.0000

> <Gold.PLP.part.metal>
0.0000

> <Gold.PLP.part.buried>
-2.9627

> <Gold.PLP.part.nonpolar>
-36.5185

> <Gold.PLP.part.repulsive>
0.2131

> <Gold.PLP.ligand.clash>
0.0000

> <Gold.PLP.ligand.torsion>
0.2063

> <Gold.PLP.Chemscore.Hbond>
0.0000

> <Gold.PLP.Chemscore.CHOScore>
0.6006

> <Gold.PLP.Chemscore.Metal>
0.0000

> <Gold.Chemscore.Hbonds>
donor molecule, donor type, donor heavy atom, donor atom, acceptor molecule, acceptor atom, score
      L1  C     7    18       P1   470  0.60

> <Gold.PLP.Chemscore.Internal.Correction>
0.0029

