#       Name:                EN300-126376_i001
#       Creating user name   aseyller
#       Creation time:       Fri Apr 21 19:04:09 2023


#       File generated by GOLD software.
#

@<TRIPOS>MOLECULE
EN300-126376_i001|benzaldehydes|mol2|705|dock11
    21    21     1
SMALL
USER_CHARGES


@<TRIPOS>ATOM
      1 C1          31.8104  33.6279  38.2829 C.3            1 <1>                0.0000
      2 O2          31.4490  34.9949  38.6132 O.3            1 <1>                0.0000
      3 C3          30.1501  35.2430  38.8438 C.2            1 <1>                0.0000
      4 O4          29.3458  34.3424  38.7995 O.2            1 <1>                0.0000
      5 C5          29.6950  36.6448  39.1583 C.3            1 <1>                0.0000
      6 N6          28.2378  36.6629  39.3086 N.pl3          1 <1>                0.0000
      7 C7          27.3439  36.7004  38.2992 C.2            1 <1>                0.0000
      8 C8          26.0905  36.7067  38.8177 C.2            1 <1>                0.0000
      9 C9          26.2012  36.6719  40.2087 C.2            1 <1>                0.0000
     10 C10         27.5531  36.6386  40.5049 C.2            1 <1>                0.0000
     11 C11         28.1260  36.5972  41.7964 C.2            1 <1>                0.0000
     12 O12         29.2580  37.0006  41.9719 O.2            1 <1>                0.0000
     13 H13         32.8866  33.5656  38.1212 H              1 <1>                0.0000
     14 H14         31.5276  32.9688  39.1037 H              1 <1>                0.0000
     15 H15         31.2884  33.3231  37.3759 H              1 <1>                0.0000
     16 H16         30.1601  36.9783  40.0859 H              1 <1>                0.0000
     17 H17         29.9848  37.3115  38.3462 H              1 <1>                0.0000
     18 H18         27.5871  36.7221  37.2472 H              1 <1>                0.0000
     19 H19         25.1697  36.7342  38.2539 H              1 <1>                0.0000
     20 H20         25.3873  36.6677  40.9184 H              1 <1>                0.0000
     21 H21         27.5571  36.2067  42.6273 H              1 <1>                0.0000
@<TRIPOS>BOND
    1    1    2 1     
    2    1   13 1     
    3    1   14 1     
    4    1   15 1     
    5    2    3 1     
    6    3    4 2     
    7    3    5 1     
    8    5    6 1     
    9    5   16 1     
   10    5   17 1     
   11    6    7 1     
   12    6   10 1     
   13    7    8 2     
   14    7   18 1     
   15    8    9 1     
   16    8   19 1     
   17    9   10 2     
   18    9   20 1     
   19   10   11 1     
   20   11   12 2     
   21   11   21 1     
@<TRIPOS>SUBSTRUCTURE
      1 ****           1
@<TRIPOS>COMMENT
> <Gold.Version>
2022.2.0

> <Gold.Id.Protein>
1qkm|1qkm_protein|mol2

> <Gold.Protein.RotatedTorsions>
[  496  491  490  487 ] final   59.60 input  -89.99 | X-H torsion

> <Gold.Protein.ActiveResidues>
 MET295  LEU298  THR299  LEU301  ALA302  GLU305  TRP335  MET336  LEU339  MET340 
 GLY342  LEU343  ARG346  PHE356  ILE373  ILE376  PHE377  LEU380  LYS471  GLY472 
 MET473  HIS475  LEU476  LEU477  ASN478  MET479  VAL484  VAL487 

> <Gold.Protein.RotatedAtoms>
   36.5482   33.3244   42.3055 H   0  0  0  0  0  0  0  0  0  0  0  0  # atno 496  bound_to 491 

> <Gold.Score>
     Score     S(PLP)   S(hbond)     S(cho)   S(metal)  DE(clash)   DE(tors)     intcor
     39.59     -40.43       0.00       0.00       0.00       0.00       0.42       0.00

> <Gold.PLP.Fitness>
39.5858

> <Gold.PLP.PLP>
-40.4344

> <Gold.PLP.part.hbond>
0.0000

> <Gold.PLP.part.metal>
0.0000

> <Gold.PLP.part.buried>
-3.0915

> <Gold.PLP.part.nonpolar>
-37.7894

> <Gold.PLP.part.repulsive>
0.2515

> <Gold.PLP.ligand.clash>
0.0000

> <Gold.PLP.ligand.torsion>
0.4248

> <Gold.PLP.Chemscore.Hbond>
0.0000

> <Gold.PLP.Chemscore.CHOScore>
0.0000

> <Gold.PLP.Chemscore.Metal>
0.0000

> <Gold.PLP.Chemscore.Internal.Correction>
0.0010

