#       Name:                EN300-126376_i001
#       Creating user name   aseyller
#       Creation time:       Fri Apr 21 19:04:08 2023


#       File generated by GOLD software.
#

@<TRIPOS>MOLECULE
EN300-126376_i001|benzaldehydes|mol2|705|dock10
    21    21     1
SMALL
USER_CHARGES


@<TRIPOS>ATOM
      1 C1          29.7094  39.6775  36.9520 C.3            1 <1>                0.0000
      2 O2          29.1181  38.5162  37.5923 O.3            1 <1>                0.0000
      3 C3          29.9319  37.4788  37.8442 C.2            1 <1>                0.0000
      4 O4          31.0598  37.4765  37.4107 O.2            1 <1>                0.0000
      5 C5          29.4389  36.3170  38.6677 C.3            1 <1>                0.0000
      6 N6          28.0719  36.5851  39.1212 N.pl3          1 <1>                0.0000
      7 C7          26.9982  36.7562  38.3230 C.2            1 <1>                0.0000
      8 C8          25.9054  36.9845  39.0934 C.2            1 <1>                0.0000
      9 C9          26.3087  36.9559  40.4295 C.2            1 <1>                0.0000
     10 C10         27.6689  36.6987  40.4348 C.2            1 <1>                0.0000
     11 C11         28.4943  36.5832  41.5764 C.2            1 <1>                0.0000
     12 O12         28.6582  35.4999  42.1002 O.2            1 <1>                0.0000
     13 H13         28.9450  40.4407  36.8062 H              1 <1>                0.0000
     14 H14         30.5041  40.0752  37.5832 H              1 <1>                0.0000
     15 H15         30.1232  39.3885  35.9859 H              1 <1>                0.0000
     16 H16         29.4494  35.4114  38.0613 H              1 <1>                0.0000
     17 H17         30.0888  36.1829  39.5323 H              1 <1>                0.0000
     18 H18         27.0072  36.7177  37.2438 H              1 <1>                0.0000
     19 H19         24.9011  37.1581  38.7362 H              1 <1>                0.0000
     20 H20         25.6787  37.1026  41.2943 H              1 <1>                0.0000
     21 H21         28.9791  37.4585  41.9830 H              1 <1>                0.0000
@<TRIPOS>BOND
    1    1    2 1     
    2    1   13 1     
    3    1   14 1     
    4    1   15 1     
    5    2    3 1     
    6    3    4 2     
    7    3    5 1     
    8    5    6 1     
    9    5   16 1     
   10    5   17 1     
   11    6    7 1     
   12    6   10 1     
   13    7    8 2     
   14    7   18 1     
   15    8    9 1     
   16    8   19 1     
   17    9   10 2     
   18    9   20 1     
   19   10   11 1     
   20   11   12 2     
   21   11   21 1     
@<TRIPOS>SUBSTRUCTURE
      1 ****           1
@<TRIPOS>COMMENT
> <Gold.Version>
2022.2.0

> <Gold.Id.Protein>
1qkm|1qkm_protein|mol2

> <Gold.Protein.RotatedTorsions>
[  496  491  490  487 ] final   39.17 input  -89.99 | X-H torsion

> <Gold.Protein.ActiveResidues>
 MET295  LEU298  THR299  LEU301  ALA302  GLU305  TRP335  MET336  LEU339  MET340 
 GLY342  LEU343  ARG346  PHE356  ILE373  ILE376  PHE377  LEU380  LYS471  GLY472 
 MET473  HIS475  LEU476  LEU477  ASN478  MET479  VAL484  VAL487 

> <Gold.Protein.RotatedAtoms>
   36.3985   33.6139   42.3807 H   0  0  0  0  0  0  0  0  0  0  0  0  # atno 496  bound_to 491 

> <Gold.Score>
     Score     S(PLP)   S(hbond)     S(cho)   S(metal)  DE(clash)   DE(tors)     intcor
     39.93     -41.58       0.00       0.00       0.00       0.00       0.83       0.00

> <Gold.PLP.Fitness>
39.9271

> <Gold.PLP.PLP>
-41.5763

> <Gold.PLP.part.hbond>
-0.7347

> <Gold.PLP.part.metal>
0.0000

> <Gold.PLP.part.buried>
-3.7461

> <Gold.PLP.part.nonpolar>
-37.5280

> <Gold.PLP.part.repulsive>
0.2223

> <Gold.PLP.ligand.clash>
0.0000

> <Gold.PLP.ligand.torsion>
0.8251

> <Gold.PLP.Chemscore.Hbond>
0.0000

> <Gold.PLP.Chemscore.CHOScore>
0.0000

> <Gold.PLP.Chemscore.Metal>
0.0000

> <Gold.PLP.Chemscore.Internal.Correction>
0.0010

