#       Name:                EN300-126376_i001
#       Creating user name   aseyller
#       Creation time:       Fri Apr 21 19:04:07 2023


#       File generated by GOLD software.
#

@<TRIPOS>MOLECULE
EN300-126376_i001|benzaldehydes|mol2|705|dock9
    21    21     1
SMALL
USER_CHARGES


@<TRIPOS>ATOM
      1 C1          29.6256  39.4399  37.0391 C.3            1 <1>                0.0000
      2 O2          29.1632  38.1368  37.4822 O.3            1 <1>                0.0000
      3 C3          27.8385  37.9785  37.6310 C.2            1 <1>                0.0000
      4 O4          27.0833  38.8602  37.2960 O.2            1 <1>                0.0000
      5 C5          27.2933  36.7010  38.2157 C.3            1 <1>                0.0000
      6 N6          27.7991  36.5338  39.5804 N.pl3          1 <1>                0.0000
      7 C7          29.0778  36.2684  39.9178 C.2            1 <1>                0.0000
      8 C8          29.1707  36.1821  41.2683 C.2            1 <1>                0.0000
      9 C9          27.8993  36.4021  41.8009 C.2            1 <1>                0.0000
     10 C10         27.0481  36.6275  40.7328 C.2            1 <1>                0.0000
     11 C11         25.6622  36.8949  40.8091 C.2            1 <1>                0.0000
     12 O12         25.1213  36.9923  41.8921 O.2            1 <1>                0.0000
     13 H13         30.7127  39.4321  36.9601 H              1 <1>                0.0000
     14 H14         29.1923  39.6674  36.0651 H              1 <1>                0.0000
     15 H15         29.3190  40.1984  37.7592 H              1 <1>                0.0000
     16 H16         26.2044  36.7459  38.2348 H              1 <1>                0.0000
     17 H17         27.6116  35.8568  37.6043 H              1 <1>                0.0000
     18 H18         29.8961  36.1443  39.2241 H              1 <1>                0.0000
     19 H19         30.0694  35.9788  41.8317 H              1 <1>                0.0000
     20 H20         27.6317  36.4005  42.8472 H              1 <1>                0.0000
     21 H21         25.0843  37.0126  39.9044 H              1 <1>                0.0000
@<TRIPOS>BOND
    1    1    2 1     
    2    1   13 1     
    3    1   14 1     
    4    1   15 1     
    5    2    3 1     
    6    3    4 2     
    7    3    5 1     
    8    5    6 1     
    9    5   16 1     
   10    5   17 1     
   11    6    7 1     
   12    6   10 1     
   13    7    8 2     
   14    7   18 1     
   15    8    9 1     
   16    8   19 1     
   17    9   10 2     
   18    9   20 1     
   19   10   11 1     
   20   11   12 2     
   21   11   21 1     
@<TRIPOS>SUBSTRUCTURE
      1 ****           1
@<TRIPOS>COMMENT
> <Gold.Version>
2022.2.0

> <Gold.Id.Protein>
1qkm|1qkm_protein|mol2

> <Gold.Protein.RotatedTorsions>
[  496  491  490  487 ] final  -60.22 input  -89.99 | X-H torsion

> <Gold.Protein.ActiveResidues>
 MET295  LEU298  THR299  LEU301  ALA302  GLU305  TRP335  MET336  LEU339  MET340 
 GLY342  LEU343  ARG346  PHE356  ILE373  ILE376  PHE377  LEU380  LYS471  GLY472 
 MET473  HIS475  LEU476  LEU477  ASN478  MET479  VAL484  VAL487 

> <Gold.Protein.RotatedAtoms>
   36.4987   34.7323   41.4815 H   0  0  0  0  0  0  0  0  0  0  0  0  # atno 496  bound_to 491 

> <Gold.Score>
     Score     S(PLP)   S(hbond)     S(cho)   S(metal)  DE(clash)   DE(tors)     intcor
     42.28     -41.37       0.38       0.00       0.00       0.00       0.12       0.00

> <Gold.PLP.Fitness>
42.2825

> <Gold.PLP.PLP>
-41.3729

> <Gold.PLP.part.hbond>
-1.0000

> <Gold.PLP.part.metal>
0.0000

> <Gold.PLP.part.buried>
-2.2029

> <Gold.PLP.part.nonpolar>
-38.5315

> <Gold.PLP.part.repulsive>
0.2816

> <Gold.PLP.ligand.clash>
0.0000

> <Gold.PLP.ligand.torsion>
0.1217

> <Gold.PLP.Chemscore.Hbond>
0.3840

> <Gold.PLP.Chemscore.CHOScore>
0.0000

> <Gold.PLP.Chemscore.Metal>
0.0000

> <Gold.Chemscore.Hbonds>
donor molecule, donor type, donor heavy atom, donor atom, acceptor molecule, acceptor atom, score
      P1  H  1258  1270       L1    12  0.38

> <Gold.PLP.Chemscore.Internal.Correction>
0.0010

