#       Name:                EN300-126376_i001
#       Creating user name   aseyller
#       Creation time:       Fri Apr 21 19:04:14 2023


#       File generated by GOLD software.
#

@<TRIPOS>MOLECULE
EN300-126376_i001|benzaldehydes|mol2|705|dock17
    21    21     1
SMALL
USER_CHARGES


@<TRIPOS>ATOM
      1 C1          29.9660  39.8581  37.0000 C.3            1 <1>                0.0000
      2 O2          29.1283  38.7192  37.3311 O.3            1 <1>                0.0000
      3 C3          29.7502  37.6093  37.7591 C.2            1 <1>                0.0000
      4 O4          30.9523  37.5993  37.8815 O.2            1 <1>                0.0000
      5 C5          28.9491  36.3757  38.0873 C.3            1 <1>                0.0000
      6 N6          28.5132  36.4340  39.4847 N.pl3          1 <1>                0.0000
      7 C7          29.3157  36.3272  40.5635 C.2            1 <1>                0.0000
      8 C8          28.5628  36.4277  41.6873 C.2            1 <1>                0.0000
      9 C9          27.2337  36.6046  41.2990 C.2            1 <1>                0.0000
     10 C10         27.2157  36.6129  39.9148 C.2            1 <1>                0.0000
     11 C11         26.0755  36.7668  39.0937 C.2            1 <1>                0.0000
     12 O12         25.2128  37.5663  39.3961 O.2            1 <1>                0.0000
     13 H13         29.3393  40.6860  36.6688 H              1 <1>                0.0000
     14 H14         30.5323  40.1609  37.8809 H              1 <1>                0.0000
     15 H15         30.6555  39.5823  36.2021 H              1 <1>                0.0000
     16 H16         28.0764  36.3254  37.4362 H              1 <1>                0.0000
     17 H17         29.5669  35.4906  37.9359 H              1 <1>                0.0000
     18 H18         30.3859  36.1844  40.5368 H              1 <1>                0.0000
     19 H19         28.9272  36.3789  42.7028 H              1 <1>                0.0000
     20 H20         26.3824  36.7175  41.9538 H              1 <1>                0.0000
     21 H21         25.9714  36.1734  38.1973 H              1 <1>                0.0000
@<TRIPOS>BOND
    1    1    2 1     
    2    1   13 1     
    3    1   14 1     
    4    1   15 1     
    5    2    3 1     
    6    3    4 2     
    7    3    5 1     
    8    5    6 1     
    9    5   16 1     
   10    5   17 1     
   11    6    7 1     
   12    6   10 1     
   13    7    8 2     
   14    7   18 1     
   15    8    9 1     
   16    8   19 1     
   17    9   10 2     
   18    9   20 1     
   19   10   11 1     
   20   11   12 2     
   21   11   21 1     
@<TRIPOS>SUBSTRUCTURE
      1 ****           1
@<TRIPOS>COMMENT
> <Gold.Version>
2022.2.0

> <Gold.Id.Protein>
1qkm|1qkm_protein|mol2

> <Gold.Protein.RotatedTorsions>
[  496  491  490  487 ] final -170.70 input  -89.99 | X-H torsion

> <Gold.Protein.ActiveResidues>
 MET295  LEU298  THR299  LEU301  ALA302  GLU305  TRP335  MET336  LEU339  MET340 
 GLY342  LEU343  ARG346  PHE356  ILE373  ILE376  PHE377  LEU380  LYS471  GLY472 
 MET473  HIS475  LEU476  LEU477  ASN478  MET479  VAL484  VAL487 

> <Gold.Protein.RotatedAtoms>
   37.3058   33.5984   40.8001 H   0  0  0  0  0  0  0  0  0  0  0  0  # atno 496  bound_to 491 

> <Gold.Score>
     Score     S(PLP)   S(hbond)     S(cho)   S(metal)  DE(clash)   DE(tors)     intcor
     38.72     -37.25       0.00       1.00       0.00       0.00       0.76       0.00

> <Gold.PLP.Fitness>
38.7171

> <Gold.PLP.PLP>
-37.2453

> <Gold.PLP.part.hbond>
0.0000

> <Gold.PLP.part.metal>
0.0000

> <Gold.PLP.part.buried>
0.0802

> <Gold.PLP.part.nonpolar>
-37.2326

> <Gold.PLP.part.repulsive>
0.1173

> <Gold.PLP.ligand.clash>
0.0000

> <Gold.PLP.ligand.torsion>
0.7646

> <Gold.PLP.Chemscore.Hbond>
0.0000

> <Gold.PLP.Chemscore.CHOScore>
1.0000

> <Gold.PLP.Chemscore.Metal>
0.0000

> <Gold.Chemscore.Hbonds>
donor molecule, donor type, donor heavy atom, donor atom, acceptor molecule, acceptor atom, score
      L1  C     7    18       P1   470  1.00

> <Gold.PLP.Chemscore.Internal.Correction>
0.0010

