#       Name:                EN300-126376_i001
#       Creating user name   aseyller
#       Creation time:       Fri Apr 21 19:04:12 2023


#       File generated by GOLD software.
#

@<TRIPOS>MOLECULE
EN300-126376_i001|benzaldehydes|mol2|705|dock14
    21    21     1
SMALL
USER_CHARGES


@<TRIPOS>ATOM
      1 C1          32.5198  35.3022  36.8563 C.3            1 <1>                0.0000
      2 O2          31.5534  36.3369  37.1789 O.3            1 <1>                0.0000
      3 C3          30.9582  36.2617  38.3796 C.2            1 <1>                0.0000
      4 O4          31.1674  35.3140  39.0994 O.2            1 <1>                0.0000
      5 C5          30.0291  37.3595  38.8301 C.3            1 <1>                0.0000
      6 N6          28.8187  36.7689  39.4066 N.pl3          1 <1>                0.0000
      7 C7          28.7749  35.9660  40.4896 C.2            1 <1>                0.0000
      8 C8          27.4869  35.6137  40.7278 C.2            1 <1>                0.0000
      9 C9          26.6893  36.2193  39.7554 C.2            1 <1>                0.0000
     10 C10         27.5353  36.9463  38.9355 C.2            1 <1>                0.0000
     11 C11         27.1543  37.7203  37.8158 C.2            1 <1>                0.0000
     12 O12         27.9522  38.4775  37.3011 O.2            1 <1>                0.0000
     13 H13         32.9246  35.4809  35.8602 H              1 <1>                0.0000
     14 H14         33.3292  35.3208  37.5861 H              1 <1>                0.0000
     15 H15         32.0311  34.3283  36.8806 H              1 <1>                0.0000
     16 H16         30.5278  37.9720  39.5812 H              1 <1>                0.0000
     17 H17         29.7592  37.9802  37.9758 H              1 <1>                0.0000
     18 H18         29.6283  35.6538  41.0732 H              1 <1>                0.0000
     19 H19         27.1400  34.9768  41.5281 H              1 <1>                0.0000
     20 H20         25.6164  36.1391  39.6628 H              1 <1>                0.0000
     21 H21         26.1536  37.6384  37.4179 H              1 <1>                0.0000
@<TRIPOS>BOND
    1    1    2 1     
    2    1   13 1     
    3    1   14 1     
    4    1   15 1     
    5    2    3 1     
    6    3    4 2     
    7    3    5 1     
    8    5    6 1     
    9    5   16 1     
   10    5   17 1     
   11    6    7 1     
   12    6   10 1     
   13    7    8 2     
   14    7   18 1     
   15    8    9 1     
   16    8   19 1     
   17    9   10 2     
   18    9   20 1     
   19   10   11 1     
   20   11   12 2     
   21   11   21 1     
@<TRIPOS>SUBSTRUCTURE
      1 ****           1
@<TRIPOS>COMMENT
> <Gold.Version>
2022.2.0

> <Gold.Id.Protein>
1qkm|1qkm_protein|mol2

> <Gold.Protein.RotatedTorsions>
[  496  491  490  487 ] final   16.49 input  -89.99 | X-H torsion

> <Gold.Protein.ActiveResidues>
 MET295  LEU298  THR299  LEU301  ALA302  GLU305  TRP335  MET336  LEU339  MET340 
 GLY342  LEU343  ARG346  PHE356  ILE373  ILE376  PHE377  LEU380  LYS471  GLY472 
 MET473  HIS475  LEU476  LEU477  ASN478  MET479  VAL484  VAL487 

> <Gold.Protein.RotatedAtoms>
   36.2904   33.9666   42.3420 H   0  0  0  0  0  0  0  0  0  0  0  0  # atno 496  bound_to 491 

> <Gold.Score>
     Score     S(PLP)   S(hbond)     S(cho)   S(metal)  DE(clash)   DE(tors)     intcor
     40.14     -37.61       0.00       1.00       0.00       0.00       0.24       0.00

> <Gold.PLP.Fitness>
40.1360

> <Gold.PLP.PLP>
-37.6118

> <Gold.PLP.part.hbond>
0.0000

> <Gold.PLP.part.metal>
0.0000

> <Gold.PLP.part.buried>
-3.8136

> <Gold.PLP.part.nonpolar>
-34.5982

> <Gold.PLP.part.repulsive>
0.6515

> <Gold.PLP.ligand.clash>
0.0000

> <Gold.PLP.ligand.torsion>
0.2384

> <Gold.PLP.Chemscore.Hbond>
0.0000

> <Gold.PLP.Chemscore.CHOScore>
1.0000

> <Gold.PLP.Chemscore.Metal>
0.0000

> <Gold.Chemscore.Hbonds>
donor molecule, donor type, donor heavy atom, donor atom, acceptor molecule, acceptor atom, score
      L1  C     7    18       P1   470  1.00

> <Gold.PLP.Chemscore.Internal.Correction>
0.0010

