#       Name:                EN300-126376_i001
#       Creating user name   aseyller
#       Creation time:       Fri Apr 21 19:04:02 2023


#       File generated by GOLD software.
#

@<TRIPOS>MOLECULE
EN300-126376_i001|benzaldehydes|mol2|705|dock2
    21    21     1
SMALL
USER_CHARGES


@<TRIPOS>ATOM
      1 C1          31.7123  33.9815  38.6511 C.3            1 <1>                0.0000
      2 O2          30.4410  34.6831  38.6442 O.3            1 <1>                0.0000
      3 C3          30.4687  35.9914  38.3451 C.2            1 <1>                0.0000
      4 O4          31.5227  36.5376  38.1201 O.2            1 <1>                0.0000
      5 C5          29.1850  36.7790  38.2896 C.3            1 <1>                0.0000
      6 N6          28.4668  36.6320  39.5580 N.pl3          1 <1>                0.0000
      7 C7          28.9780  36.1190  40.6959 C.2            1 <1>                0.0000
      8 C8          28.0240  36.1420  41.6598 C.2            1 <1>                0.0000
      9 C9          26.8667  36.6913  41.1053 C.2            1 <1>                0.0000
     10 C10         27.1583  37.0004  39.7878 C.2            1 <1>                0.0000
     11 C11         26.2743  37.5784  38.8485 C.2            1 <1>                0.0000
     12 O12         26.7149  38.1934  37.8985 O.2            1 <1>                0.0000
     13 H13         31.5482  32.9348  38.9074 H              1 <1>                0.0000
     14 H14         32.1684  34.0465  37.6632 H              1 <1>                0.0000
     15 H15         32.3745  34.4365  39.3876 H              1 <1>                0.0000
     16 H16         29.4116  37.8316  38.1203 H              1 <1>                0.0000
     17 H17         28.5645  36.4053  37.4753 H              1 <1>                0.0000
     18 H18         29.9851  35.7493  40.8196 H              1 <1>                0.0000
     19 H19         28.1392  35.7960  42.6764 H              1 <1>                0.0000
     20 H20         25.9246  36.8488  41.6093 H              1 <1>                0.0000
     21 H21         25.2069  37.4732  38.9756 H              1 <1>                0.0000
@<TRIPOS>BOND
    1    1    2 1     
    2    1   13 1     
    3    1   14 1     
    4    1   15 1     
    5    2    3 1     
    6    3    4 2     
    7    3    5 1     
    8    5    6 1     
    9    5   16 1     
   10    5   17 1     
   11    6    7 1     
   12    6   10 1     
   13    7    8 2     
   14    7   18 1     
   15    8    9 1     
   16    8   19 1     
   17    9   10 2     
   18    9   20 1     
   19   10   11 1     
   20   11   12 2     
   21   11   21 1     
@<TRIPOS>SUBSTRUCTURE
      1 ****           1
@<TRIPOS>COMMENT
> <Gold.Version>
2022.2.0

> <Gold.Id.Protein>
1qkm|1qkm_protein|mol2

> <Gold.Protein.RotatedTorsions>
[  496  491  490  487 ] final  115.69 input  -89.99 | X-H torsion

> <Gold.Protein.ActiveResidues>
 MET295  LEU298  THR299  LEU301  ALA302  GLU305  TRP335  MET336  LEU339  MET340 
 GLY342  LEU343  ARG346  PHE356  ILE373  ILE376  PHE377  LEU380  LYS471  GLY472 
 MET473  HIS475  LEU476  LEU477  ASN478  MET479  VAL484  VAL487 

> <Gold.Protein.RotatedAtoms>
   37.0465   32.9396   41.6809 H   0  0  0  0  0  0  0  0  0  0  0  0  # atno 496  bound_to 491 

> <Gold.Score>
     Score     S(PLP)   S(hbond)     S(cho)   S(metal)  DE(clash)   DE(tors)     intcor
     41.63     -39.21       0.00       1.00       0.00       0.00       0.30       0.00

> <Gold.PLP.Fitness>
41.6257

> <Gold.PLP.PLP>
-39.2143

> <Gold.PLP.part.hbond>
0.0000

> <Gold.PLP.part.metal>
0.0000

> <Gold.PLP.part.buried>
-2.9771

> <Gold.PLP.part.nonpolar>
-36.3090

> <Gold.PLP.part.repulsive>
0.1083

> <Gold.PLP.ligand.clash>
0.0000

> <Gold.PLP.ligand.torsion>
0.2958

> <Gold.PLP.Chemscore.Hbond>
0.0000

> <Gold.PLP.Chemscore.CHOScore>
1.0000

> <Gold.PLP.Chemscore.Metal>
0.0000

> <Gold.Chemscore.Hbonds>
donor molecule, donor type, donor heavy atom, donor atom, acceptor molecule, acceptor atom, score
      L1  C     7    18       P1   470  1.00

> <Gold.PLP.Chemscore.Internal.Correction>
0.0029

