#       Name:                EN300-126376_i001
#       Creating user name   aseyller
#       Creation time:       Fri Apr 21 19:04:05 2023


#       File generated by GOLD software.
#

@<TRIPOS>MOLECULE
EN300-126376_i001|benzaldehydes|mol2|705|dock5
    21    21     1
SMALL
USER_CHARGES


@<TRIPOS>ATOM
      1 C1          26.7027  36.3457  38.6941 C.3            1 <1>                0.0000
      2 O2          28.1255  36.3996  38.9792 O.3            1 <1>                0.0000
      3 C3          28.8646  37.2376  38.2354 C.2            1 <1>                0.0000
      4 O4          28.3456  37.8809  37.3540 O.2            1 <1>                0.0000
      5 C5          30.3418  37.3763  38.4996 C.3            1 <1>                0.0000
      6 N6          30.9897  36.0712  38.3472 N.pl3          1 <1>                0.0000
      7 C7          30.7467  34.9801  39.1019 C.2            1 <1>                0.0000
      8 C8          31.5303  33.9601  38.6711 C.2            1 <1>                0.0000
      9 C9          32.2966  34.4293  37.6028 C.2            1 <1>                0.0000
     10 C10         31.9445  35.7534  37.4048 C.2            1 <1>                0.0000
     11 C11         32.4736  36.6222  36.4234 C.2            1 <1>                0.0000
     12 O12         33.2542  36.1990  35.5949 O.2            1 <1>                0.0000
     13 H13         26.2247  35.6316  39.3647 H              1 <1>                0.0000
     14 H14         26.2648  37.3328  38.8425 H              1 <1>                0.0000
     15 H15         26.5507  36.0323  37.6613 H              1 <1>                0.0000
     16 H16         30.7733  38.0814  37.7892 H              1 <1>                0.0000
     17 H17         30.4964  37.7424  39.5145 H              1 <1>                0.0000
     18 H18         30.0417  34.9270  39.9182 H              1 <1>                0.0000
     19 H19         31.5569  32.9618  39.0822 H              1 <1>                0.0000
     20 H20         33.0228  33.8655  37.0362 H              1 <1>                0.0000
     21 H21         32.1837  37.6625  36.4103 H              1 <1>                0.0000
@<TRIPOS>BOND
    1    1    2 1     
    2    1   13 1     
    3    1   14 1     
    4    1   15 1     
    5    2    3 1     
    6    3    4 2     
    7    3    5 1     
    8    5    6 1     
    9    5   16 1     
   10    5   17 1     
   11    6    7 1     
   12    6   10 1     
   13    7    8 2     
   14    7   18 1     
   15    8    9 1     
   16    8   19 1     
   17    9   10 2     
   18    9   20 1     
   19   10   11 1     
   20   11   12 2     
   21   11   21 1     
@<TRIPOS>SUBSTRUCTURE
      1 ****           1
@<TRIPOS>COMMENT
> <Gold.Version>
2022.2.0

> <Gold.Id.Protein>
1qkm|1qkm_protein|mol2

> <Gold.Protein.RotatedTorsions>
[  496  491  490  487 ] final  148.00 input  -89.99 | X-H torsion

> <Gold.Protein.ActiveResidues>
 MET295  LEU298  THR299  LEU301  ALA302  GLU305  TRP335  MET336  LEU339  MET340 
 GLY342  LEU343  ARG346  PHE356  ILE373  ILE376  PHE377  LEU380  LYS471  GLY472 
 MET473  HIS475  LEU476  LEU477  ASN478  MET479  VAL484  VAL487 

> <Gold.Protein.RotatedAtoms>
   37.2541   33.0865   41.2218 H   0  0  0  0  0  0  0  0  0  0  0  0  # atno 496  bound_to 491 

> <Gold.Score>
     Score     S(PLP)   S(hbond)     S(cho)   S(metal)  DE(clash)   DE(tors)     intcor
     39.49     -39.16       0.00       0.12       0.00       0.00       0.02       0.00

> <Gold.PLP.Fitness>
39.4891

> <Gold.PLP.PLP>
-39.1583

> <Gold.PLP.part.hbond>
0.0000

> <Gold.PLP.part.metal>
0.0000

> <Gold.PLP.part.buried>
-3.0831

> <Gold.PLP.part.nonpolar>
-36.0949

> <Gold.PLP.part.repulsive>
0.0906

> <Gold.PLP.ligand.clash>
0.0000

> <Gold.PLP.ligand.torsion>
0.0191

> <Gold.PLP.Chemscore.Hbond>
0.0000

> <Gold.PLP.Chemscore.CHOScore>
0.1220

> <Gold.PLP.Chemscore.Metal>
0.0000

> <Gold.Chemscore.Hbonds>
donor molecule, donor type, donor heavy atom, donor atom, acceptor molecule, acceptor atom, score
      L1  C     7    18       P1   470  0.12

> <Gold.PLP.Chemscore.Internal.Correction>
0.0029

