#       Name:                EN300-126376_i001
#       Creating user name   aseyller
#       Creation time:       Fri Apr 21 19:04:01 2023


#       File generated by GOLD software.
#

@<TRIPOS>MOLECULE
EN300-126376_i001|benzaldehydes|mol2|705|dock1
    21    21     1
SMALL
USER_CHARGES


@<TRIPOS>ATOM
      1 C1          26.5326  36.4064  38.8098 C.3            1 <1>                0.0000
      2 O2          27.8449  36.9182  38.4569 O.3            1 <1>                0.0000
      3 C3          28.8983  36.3879  39.0978 C.2            1 <1>                0.0000
      4 O4          28.7308  35.5148  39.9161 O.2            1 <1>                0.0000
      5 C5          30.2901  36.8814  38.7968 C.3            1 <1>                0.0000
      6 N6          31.1001  35.7744  38.2826 N.pl3          1 <1>                0.0000
      7 C7          31.2982  34.5920  38.9008 C.2            1 <1>                0.0000
      8 C8          32.1006  33.8175  38.1287 C.2            1 <1>                0.0000
      9 C9          32.4197  34.5423  36.9792 C.2            1 <1>                0.0000
     10 C10         31.7815  35.7663  37.0841 C.2            1 <1>                0.0000
     11 C11         31.8278  36.8178  36.1406 C.2            1 <1>                0.0000
     12 O12         32.5106  36.7082  35.1423 O.2            1 <1>                0.0000
     13 H13         25.7723  36.9185  38.2201 H              1 <1>                0.0000
     14 H14         26.4925  35.3367  38.6041 H              1 <1>                0.0000
     15 H15         26.3481  36.5797  39.8699 H              1 <1>                0.0000
     16 H16         30.2410  37.6734  38.0494 H              1 <1>                0.0000
     17 H17         30.7429  37.2700  39.7088 H              1 <1>                0.0000
     18 H18         30.8845  34.3078  39.8570 H              1 <1>                0.0000
     19 H19         32.4340  32.8171  38.3623 H              1 <1>                0.0000
     20 H20         33.0425  34.2099  36.1619 H              1 <1>                0.0000
     21 H21         31.2561  37.7187  36.3076 H              1 <1>                0.0000
@<TRIPOS>BOND
    1    1    2 1     
    2    1   13 1     
    3    1   14 1     
    4    1   15 1     
    5    2    3 1     
    6    3    4 2     
    7    3    5 1     
    8    5    6 1     
    9    5   16 1     
   10    5   17 1     
   11    6    7 1     
   12    6   10 1     
   13    7    8 2     
   14    7   18 1     
   15    8    9 1     
   16    8   19 1     
   17    9   10 2     
   18    9   20 1     
   19   10   11 1     
   20   11   12 2     
   21   11   21 1     
@<TRIPOS>SUBSTRUCTURE
      1 ****           1
@<TRIPOS>COMMENT
> <Gold.Version>
2022.2.0

> <Gold.Id.Protein>
1qkm|1qkm_protein|mol2

> <Gold.Protein.RotatedTorsions>
[  496  491  490  487 ] final  151.48 input  -89.99 | X-H torsion

> <Gold.Protein.ActiveResidues>
 MET295  LEU298  THR299  LEU301  ALA302  GLU305  TRP335  MET336  LEU339  MET340 
 GLY342  LEU343  ARG346  PHE356  ILE373  ILE376  PHE377  LEU380  LYS471  GLY472 
 MET473  HIS475  LEU476  LEU477  ASN478  MET479  VAL484  VAL487 

> <Gold.Protein.RotatedAtoms>
   37.2687   33.1178   41.1761 H   0  0  0  0  0  0  0  0  0  0  0  0  # atno 496  bound_to 491 

> <Gold.Score>
     Score     S(PLP)   S(hbond)     S(cho)   S(metal)  DE(clash)   DE(tors)     intcor
     39.78     -37.26       0.00       0.86       0.00       0.00       0.03       0.00

> <Gold.PLP.Fitness>
39.7845

> <Gold.PLP.PLP>
-37.2554

> <Gold.PLP.part.hbond>
0.0000

> <Gold.PLP.part.metal>
0.0000

> <Gold.PLP.part.buried>
-3.6580

> <Gold.PLP.part.nonpolar>
-34.3694

> <Gold.PLP.part.repulsive>
0.1898

> <Gold.PLP.ligand.clash>
0.0000

> <Gold.PLP.ligand.torsion>
0.0253

> <Gold.PLP.Chemscore.Hbond>
0.0000

> <Gold.PLP.Chemscore.CHOScore>
0.8589

> <Gold.PLP.Chemscore.Metal>
0.0000

> <Gold.Chemscore.Hbonds>
donor molecule, donor type, donor heavy atom, donor atom, acceptor molecule, acceptor atom, score
      L1  C     7    18       P1   470  0.86

> <Gold.PLP.Chemscore.Internal.Correction>
0.0029

