#       Name:                EN300-126376_i001
#       Creating user name   aseyller
#       Creation time:       Fri Apr 21 19:04:16 2023


#       File generated by GOLD software.
#

@<TRIPOS>MOLECULE
EN300-126376_i001|benzaldehydes|mol2|705|dock19
    21    21     1
SMALL
USER_CHARGES


@<TRIPOS>ATOM
      1 C1          32.3727  35.3802  37.5572 C.3            1 <1>                0.0000
      2 O2          31.4319  36.1106  38.3877 O.3            1 <1>                0.0000
      3 C3          30.5473  36.8992  37.7575 C.2            1 <1>                0.0000
      4 O4          30.5251  36.9378  36.5500 O.2            1 <1>                0.0000
      5 C5          29.5815  37.7365  38.5559 C.3            1 <1>                0.0000
      6 N6          28.6988  36.8597  39.3294 N.pl3          1 <1>                0.0000
      7 C7          29.0995  35.9174  40.2073 C.2            1 <1>                0.0000
      8 C8          28.0074  35.3061  40.7301 C.2            1 <1>                0.0000
      9 C9          26.8748  35.8876  40.1577 C.2            1 <1>                0.0000
     10 C10         27.3209  36.8651  39.2848 C.2            1 <1>                0.0000
     11 C11         26.5126  37.7071  38.4876 C.2            1 <1>                0.0000
     12 O12         27.0139  38.3677  37.6003 O.2            1 <1>                0.0000
     13 H13         33.0290  34.7832  38.1904 H              1 <1>                0.0000
     14 H14         31.8261  34.7242  36.8797 H              1 <1>                0.0000
     15 H15         32.9692  36.0850  36.9779 H              1 <1>                0.0000
     16 H16         30.1369  38.3835  39.2349 H              1 <1>                0.0000
     17 H17         28.9845  38.3473  37.8789 H              1 <1>                0.0000
     18 H18         30.1253  35.6866  40.4542 H              1 <1>                0.0000
     19 H19         28.0131  34.5100  41.4599 H              1 <1>                0.0000
     20 H20         25.8465  35.6271  40.3601 H              1 <1>                0.0000
     21 H21         25.4492  37.7632  38.6674 H              1 <1>                0.0000
@<TRIPOS>BOND
    1    1    2 1     
    2    1   13 1     
    3    1   14 1     
    4    1   15 1     
    5    2    3 1     
    6    3    4 2     
    7    3    5 1     
    8    5    6 1     
    9    5   16 1     
   10    5   17 1     
   11    6    7 1     
   12    6   10 1     
   13    7    8 2     
   14    7   18 1     
   15    8    9 1     
   16    8   19 1     
   17    9   10 2     
   18    9   20 1     
   19   10   11 1     
   20   11   12 2     
   21   11   21 1     
@<TRIPOS>SUBSTRUCTURE
      1 ****           1
@<TRIPOS>COMMENT
> <Gold.Version>
2022.2.0

> <Gold.Id.Protein>
1qkm|1qkm_protein|mol2

> <Gold.Protein.RotatedTorsions>
[  496  491  490  487 ] final  172.83 input  -89.99 | X-H torsion

> <Gold.Protein.ActiveResidues>
 MET295  LEU298  THR299  LEU301  ALA302  GLU305  TRP335  MET336  LEU339  MET340 
 GLY342  LEU343  ARG346  PHE356  ILE373  ILE376  PHE377  LEU380  LYS471  GLY472 
 MET473  HIS475  LEU476  LEU477  ASN478  MET479  VAL484  VAL487 

> <Gold.Protein.RotatedAtoms>
   37.3176   33.3628   40.9317 H   0  0  0  0  0  0  0  0  0  0  0  0  # atno 496  bound_to 491 

> <Gold.Score>
     Score     S(PLP)   S(hbond)     S(cho)   S(metal)  DE(clash)   DE(tors)     intcor
     39.47     -36.60       0.00       1.00       0.00       0.00       0.07       0.00

> <Gold.PLP.Fitness>
39.4699

> <Gold.PLP.PLP>
-36.6048

> <Gold.PLP.part.hbond>
0.0000

> <Gold.PLP.part.metal>
0.0000

> <Gold.PLP.part.buried>
-3.2989

> <Gold.PLP.part.nonpolar>
-33.9607

> <Gold.PLP.part.repulsive>
0.0616

> <Gold.PLP.ligand.clash>
0.0000

> <Gold.PLP.ligand.torsion>
0.0680

> <Gold.PLP.Chemscore.Hbond>
0.0000

> <Gold.PLP.Chemscore.CHOScore>
1.0000

> <Gold.PLP.Chemscore.Metal>
0.0000

> <Gold.Chemscore.Hbonds>
donor molecule, donor type, donor heavy atom, donor atom, acceptor molecule, acceptor atom, score
      L1  C     7    18       P1   470  1.00

> <Gold.PLP.Chemscore.Internal.Correction>
0.0010

