#       Name:                plp ligand
#       Creating user name   aseyller
#       Creation time:       Fri Apr 21 19:04:01 2023


#       File generated by GOLD software.
#

@<TRIPOS>MOLECULE
plp ligand
    21    21     1
SMALL
USER_CHARGES


@<TRIPOS>ATOM
      1 C1           3.6761  -0.5658  -0.5897 NONPOLAR       1 <1>                0.0000
      2 O2           2.7186  -0.2785   0.4634 ACCEPTOR       1 <1>                0.0000
      3 C3           1.4575  -0.0165   0.0855 NONPOLAR       1 <1>                0.0000
      4 O4           1.1634  -0.0270  -1.0864 ACCEPTOR       1 <1>                0.0000
      5 C5           0.4084   0.2906   1.1229 NONPOLAR       1 <1>                0.0000
      6 N6          -0.8748   0.5388   0.4611 NONPOLAR       1 <1>                0.0000
      7 C7          -1.3624   1.7494   0.1205 NONPOLAR       1 <1>                0.0000
      8 C8          -2.5720   1.5890  -0.4719 NONPOLAR       1 <1>                0.0000
      9 C9          -2.8560   0.2227  -0.5048 NONPOLAR       1 <1>                0.0000
     10 C10         -1.7813  -0.4267   0.0780 NONPOLAR       1 <1>                0.0000
     11 C11         -1.6432  -1.8221   0.2562 NONPOLAR       1 <1>                0.0000
     12 O12         -2.5217  -2.5721  -0.1188 ACCEPTOR       1 <1>                0.0000
     13 H13          4.6540  -0.7592  -0.1488                1 <1>                0.0000
     14 H14          3.3495  -1.4430  -1.1483                1 <1>                0.0000
     15 H15          3.7435   0.2890  -1.2626                1 <1>                0.0000
     16 H16          0.3094  -0.5567   1.8014                1 <1>                0.0000
     17 H17          0.7034   1.1753   1.6870                1 <1>                0.0000
     18 H18         -0.8690   2.6946   0.2921                1 <1>                0.0000
     19 H19         -3.2038   2.3788  -0.8507                1 <1>                0.0000
     20 H20         -3.7433  -0.2398  -0.9111                1 <1>                0.0000
     21 H21         -0.7564  -2.2214   0.7259                1 <1>                0.0000
@<TRIPOS>BOND
    1    1    2 1     
    2    1   13 1     
    3    1   14 1     
    4    1   15 1     
    5    2    3 1     
    6    3    4 2     
    7    3    5 1     
    8    5    6 1     
    9    5   16 1     
   10    5   17 1     
   11    6    7 1     
   12    6   10 1     
   13    7    8 2     
   14    7   18 1     
   15    8    9 1     
   16    8   19 1     
   17    9   10 2     
   18    9   20 1     
   19   10   11 1     
   20   11   12 2     
   21   11   21 1     
@<TRIPOS>SUBSTRUCTURE
      1 ****           1
@<TRIPOS>SET
DONOR_HYDROGENS      STATIC     ATOMS    <user>   **** ""
0
ATOM$RED        STATIC     ATOMS    COLORGROUP SYSTEM
0
