#       Name:                EN300-135785_i001
#       Creating user name   aseyller
#       Creation time:       Fri Apr 21 19:25:42 2023


#       File generated by GOLD software.
#

@<TRIPOS>MOLECULE
EN300-135785_i001|benzaldehydes|mol2|825|dock18
    19    19     1
SMALL
USER_CHARGES


@<TRIPOS>ATOM
      1 C1          29.2677  40.0836  36.7065 C.3            1 <1>                0.0000
      2 O2          29.8270  38.8935  36.1473 O.3            1 <1>                0.0000
      3 C3          30.1760  37.9076  37.0166 C.ar           1 <1>                0.0000
      4 C4          29.4839  37.7572  38.2063 C.ar           1 <1>                0.0000
      5 C5          29.8325  36.7548  39.0988 C.ar           1 <1>                0.0000
      6 Cl6         28.9546  36.5796  40.5862 Cl             1 <1>                0.0000
      7 C7          30.8716  35.8968  38.8113 C.ar           1 <1>                0.0000
      8 C8          31.5819  36.0356  37.6120 C.ar           1 <1>                0.0000
      9 C9          32.6896  35.1241  37.3003 C.2            1 <1>                0.0000
     10 O10         33.6061  35.5004  36.6004 O.2            1 <1>                0.0000
     11 C11         31.2245  37.0471  36.7076 C.ar           1 <1>                0.0000
     12 O12         31.9049  37.1918  35.5422 O.3            1 <1>                0.0000
     13 H13         29.0345  40.7862  35.9065 H              1 <1>                0.0000
     14 H14         28.3557  39.8359  37.2498 H              1 <1>                0.0000
     15 H15         29.9861  40.5365  37.3898 H              1 <1>                0.0000
     16 H16         28.6678  38.4247  38.4407 H              1 <1>                0.0000
     17 H17         31.1386  35.1180  39.5103 H              1 <1>                0.0000
     18 H18         32.6886  34.1186  37.6944 H              1 <1>                0.0000
     19 H19         32.7171  36.6694  35.4935 H              1 <1>                0.0000
@<TRIPOS>BOND
    1    1    2 1     
    2    1   13 1     
    3    1   14 1     
    4    1   15 1     
    5    2    3 1     
    6    3    4 ar    
    7    3   11 ar    
    8    4    5 ar    
    9    4   16 1     
   10    5    6 1     
   11    5    7 ar    
   12    7    8 ar    
   13    7   17 1     
   14    8    9 1     
   15    8   11 ar    
   16    9   10 2     
   17    9   18 1     
   18   11   12 1     
   19   12   19 1     
@<TRIPOS>SUBSTRUCTURE
      1 ****           1
@<TRIPOS>SET
DONOR_HYDROGENS      STATIC     ATOMS    <user>   **** ""
1 19
ATOM$RED        STATIC     ATOMS    COLORGROUP SYSTEM
1 19
@<TRIPOS>COMMENT
> <Gold.Version>
2022.2.0

> <Gold.Id.Protein>
1qkm|1qkm_protein|mol2

> <Gold.Protein.RotatedTorsions>
[  496  491  490  487 ] final -135.10 input  -89.99 | X-H torsion

> <Gold.Protein.ActiveResidues>
 MET295  LEU298  THR299  LEU301  ALA302  GLU305  TRP335  MET336  LEU339  MET340 
 GLY342  LEU343  ARG346  PHE356  ILE373  ILE376  PHE377  LEU380  LYS471  GLY472 
 MET473  HIS475  LEU476  LEU477  ASN478  MET479  VAL484  VAL487 

> <Gold.Protein.RotatedAtoms>
   37.1413   34.1471   40.7335 H   0  0  0  0  0  0  0  0  0  0  0  0  # atno 496  bound_to 491 

> <Gold.Score>
     Score     S(PLP)   S(hbond)     S(cho)   S(metal)  DE(clash)   DE(tors)     intcor
     35.37     -35.79       0.00       0.00       0.00       0.00       0.55       0.68

> <Gold.PLP.Fitness>
35.3727

> <Gold.PLP.PLP>
-35.7939

> <Gold.PLP.part.hbond>
0.0000

> <Gold.PLP.part.metal>
0.0000

> <Gold.PLP.part.buried>
-3.3359

> <Gold.PLP.part.nonpolar>
-33.2828

> <Gold.PLP.part.repulsive>
0.0003

> <Gold.PLP.ligand.clash>
0.0000

> <Gold.PLP.ligand.torsion>
0.5496

> <Gold.PLP.Chemscore.Hbond>
0.0000

> <Gold.PLP.Chemscore.CHOScore>
0.0000

> <Gold.PLP.Chemscore.Metal>
0.0000

> <Gold.PLP.Chemscore.Internal.Correction>
0.6780

