#       Name:                EN300-135785_i001
#       Creating user name   aseyller
#       Creation time:       Fri Apr 21 19:25:43 2023


#       File generated by GOLD software.
#

@<TRIPOS>MOLECULE
EN300-135785_i001|benzaldehydes|mol2|825|dock20
    19    19     1
SMALL
USER_CHARGES


@<TRIPOS>ATOM
      1 C1          31.7893  33.8156  38.5532 C.3            1 <1>                0.0000
      2 O2          32.0942  35.2083  38.4561 O.3            1 <1>                0.0000
      3 C3          31.0466  36.0598  38.2918 C.ar           1 <1>                0.0000
      4 C4          29.8066  35.7408  38.8186 C.ar           1 <1>                0.0000
      5 C5          28.7326  36.6029  38.6562 C.ar           1 <1>                0.0000
      6 Cl6         27.1842  36.1881  39.3229 Cl             1 <1>                0.0000
      7 C7          28.8878  37.7869  37.9690 C.ar           1 <1>                0.0000
      8 C8          30.1358  38.1244  37.4298 C.ar           1 <1>                0.0000
      9 C9          30.3070  39.3848  36.6970 C.2            1 <1>                0.0000
     10 O10         29.3896  40.1752  36.6272 O.2            1 <1>                0.0000
     11 C11         31.2228  37.2536  37.5996 C.ar           1 <1>                0.0000
     12 O12         32.4370  37.5691  37.0820 O.3            1 <1>                0.0000
     13 H13         32.7121  33.2497  38.6816 H              1 <1>                0.0000
     14 H14         31.1366  33.6454  39.4094 H              1 <1>                0.0000
     15 H15         31.2869  33.4894  37.6426 H              1 <1>                0.0000
     16 H16         29.6749  34.8150  39.3590 H              1 <1>                0.0000
     17 H17         28.0476  38.4543  37.8456 H              1 <1>                0.0000
     18 H18         31.2499  39.6083  36.2201 H              1 <1>                0.0000
     19 H19         32.4867  37.4914  36.1195 H              1 <1>                0.0000
@<TRIPOS>BOND
    1    1    2 1     
    2    1   13 1     
    3    1   14 1     
    4    1   15 1     
    5    2    3 1     
    6    3    4 ar    
    7    3   11 ar    
    8    4    5 ar    
    9    4   16 1     
   10    5    6 1     
   11    5    7 ar    
   12    7    8 ar    
   13    7   17 1     
   14    8    9 1     
   15    8   11 ar    
   16    9   10 2     
   17    9   18 1     
   18   11   12 1     
   19   12   19 1     
@<TRIPOS>SUBSTRUCTURE
      1 ****           1
@<TRIPOS>SET
DONOR_HYDROGENS      STATIC     ATOMS    <user>   **** ""
1 19
ATOM$RED        STATIC     ATOMS    COLORGROUP SYSTEM
1 19
@<TRIPOS>COMMENT
> <Gold.Version>
2022.2.0

> <Gold.Id.Protein>
1qkm|1qkm_protein|mol2

> <Gold.Protein.RotatedTorsions>
[  496  491  490  487 ] final -124.07 input  -89.99 | X-H torsion

> <Gold.Protein.ActiveResidues>
 MET295  LEU298  THR299  LEU301  ALA302  GLU305  TRP335  MET336  LEU339  MET340 
 GLY342  LEU343  ARG346  PHE356  ILE373  ILE376  PHE377  LEU380  LYS471  GLY472 
 MET473  HIS475  LEU476  LEU477  ASN478  MET479  VAL484  VAL487 

> <Gold.Protein.RotatedAtoms>
   37.0591   34.3026   40.7770 H   0  0  0  0  0  0  0  0  0  0  0  0  # atno 496  bound_to 491 

> <Gold.Score>
     Score     S(PLP)   S(hbond)     S(cho)   S(metal)  DE(clash)   DE(tors)     intcor
     35.64     -35.72       0.00       0.00       0.00       0.00       0.38       0.68

> <Gold.PLP.Fitness>
35.6388

> <Gold.PLP.PLP>
-35.7206

> <Gold.PLP.part.hbond>
0.0000

> <Gold.PLP.part.metal>
0.0000

> <Gold.PLP.part.buried>
-3.3806

> <Gold.PLP.part.nonpolar>
-32.6484

> <Gold.PLP.part.repulsive>
0.0737

> <Gold.PLP.ligand.clash>
0.0000

> <Gold.PLP.ligand.torsion>
0.3799

> <Gold.PLP.Chemscore.Hbond>
0.0000

> <Gold.PLP.Chemscore.CHOScore>
0.0000

> <Gold.PLP.Chemscore.Metal>
0.0000

> <Gold.PLP.Chemscore.Internal.Correction>
0.6780

