#       Name:                EN300-135785_i001
#       Creating user name   aseyller
#       Creation time:       Fri Apr 21 19:25:31 2023


#       File generated by GOLD software.
#

@<TRIPOS>MOLECULE
EN300-135785_i001
    19    19     1
SMALL
USER_CHARGES


@<TRIPOS>ATOM
      1 C1           2.7952   1.3500  -0.0479 C.3            1 <1>                0.0000
      2 O2           1.3896   1.6075  -0.0522 O.3            1 <1>                0.0000
      3 C3           0.5639   0.5269  -0.0490 C.ar           1 <1>                0.0000
      4 C4           1.0967  -0.7510  -0.0418 C.ar           1 <1>                0.0000
      5 C5           0.2626  -1.8588  -0.0384 C.ar           1 <1>                0.0000
      6 Cl6          0.9466  -3.4544  -0.0294 Cl             1 <1>                0.0000
      7 C7          -1.1060  -1.7000  -0.0417 C.ar           1 <1>                0.0000
      8 C8          -1.6610  -0.4139  -0.0490 C.ar           1 <1>                0.0000
      9 C9          -3.1185  -0.2388  -0.0522 C.2            1 <1>                0.0000
     10 O10         -3.8460  -1.2094  -0.0484 O.2            1 <1>                0.0000
     11 C11         -0.8157   0.7060  -0.0471 C.ar           1 <1>                0.0000
     12 O12         -1.3411   1.9573  -0.0541 O.3            1 <1>                0.0000
     13 H13          3.3378   2.2954  -0.0511 H              1 <1>                0.0000
     14 H14          3.0580   0.7833   0.8454 H              1 <1>                0.0000
     15 H15          3.0620   0.7750  -0.9346 H              1 <1>                0.0000
     16 H16          2.1683  -0.8858  -0.0391 H              1 <1>                0.0000
     17 H17         -1.7506  -2.5666  -0.0391 H              1 <1>                0.0000
     18 H18         -3.5430   0.7543  -0.0578 H              1 <1>                0.0000
     19 H19         -1.4989   2.3226   0.8272 H              1 <1>                0.0000
@<TRIPOS>BOND
    1    1    2 1     
    2    1   13 1     
    3    1   14 1     
    4    1   15 1     
    5    2    3 1     
    6    3    4 ar    
    7    3   11 ar    
    8    4    5 ar    
    9    4   16 1     
   10    5    6 1     
   11    5    7 ar    
   12    7    8 ar    
   13    7   17 1     
   14    8    9 1     
   15    8   11 ar    
   16    9   10 2     
   17    9   18 1     
   18   11   12 1     
   19   12   19 1     
@<TRIPOS>SUBSTRUCTURE
      1 ****           1
@<TRIPOS>SET
DONOR_HYDROGENS      STATIC     ATOMS    <user>   **** ""
1 19
ATOM$RED        STATIC     ATOMS    COLORGROUP SYSTEM
1 19
