#       Name:                EN300-135785_i001
#       Creating user name   aseyller
#       Creation time:       Fri Apr 21 19:25:36 2023


#       File generated by GOLD software.
#

@<TRIPOS>MOLECULE
EN300-135785_i001|benzaldehydes|mol2|825|dock7
    19    19     1
SMALL
USER_CHARGES


@<TRIPOS>ATOM
      1 C1          28.9690  36.9548  39.8229 C.3            1 <1>                0.0000
      2 O2          29.9477  37.5841  38.9934 O.3            1 <1>                0.0000
      3 C3          30.7614  36.7684  38.2708 C.ar           1 <1>                0.0000
      4 C4          30.9860  35.4680  38.6896 C.ar           1 <1>                0.0000
      5 C5          31.8140  34.6290  37.9592 C.ar           1 <1>                0.0000
      6 Cl6         32.0854  33.0011  38.4978 Cl             1 <1>                0.0000
      7 C7          32.4221  35.0802  36.8081 C.ar           1 <1>                0.0000
      8 C8          32.2052  36.3932  36.3709 C.ar           1 <1>                0.0000
      9 C9          32.8502  36.8791  35.1450 C.2            1 <1>                0.0000
     10 O10         32.6103  37.9951  34.7348 O.2            1 <1>                0.0000
     11 C11         31.3630  37.2392  37.1081 C.ar           1 <1>                0.0000
     12 O12         31.1447  38.5134  36.6950 O.3            1 <1>                0.0000
     13 H13         28.3887  37.7172  40.3427 H              1 <1>                0.0000
     14 H14         28.3043  36.3502  39.2057 H              1 <1>                0.0000
     15 H15         29.4673  36.3169  40.5529 H              1 <1>                0.0000
     16 H16         30.5138  35.1050  39.5905 H              1 <1>                0.0000
     17 H17         33.0660  34.4221  36.2435 H              1 <1>                0.0000
     18 H18         33.5386  36.2429  34.6085 H              1 <1>                0.0000
     19 H19         30.6795  38.5786  35.8498 H              1 <1>                0.0000
@<TRIPOS>BOND
    1    1    2 1     
    2    1   13 1     
    3    1   14 1     
    4    1   15 1     
    5    2    3 1     
    6    3    4 ar    
    7    3   11 ar    
    8    4    5 ar    
    9    4   16 1     
   10    5    6 1     
   11    5    7 ar    
   12    7    8 ar    
   13    7   17 1     
   14    8    9 1     
   15    8   11 ar    
   16    9   10 2     
   17    9   18 1     
   18   11   12 1     
   19   12   19 1     
@<TRIPOS>SUBSTRUCTURE
      1 ****           1
@<TRIPOS>SET
DONOR_HYDROGENS      STATIC     ATOMS    <user>   **** ""
1 19
ATOM$RED        STATIC     ATOMS    COLORGROUP SYSTEM
1 19
@<TRIPOS>COMMENT
> <Gold.Version>
2022.2.0

> <Gold.Id.Protein>
1qkm|1qkm_protein|mol2

> <Gold.Protein.RotatedTorsions>
[  496  491  490  487 ] final    2.32 input  -89.99 | X-H torsion

> <Gold.Protein.ActiveResidues>
 MET295  LEU298  THR299  LEU301  ALA302  GLU305  TRP335  MET336  LEU339  MET340 
 GLY342  LEU343  ARG346  PHE356  ILE373  ILE376  PHE377  LEU380  LYS471  GLY472 
 MET473  HIS475  LEU476  LEU477  ASN478  MET479  VAL484  VAL487 

> <Gold.Protein.RotatedAtoms>
   36.2614   34.1803   42.2546 H   0  0  0  0  0  0  0  0  0  0  0  0  # atno 496  bound_to 491 

> <Gold.Score>
     Score     S(PLP)   S(hbond)     S(cho)   S(metal)  DE(clash)   DE(tors)     intcor
     36.98     -36.99       0.00       0.00       0.00       0.00       0.34       0.68

> <Gold.PLP.Fitness>
36.9809

> <Gold.PLP.PLP>
-36.9898

> <Gold.PLP.part.hbond>
0.0000

> <Gold.PLP.part.metal>
0.0000

> <Gold.PLP.part.buried>
-3.8551

> <Gold.PLP.part.nonpolar>
-33.2221

> <Gold.PLP.part.repulsive>
0.1638

> <Gold.PLP.ligand.clash>
0.0000

> <Gold.PLP.ligand.torsion>
0.3434

> <Gold.PLP.Chemscore.Hbond>
0.0000

> <Gold.PLP.Chemscore.CHOScore>
0.0000

> <Gold.PLP.Chemscore.Metal>
0.0000

> <Gold.PLP.Chemscore.Internal.Correction>
0.6780

