#       Name:                EN300-135785_i001
#       Creating user name   aseyller
#       Creation time:       Fri Apr 21 19:25:32 2023


#       File generated by GOLD software.
#

@<TRIPOS>MOLECULE
EN300-135785_i001|benzaldehydes|mol2|825|dock1
    19    19     1
SMALL
USER_CHARGES


@<TRIPOS>ATOM
      1 C1          27.0824  36.4171  39.5132 C.3            1 <1>                0.0000
      2 O2          28.4605  36.1605  39.7910 O.3            1 <1>                0.0000
      3 C3          29.3703  36.6523  38.9079 C.ar           1 <1>                0.0000
      4 C4          29.0944  37.8122  38.2040 C.ar           1 <1>                0.0000
      5 C5          30.0161  38.3212  37.3016 C.ar           1 <1>                0.0000
      6 Cl6         29.6547  39.7766  36.4269 Cl             1 <1>                0.0000
      7 C7          31.2172  37.6784  37.0957 C.ar           1 <1>                0.0000
      8 C8          31.5117  36.5039  37.7999 C.ar           1 <1>                0.0000
      9 C9          32.7901  35.8150  37.5848 C.2            1 <1>                0.0000
     10 O10         33.3946  35.9691  36.5446 O.2            1 <1>                0.0000
     11 C11         30.5803  35.9930  38.7166 C.ar           1 <1>                0.0000
     12 O12         30.8538  34.8559  39.4050 O.3            1 <1>                0.0000
     13 H13         26.4654  35.9712  40.2933 H              1 <1>                0.0000
     14 H14         26.9117  37.4934  39.4857 H              1 <1>                0.0000
     15 H15         26.8191  35.9826  38.5489 H              1 <1>                0.0000
     16 H16         28.1556  38.3234  38.3585 H              1 <1>                0.0000
     17 H17         31.9311  38.0796  36.3915 H              1 <1>                0.0000
     18 H18         33.1924  35.1711  38.3530 H              1 <1>                0.0000
     19 H19         31.2053  35.0085  40.2929 H              1 <1>                0.0000
@<TRIPOS>BOND
    1    1    2 1     
    2    1   13 1     
    3    1   14 1     
    4    1   15 1     
    5    2    3 1     
    6    3    4 ar    
    7    3   11 ar    
    8    4    5 ar    
    9    4   16 1     
   10    5    6 1     
   11    5    7 ar    
   12    7    8 ar    
   13    7   17 1     
   14    8    9 1     
   15    8   11 ar    
   16    9   10 2     
   17    9   18 1     
   18   11   12 1     
   19   12   19 1     
@<TRIPOS>SUBSTRUCTURE
      1 ****           1
@<TRIPOS>SET
DONOR_HYDROGENS      STATIC     ATOMS    <user>   **** ""
1 19
ATOM$RED        STATIC     ATOMS    COLORGROUP SYSTEM
1 19
@<TRIPOS>COMMENT
> <Gold.Version>
2022.2.0

> <Gold.Id.Protein>
1qkm|1qkm_protein|mol2

> <Gold.Protein.RotatedTorsions>
[  496  491  490  487 ] final  153.76 input  -89.99 | X-H torsion

> <Gold.Protein.ActiveResidues>
 MET295  LEU298  THR299  LEU301  ALA302  GLU305  TRP335  MET336  LEU339  MET340 
 GLY342  LEU343  ARG346  PHE356  ILE373  ILE376  PHE377  LEU380  LYS471  GLY472 
 MET473  HIS475  LEU476  LEU477  ASN478  MET479  VAL484  VAL487 

> <Gold.Protein.RotatedAtoms>
   37.2773   33.1398   41.1468 H   0  0  0  0  0  0  0  0  0  0  0  0  # atno 496  bound_to 491 

> <Gold.Score>
     Score     S(PLP)   S(hbond)     S(cho)   S(metal)  DE(clash)   DE(tors)     intcor
     38.60     -35.91       1.00       0.00       0.00       0.00       0.50       0.68

> <Gold.PLP.Fitness>
38.5966

> <Gold.PLP.PLP>
-35.9111

> <Gold.PLP.part.hbond>
-1.0000

> <Gold.PLP.part.metal>
0.0000

> <Gold.PLP.part.buried>
-3.1637

> <Gold.PLP.part.nonpolar>
-32.1688

> <Gold.PLP.part.repulsive>
0.0453

> <Gold.PLP.ligand.clash>
0.0000

> <Gold.PLP.ligand.torsion>
0.4976

> <Gold.PLP.Chemscore.Hbond>
1.0000

> <Gold.PLP.Chemscore.CHOScore>
0.0000

> <Gold.PLP.Chemscore.Metal>
0.0000

> <Gold.Chemscore.Hbonds>
donor molecule, donor type, donor heavy atom, donor atom, acceptor molecule, acceptor atom, score
      L1  H    12    19       P1   470  1.00

> <Gold.PLP.Chemscore.Internal.Correction>
0.6807

