#       Name:                EN300-135785_i001
#       Creating user name   aseyller
#       Creation time:       Fri Apr 21 19:25:33 2023


#       File generated by GOLD software.
#

@<TRIPOS>MOLECULE
EN300-135785_i001|benzaldehydes|mol2|825|dock3
    19    19     1
SMALL
USER_CHARGES


@<TRIPOS>ATOM
      1 C1          31.7986  33.1840  38.1892 C.3            1 <1>                0.0000
      2 O2          32.0565  34.5553  37.8812 O.3            1 <1>                0.0000
      3 C3          31.1298  35.4642  38.2868 C.ar           1 <1>                0.0000
      4 C4          30.3534  35.2090  39.4044 C.ar           1 <1>                0.0000
      5 C5          29.4060  36.1299  39.8256 C.ar           1 <1>                0.0000
      6 Cl6         28.4405  35.7947  41.2290 Cl             1 <1>                0.0000
      7 C7          29.2270  37.3095  39.1366 C.ar           1 <1>                0.0000
      8 C8          30.0044  37.5828  38.0039 C.ar           1 <1>                0.0000
      9 C9          29.8182  38.8382  37.2661 C.2            1 <1>                0.0000
     10 O10         30.5284  39.0949  36.3168 O.2            1 <1>                0.0000
     11 C11         30.9663  36.6524  37.5821 C.ar           1 <1>                0.0000
     12 O12         31.7258  36.9056  36.4862 O.3            1 <1>                0.0000
     13 H13         32.6136  32.5670  37.8106 H              1 <1>                0.0000
     14 H14         31.7226  33.0624  39.2698 H              1 <1>                0.0000
     15 H15         30.8629  32.8764  37.7222 H              1 <1>                0.0000
     16 H16         30.4862  34.2871  39.9513 H              1 <1>                0.0000
     17 H17         28.4875  38.0229  39.4693 H              1 <1>                0.0000
     18 H18         29.0488  39.5332  37.5685 H              1 <1>                0.0000
     19 H19         31.2654  37.3998  35.7942 H              1 <1>                0.0000
@<TRIPOS>BOND
    1    1    2 1     
    2    1   13 1     
    3    1   14 1     
    4    1   15 1     
    5    2    3 1     
    6    3    4 ar    
    7    3   11 ar    
    8    4    5 ar    
    9    4   16 1     
   10    5    6 1     
   11    5    7 ar    
   12    7    8 ar    
   13    7   17 1     
   14    8    9 1     
   15    8   11 ar    
   16    9   10 2     
   17    9   18 1     
   18   11   12 1     
   19   12   19 1     
@<TRIPOS>SUBSTRUCTURE
      1 ****           1
@<TRIPOS>SET
DONOR_HYDROGENS      STATIC     ATOMS    <user>   **** ""
1 19
ATOM$RED        STATIC     ATOMS    COLORGROUP SYSTEM
1 19
@<TRIPOS>COMMENT
> <Gold.Version>
2022.2.0

> <Gold.Id.Protein>
1qkm|1qkm_protein|mol2

> <Gold.Protein.RotatedTorsions>
[  496  491  490  487 ] final  106.50 input  -89.99 | X-H torsion

> <Gold.Protein.ActiveResidues>
 MET295  LEU298  THR299  LEU301  ALA302  GLU305  TRP335  MET336  LEU339  MET340 
 GLY342  LEU343  ARG346  PHE356  ILE373  ILE376  PHE377  LEU380  LYS471  GLY472 
 MET473  HIS475  LEU476  LEU477  ASN478  MET479  VAL484  VAL487 

> <Gold.Protein.RotatedAtoms>
   36.9692   32.9488   41.8104 H   0  0  0  0  0  0  0  0  0  0  0  0  # atno 496  bound_to 491 

> <Gold.Score>
     Score     S(PLP)   S(hbond)     S(cho)   S(metal)  DE(clash)   DE(tors)     intcor
     37.72     -37.78       0.00       0.00       0.00       0.00       0.37       0.68

> <Gold.PLP.Fitness>
37.7176

> <Gold.PLP.PLP>
-37.7842

> <Gold.PLP.part.hbond>
0.0000

> <Gold.PLP.part.metal>
0.0000

> <Gold.PLP.part.buried>
-2.2478

> <Gold.PLP.part.nonpolar>
-35.7276

> <Gold.PLP.part.repulsive>
0.0399

> <Gold.PLP.ligand.clash>
0.0000

> <Gold.PLP.ligand.torsion>
0.3736

> <Gold.PLP.Chemscore.Hbond>
0.0000

> <Gold.PLP.Chemscore.CHOScore>
0.0000

> <Gold.PLP.Chemscore.Metal>
0.0000

> <Gold.PLP.Chemscore.Internal.Correction>
0.6807

