#       Name:                EN300-135785_i001
#       Creating user name   aseyller
#       Creation time:       Fri Apr 21 19:25:43 2023


#       File generated by GOLD software.
#

@<TRIPOS>MOLECULE
EN300-135785_i001|benzaldehydes|mol2|825|dock19
    19    19     1
SMALL
USER_CHARGES


@<TRIPOS>ATOM
      1 C1          32.5618  35.4325  37.7188 C.3            1 <1>                0.0000
      2 O2          31.6640  35.6846  38.8016 O.3            1 <1>                0.0000
      3 C3          30.5444  36.4036  38.5208 C.ar           1 <1>                0.0000
      4 C4          30.5351  37.2789  37.4481 C.ar           1 <1>                0.0000
      5 C5          29.3980  38.0162  37.1541 C.ar           1 <1>                0.0000
      6 Cl6         29.4028  39.1093  35.8054 Cl             1 <1>                0.0000
      7 C7          28.2644  37.8855  37.9262 C.ar           1 <1>                0.0000
      8 C8          28.2574  37.0043  39.0150 C.ar           1 <1>                0.0000
      9 C9          27.0523  36.8608  39.8409 C.2            1 <1>                0.0000
     10 O10         27.0332  36.0604  40.7521 O.2            1 <1>                0.0000
     11 C11         29.4070  36.2551  39.3080 C.ar           1 <1>                0.0000
     12 O12         29.4129  35.3979  40.3602 O.3            1 <1>                0.0000
     13 H13         33.4107  34.8510  38.0785 H              1 <1>                0.0000
     14 H14         32.0432  34.8744  36.9393 H              1 <1>                0.0000
     15 H15         32.9164  36.3799  37.3128 H              1 <1>                0.0000
     16 H16         31.4188  37.3882  36.8368 H              1 <1>                0.0000
     17 H17         27.3819  38.4624  37.6924 H              1 <1>                0.0000
     18 H18         26.1827  37.4682  39.6373 H              1 <1>                0.0000
     19 H19         30.1689  35.5079  40.9529 H              1 <1>                0.0000
@<TRIPOS>BOND
    1    1    2 1     
    2    1   13 1     
    3    1   14 1     
    4    1   15 1     
    5    2    3 1     
    6    3    4 ar    
    7    3   11 ar    
    8    4    5 ar    
    9    4   16 1     
   10    5    6 1     
   11    5    7 ar    
   12    7    8 ar    
   13    7   17 1     
   14    8    9 1     
   15    8   11 ar    
   16    9   10 2     
   17    9   18 1     
   18   11   12 1     
   19   12   19 1     
@<TRIPOS>SUBSTRUCTURE
      1 ****           1
@<TRIPOS>SET
DONOR_HYDROGENS      STATIC     ATOMS    <user>   **** ""
1 19
ATOM$RED        STATIC     ATOMS    COLORGROUP SYSTEM
1 19
@<TRIPOS>COMMENT
> <Gold.Version>
2022.2.0

> <Gold.Id.Protein>
1qkm|1qkm_protein|mol2

> <Gold.Protein.RotatedTorsions>
[  496  491  490  487 ] final   91.84 input  -89.99 | X-H torsion

> <Gold.Protein.ActiveResidues>
 MET295  LEU298  THR299  LEU301  ALA302  GLU305  TRP335  MET336  LEU339  MET340 
 GLY342  LEU343  ARG346  PHE356  ILE373  ILE376  PHE377  LEU380  LYS471  GLY472 
 MET473  HIS475  LEU476  LEU477  ASN478  MET479  VAL484  VAL487 

> <Gold.Protein.RotatedAtoms>
   36.8372   33.0103   42.0020 H   0  0  0  0  0  0  0  0  0  0  0  0  # atno 496  bound_to 491 

> <Gold.Score>
     Score     S(PLP)   S(hbond)     S(cho)   S(metal)  DE(clash)   DE(tors)     intcor
     36.01     -33.06       0.99       0.00       0.00       0.00       0.35       0.68

> <Gold.PLP.Fitness>
36.0069

> <Gold.PLP.PLP>
-33.0645

> <Gold.PLP.part.hbond>
-1.0000

> <Gold.PLP.part.metal>
0.0000

> <Gold.PLP.part.buried>
-2.3280

> <Gold.PLP.part.nonpolar>
-30.2334

> <Gold.PLP.part.repulsive>
0.1873

> <Gold.PLP.ligand.clash>
0.0000

> <Gold.PLP.ligand.torsion>
0.3547

> <Gold.PLP.Chemscore.Hbond>
0.9913

> <Gold.PLP.Chemscore.CHOScore>
0.0000

> <Gold.PLP.Chemscore.Metal>
0.0000

> <Gold.Chemscore.Hbonds>
donor molecule, donor type, donor heavy atom, donor atom, acceptor molecule, acceptor atom, score
      L1  H    12    19       P1   470  0.99

> <Gold.PLP.Chemscore.Internal.Correction>
0.6780

