#       Name:                EN300-135785_i001
#       Creating user name   aseyller
#       Creation time:       Fri Apr 21 19:25:39 2023


#       File generated by GOLD software.
#

@<TRIPOS>MOLECULE
EN300-135785_i001|benzaldehydes|mol2|825|dock13
    19    19     1
SMALL
USER_CHARGES


@<TRIPOS>ATOM
      1 C1          32.0298  33.4035  38.1995 C.3            1 <1>                0.0000
      2 O2          32.3979  34.6392  37.5832 O.3            1 <1>                0.0000
      3 C3          31.5894  35.7084  37.8124 C.ar           1 <1>                0.0000
      4 C4          30.7952  35.7450  38.9460 C.ar           1 <1>                0.0000
      5 C5          29.9677  36.8311  39.1880 C.ar           1 <1>                0.0000
      6 Cl6         28.9781  36.8615  40.6141 Cl             1 <1>                0.0000
      7 C7          29.9271  37.8864  38.3032 C.ar           1 <1>                0.0000
      8 C8          30.7244  37.8649  37.1516 C.ar           1 <1>                0.0000
      9 C9          30.6853  38.9867  36.2056 C.2            1 <1>                0.0000
     10 O10         30.0545  39.9868  36.4763 O.2            1 <1>                0.0000
     11 C11         31.5650  36.7676  36.9108 C.ar           1 <1>                0.0000
     12 O12         32.3423  36.7348  35.7988 O.3            1 <1>                0.0000
     13 H13         32.7568  32.6353  37.9359 H              1 <1>                0.0000
     14 H14         32.0102  33.5291  39.2821 H              1 <1>                0.0000
     15 H15         31.0417  33.1036  37.8505 H              1 <1>                0.0000
     16 H16         30.8201  34.9226  39.6456 H              1 <1>                0.0000
     17 H17         29.2806  38.7296  38.4970 H              1 <1>                0.0000
     18 H18         31.2184  38.9216  35.2686 H              1 <1>                0.0000
     19 H19         32.5870  35.8431  35.5161 H              1 <1>                0.0000
@<TRIPOS>BOND
    1    1    2 1     
    2    1   13 1     
    3    1   14 1     
    4    1   15 1     
    5    2    3 1     
    6    3    4 ar    
    7    3   11 ar    
    8    4    5 ar    
    9    4   16 1     
   10    5    6 1     
   11    5    7 ar    
   12    7    8 ar    
   13    7   17 1     
   14    8    9 1     
   15    8   11 ar    
   16    9   10 2     
   17    9   18 1     
   18   11   12 1     
   19   12   19 1     
@<TRIPOS>SUBSTRUCTURE
      1 ****           1
@<TRIPOS>SET
DONOR_HYDROGENS      STATIC     ATOMS    <user>   **** ""
1 19
ATOM$RED        STATIC     ATOMS    COLORGROUP SYSTEM
1 19
@<TRIPOS>COMMENT
> <Gold.Version>
2022.2.0

> <Gold.Id.Protein>
1qkm|1qkm_protein|mol2

> <Gold.Protein.RotatedTorsions>
[  496  491  490  487 ] final  -10.36 input  -89.99 | X-H torsion

> <Gold.Protein.ActiveResidues>
 MET295  LEU298  THR299  LEU301  ALA302  GLU305  TRP335  MET336  LEU339  MET340 
 GLY342  LEU343  ARG346  PHE356  ILE373  ILE376  PHE377  LEU380  LYS471  GLY472 
 MET473  HIS475  LEU476  LEU477  ASN478  MET479  VAL484  VAL487 

> <Gold.Protein.RotatedAtoms>
   36.2627   34.3541   42.1400 H   0  0  0  0  0  0  0  0  0  0  0  0  # atno 496  bound_to 491 

> <Gold.Score>
     Score     S(PLP)   S(hbond)     S(cho)   S(metal)  DE(clash)   DE(tors)     intcor
     36.33     -36.35       0.00       0.00       0.00       0.00       0.35       0.68

> <Gold.PLP.Fitness>
36.3301

> <Gold.PLP.PLP>
-36.3499

> <Gold.PLP.part.hbond>
0.0000

> <Gold.PLP.part.metal>
0.0000

> <Gold.PLP.part.buried>
-3.9605

> <Gold.PLP.part.nonpolar>
-32.9863

> <Gold.PLP.part.repulsive>
0.0226

> <Gold.PLP.ligand.clash>
0.0000

> <Gold.PLP.ligand.torsion>
0.3488

> <Gold.PLP.Chemscore.Hbond>
0.0000

> <Gold.PLP.Chemscore.CHOScore>
0.0000

> <Gold.PLP.Chemscore.Metal>
0.0000

> <Gold.PLP.Chemscore.Internal.Correction>
0.6780

