#       Name:                EN300-135785_i001
#       Creating user name   aseyller
#       Creation time:       Fri Apr 21 19:25:38 2023


#       File generated by GOLD software.
#

@<TRIPOS>MOLECULE
EN300-135785_i001|benzaldehydes|mol2|825|dock10
    19    19     1
SMALL
USER_CHARGES


@<TRIPOS>ATOM
      1 C1          27.8931  36.3985  41.4642 C.3            1 <1>                0.0000
      2 O2          28.6870  35.5663  40.6160 O.3            1 <1>                0.0000
      3 C3          29.2235  36.1462  39.5090 C.ar           1 <1>                0.0000
      4 C4          28.5685  37.1989  38.8929 C.ar           1 <1>                0.0000
      5 C5          29.1080  37.7964  37.7638 C.ar           1 <1>                0.0000
      6 Cl6         28.2740  39.1153  37.0030 Cl             1 <1>                0.0000
      7 C7          30.3024  37.3491  37.2427 C.ar           1 <1>                0.0000
      8 C8          30.9777  36.2851  37.8541 C.ar           1 <1>                0.0000
      9 C9          32.2509  35.8047  37.3034 C.2            1 <1>                0.0000
     10 O10         32.4997  34.6176  37.2975 O.2            1 <1>                0.0000
     11 C11         30.4332  35.6851  38.9996 C.ar           1 <1>                0.0000
     12 O12         31.0778  34.6534  39.6013 O.3            1 <1>                0.0000
     13 H13         27.5272  35.8134  42.3079 H              1 <1>                0.0000
     14 H14         28.4997  37.2262  41.8319 H              1 <1>                0.0000
     15 H15         27.0471  36.7907  40.8998 H              1 <1>                0.0000
     16 H16         27.6316  37.5566  39.2939 H              1 <1>                0.0000
     17 H17         30.7177  37.8184  36.3630 H              1 <1>                0.0000
     18 H18         32.9659  36.5084  36.9034 H              1 <1>                0.0000
     19 H19         31.4438  34.8710  40.4694 H              1 <1>                0.0000
@<TRIPOS>BOND
    1    1    2 1     
    2    1   13 1     
    3    1   14 1     
    4    1   15 1     
    5    2    3 1     
    6    3    4 ar    
    7    3   11 ar    
    8    4    5 ar    
    9    4   16 1     
   10    5    6 1     
   11    5    7 ar    
   12    7    8 ar    
   13    7   17 1     
   14    8    9 1     
   15    8   11 ar    
   16    9   10 2     
   17    9   18 1     
   18   11   12 1     
   19   12   19 1     
@<TRIPOS>SUBSTRUCTURE
      1 ****           1
@<TRIPOS>SET
DONOR_HYDROGENS      STATIC     ATOMS    <user>   **** ""
1 19
ATOM$RED        STATIC     ATOMS    COLORGROUP SYSTEM
1 19
@<TRIPOS>COMMENT
> <Gold.Version>
2022.2.0

> <Gold.Id.Protein>
1qkm|1qkm_protein|mol2

> <Gold.Protein.RotatedTorsions>
[  496  491  490  487 ] final -151.47 input  -89.99 | X-H torsion

> <Gold.Protein.ActiveResidues>
 MET295  LEU298  THR299  LEU301  ALA302  GLU305  TRP335  MET336  LEU339  MET340 
 GLY342  LEU343  ARG346  PHE356  ILE373  ILE376  PHE377  LEU380  LYS471  GLY472 
 MET473  HIS475  LEU476  LEU477  ASN478  MET479  VAL484  VAL487 

> <Gold.Protein.RotatedAtoms>
   37.2386   33.8968   40.7248 H   0  0  0  0  0  0  0  0  0  0  0  0  # atno 496  bound_to 491 

> <Gold.Score>
     Score     S(PLP)   S(hbond)     S(cho)   S(metal)  DE(clash)   DE(tors)     intcor
     36.88     -34.52       1.00       0.00       0.00       0.00       0.66       0.68

> <Gold.PLP.Fitness>
36.8770

> <Gold.PLP.PLP>
-34.5239

> <Gold.PLP.part.hbond>
-1.0000

> <Gold.PLP.part.metal>
0.0000

> <Gold.PLP.part.buried>
-1.5630

> <Gold.PLP.part.nonpolar>
-32.4417

> <Gold.PLP.part.repulsive>
0.1257

> <Gold.PLP.ligand.clash>
0.0000

> <Gold.PLP.ligand.torsion>
0.6624

> <Gold.PLP.Chemscore.Hbond>
1.0000

> <Gold.PLP.Chemscore.CHOScore>
0.0000

> <Gold.PLP.Chemscore.Metal>
0.0000

> <Gold.Chemscore.Hbonds>
donor molecule, donor type, donor heavy atom, donor atom, acceptor molecule, acceptor atom, score
      L1  H    12    19       P1   470  1.00

> <Gold.PLP.Chemscore.Internal.Correction>
0.6780

