#       Name:                EN300-135785_i001
#       Creating user name   aseyller
#       Creation time:       Fri Apr 21 19:25:39 2023


#       File generated by GOLD software.
#

@<TRIPOS>MOLECULE
EN300-135785_i001|benzaldehydes|mol2|825|dock12
    19    19     1
SMALL
USER_CHARGES


@<TRIPOS>ATOM
      1 C1          29.9295  40.1397  36.7640 C.3            1 <1>                0.0000
      2 O2          29.4908  38.8850  37.2886 O.3            1 <1>                0.0000
      3 C3          30.3422  37.8318  37.1637 C.ar           1 <1>                0.0000
      4 C4          31.2821  37.8187  36.1472 C.ar           1 <1>                0.0000
      5 C5          32.1544  36.7493  36.0120 C.ar           1 <1>                0.0000
      6 Cl6         33.3271  36.7482  34.7320 Cl             1 <1>                0.0000
      7 C7          32.0957  35.6878  36.8884 C.ar           1 <1>                0.0000
      8 C8          31.1505  35.6856  37.9223 C.ar           1 <1>                0.0000
      9 C9          31.0837  34.5574  38.8591 C.2            1 <1>                0.0000
     10 O10         31.8181  33.6031  38.7127 O.2            1 <1>                0.0000
     11 C11         30.2721  36.7709  38.0608 C.ar           1 <1>                0.0000
     12 O12         29.3520  36.7808  39.0584 O.3            1 <1>                0.0000
     13 H13         29.1582  40.8921  36.9288 H              1 <1>                0.0000
     14 H14         30.8470  40.4434  37.2681 H              1 <1>                0.0000
     15 H15         30.1180  40.0407  35.6950 H              1 <1>                0.0000
     16 H16         31.3360  38.6462  35.4552 H              1 <1>                0.0000
     17 H17         32.7777  34.8575  36.7781 H              1 <1>                0.0000
     18 H18         30.3807  34.5771  39.6788 H              1 <1>                0.0000
     19 H19         29.7134  36.5656  39.9291 H              1 <1>                0.0000
@<TRIPOS>BOND
    1    1    2 1     
    2    1   13 1     
    3    1   14 1     
    4    1   15 1     
    5    2    3 1     
    6    3    4 ar    
    7    3   11 ar    
    8    4    5 ar    
    9    4   16 1     
   10    5    6 1     
   11    5    7 ar    
   12    7    8 ar    
   13    7   17 1     
   14    8    9 1     
   15    8   11 ar    
   16    9   10 2     
   17    9   18 1     
   18   11   12 1     
   19   12   19 1     
@<TRIPOS>SUBSTRUCTURE
      1 ****           1
@<TRIPOS>SET
DONOR_HYDROGENS      STATIC     ATOMS    <user>   **** ""
1 19
ATOM$RED        STATIC     ATOMS    COLORGROUP SYSTEM
1 19
@<TRIPOS>COMMENT
> <Gold.Version>
2022.2.0

> <Gold.Id.Protein>
1qkm|1qkm_protein|mol2

> <Gold.Protein.RotatedTorsions>
[  496  491  490  487 ] final -118.62 input  -89.99 | X-H torsion

> <Gold.Protein.ActiveResidues>
 MET295  LEU298  THR299  LEU301  ALA302  GLU305  TRP335  MET336  LEU339  MET340 
 GLY342  LEU343  ARG346  PHE356  ILE373  ILE376  PHE377  LEU380  LYS471  GLY472 
 MET473  HIS475  LEU476  LEU477  ASN478  MET479  VAL484  VAL487 

> <Gold.Protein.RotatedAtoms>
   37.0146   34.3735   40.8092 H   0  0  0  0  0  0  0  0  0  0  0  0  # atno 496  bound_to 491 

> <Gold.Score>
     Score     S(PLP)   S(hbond)     S(cho)   S(metal)  DE(clash)   DE(tors)     intcor
     36.20     -36.24       0.00       0.00       0.00       0.00       0.36       0.68

> <Gold.PLP.Fitness>
36.2038

> <Gold.PLP.PLP>
-36.2398

> <Gold.PLP.part.hbond>
0.0000

> <Gold.PLP.part.metal>
0.0000

> <Gold.PLP.part.buried>
-4.2521

> <Gold.PLP.part.nonpolar>
-33.0315

> <Gold.PLP.part.repulsive>
0.0864

> <Gold.PLP.ligand.clash>
0.0000

> <Gold.PLP.ligand.torsion>
0.3570

> <Gold.PLP.Chemscore.Hbond>
0.0000

> <Gold.PLP.Chemscore.CHOScore>
0.0000

> <Gold.PLP.Chemscore.Metal>
0.0000

> <Gold.PLP.Chemscore.Internal.Correction>
0.6780

