#       Name:                EN300-135785_i001
#       Creating user name   aseyller
#       Creation time:       Fri Apr 21 19:25:35 2023


#       File generated by GOLD software.
#

@<TRIPOS>MOLECULE
EN300-135785_i001|benzaldehydes|mol2|825|dock5
    19    19     1
SMALL
USER_CHARGES


@<TRIPOS>ATOM
      1 C1          29.4581  39.6132  36.9997 C.3            1 <1>                0.0000
      2 O2          30.5997  38.7542  36.9705 O.3            1 <1>                0.0000
      3 C3          30.5462  37.6298  37.7337 C.ar           1 <1>                0.0000
      4 C4          29.7081  37.5801  38.8346 C.ar           1 <1>                0.0000
      5 C5          29.6468  36.4380  39.6186 C.ar           1 <1>                0.0000
      6 Cl6         28.5907  36.3918  40.9957 Cl             1 <1>                0.0000
      7 C7          30.4191  35.3394  39.3103 C.ar           1 <1>                0.0000
      8 C8          31.2722  35.3735  38.1998 C.ar           1 <1>                0.0000
      9 C9          32.0971  34.2059  37.8664 C.2            1 <1>                0.0000
     10 O10         31.7640  33.1012  38.2406 O.2            1 <1>                0.0000
     11 C11         31.3292  36.5281  37.4045 C.ar           1 <1>                0.0000
     12 O12         32.1517  36.5736  36.3259 O.3            1 <1>                0.0000
     13 H13         29.6316  40.4704  36.3491 H              1 <1>                0.0000
     14 H14         28.5821  39.0651  36.6527 H              1 <1>                0.0000
     15 H15         29.2898  39.9592  38.0195 H              1 <1>                0.0000
     16 H16         29.0987  38.4361  39.0844 H              1 <1>                0.0000
     17 H17         30.3671  34.4527  39.9246 H              1 <1>                0.0000
     18 H18         33.0005  34.3305  37.2878 H              1 <1>                0.0000
     19 H19         32.7916  37.2982  36.3495 H              1 <1>                0.0000
@<TRIPOS>BOND
    1    1    2 1     
    2    1   13 1     
    3    1   14 1     
    4    1   15 1     
    5    2    3 1     
    6    3    4 ar    
    7    3   11 ar    
    8    4    5 ar    
    9    4   16 1     
   10    5    6 1     
   11    5    7 ar    
   12    7    8 ar    
   13    7   17 1     
   14    8    9 1     
   15    8   11 ar    
   16    9   10 2     
   17    9   18 1     
   18   11   12 1     
   19   12   19 1     
@<TRIPOS>SUBSTRUCTURE
      1 ****           1
@<TRIPOS>SET
DONOR_HYDROGENS      STATIC     ATOMS    <user>   **** ""
1 19
ATOM$RED        STATIC     ATOMS    COLORGROUP SYSTEM
1 19
@<TRIPOS>COMMENT
> <Gold.Version>
2022.2.0

> <Gold.Id.Protein>
1qkm|1qkm_protein|mol2

> <Gold.Protein.RotatedTorsions>
[  496  491  490  487 ] final   67.26 input  -89.99 | X-H torsion

> <Gold.Protein.ActiveResidues>
 MET295  LEU298  THR299  LEU301  ALA302  GLU305  TRP335  MET336  LEU339  MET340 
 GLY342  LEU343  ARG346  PHE356  ILE373  ILE376  PHE377  LEU380  LYS471  GLY472 
 MET473  HIS475  LEU476  LEU477  ASN478  MET479  VAL484  VAL487 

> <Gold.Protein.RotatedAtoms>
   36.6133   33.2306   42.2520 H   0  0  0  0  0  0  0  0  0  0  0  0  # atno 496  bound_to 491 

> <Gold.Score>
     Score     S(PLP)   S(hbond)     S(cho)   S(metal)  DE(clash)   DE(tors)     intcor
     37.83     -38.08       0.00       0.00       0.00       0.00       0.46       0.68

> <Gold.PLP.Fitness>
37.8349

> <Gold.PLP.PLP>
-38.0776

> <Gold.PLP.part.hbond>
0.0000

> <Gold.PLP.part.metal>
0.0000

> <Gold.PLP.part.buried>
-2.6302

> <Gold.PLP.part.nonpolar>
-35.2825

> <Gold.PLP.part.repulsive>
0.0348

> <Gold.PLP.ligand.clash>
0.0000

> <Gold.PLP.ligand.torsion>
0.4613

> <Gold.PLP.Chemscore.Hbond>
0.0000

> <Gold.PLP.Chemscore.CHOScore>
0.0000

> <Gold.PLP.Chemscore.Metal>
0.0000

> <Gold.PLP.Chemscore.Internal.Correction>
0.6799

