#       Name:                EN300-135785_i001
#       Creating user name   aseyller
#       Creation time:       Fri Apr 21 19:25:37 2023


#       File generated by GOLD software.
#

@<TRIPOS>MOLECULE
EN300-135785_i001|benzaldehydes|mol2|825|dock9
    19    19     1
SMALL
USER_CHARGES


@<TRIPOS>ATOM
      1 C1          29.6989  39.2625  37.4031 C.3            1 <1>                0.0000
      2 O2          30.1012  38.2751  38.3545 O.3            1 <1>                0.0000
      3 C3          30.9003  37.2717  37.9026 C.ar           1 <1>                0.0000
      4 C4          31.6820  37.4638  36.7761 C.ar           1 <1>                0.0000
      5 C5          32.4999  36.4465  36.3080 C.ar           1 <1>                0.0000
      6 Cl6         33.4740  36.7035  34.8942 Cl             1 <1>                0.0000
      7 C7          32.5440  35.2331  36.9592 C.ar           1 <1>                0.0000
      8 C8          31.7593  35.0226  38.1003 C.ar           1 <1>                0.0000
      9 C9          31.8026  33.7319  38.7982 C.2            1 <1>                0.0000
     10 O10         31.5181  32.7123  38.2060 O.2            1 <1>                0.0000
     11 C11         30.9362  36.0547  38.5757 C.ar           1 <1>                0.0000
     12 O12         30.1712  35.8633  39.6802 O.3            1 <1>                0.0000
     13 H13         29.0663  40.0027  37.8932 H              1 <1>                0.0000
     14 H14         30.5818  39.7533  36.9935 H              1 <1>                0.0000
     15 H15         29.1417  38.7849  36.5972 H              1 <1>                0.0000
     16 H16         31.6544  38.4115  36.2588 H              1 <1>                0.0000
     17 H17         33.1829  34.4445  36.5899 H              1 <1>                0.0000
     18 H18         32.0878  33.6903  39.8391 H              1 <1>                0.0000
     19 H19         30.6733  35.6150  40.4683 H              1 <1>                0.0000
@<TRIPOS>BOND
    1    1    2 1     
    2    1   13 1     
    3    1   14 1     
    4    1   15 1     
    5    2    3 1     
    6    3    4 ar    
    7    3   11 ar    
    8    4    5 ar    
    9    4   16 1     
   10    5    6 1     
   11    5    7 ar    
   12    7    8 ar    
   13    7   17 1     
   14    8    9 1     
   15    8   11 ar    
   16    9   10 2     
   17    9   18 1     
   18   11   12 1     
   19   12   19 1     
@<TRIPOS>SUBSTRUCTURE
      1 ****           1
@<TRIPOS>SET
DONOR_HYDROGENS      STATIC     ATOMS    <user>   **** ""
1 19
ATOM$RED        STATIC     ATOMS    COLORGROUP SYSTEM
1 19
@<TRIPOS>COMMENT
> <Gold.Version>
2022.2.0

> <Gold.Id.Protein>
1qkm|1qkm_protein|mol2

> <Gold.Protein.RotatedTorsions>
[  496  491  490  487 ] final   91.07 input  -89.99 | X-H torsion

> <Gold.Protein.ActiveResidues>
 MET295  LEU298  THR299  LEU301  ALA302  GLU305  TRP335  MET336  LEU339  MET340 
 GLY342  LEU343  ARG346  PHE356  ILE373  ILE376  PHE377  LEU380  LYS471  GLY472 
 MET473  HIS475  LEU476  LEU477  ASN478  MET479  VAL484  VAL487 

> <Gold.Protein.RotatedAtoms>
   36.8302   33.0151   42.0113 H   0  0  0  0  0  0  0  0  0  0  0  0  # atno 496  bound_to 491 

> <Gold.Score>
     Score     S(PLP)   S(hbond)     S(cho)   S(metal)  DE(clash)   DE(tors)     intcor
     41.00     -39.11       0.99       0.00       0.00       0.01       0.88       0.68

> <Gold.PLP.Fitness>
40.9967

> <Gold.PLP.PLP>
-39.1142

> <Gold.PLP.part.hbond>
-1.0000

> <Gold.PLP.part.metal>
0.0000

> <Gold.PLP.part.buried>
-3.1987

> <Gold.PLP.part.nonpolar>
-34.6917

> <Gold.PLP.part.repulsive>
0.0218

> <Gold.PLP.ligand.clash>
0.0071

> <Gold.PLP.ligand.torsion>
0.8811

> <Gold.PLP.Chemscore.Hbond>
0.9913

> <Gold.PLP.Chemscore.CHOScore>
0.0000

> <Gold.PLP.Chemscore.Metal>
0.0000

> <Gold.Chemscore.Hbonds>
donor molecule, donor type, donor heavy atom, donor atom, acceptor molecule, acceptor atom, score
      L1  H    12    19       P1   470  0.99

> <Gold.PLP.Chemscore.Internal.Correction>
0.6780

