#       Name:                EN300-135785_i001
#       Creating user name   aseyller
#       Creation time:       Fri Apr 21 19:25:42 2023


#       File generated by GOLD software.
#

@<TRIPOS>MOLECULE
EN300-135785_i001|benzaldehydes|mol2|825|dock17
    19    19     1
SMALL
USER_CHARGES


@<TRIPOS>ATOM
      1 C1          31.5485  35.4580  38.5972 C.3            1 <1>                0.0000
      2 O2          30.4029  35.7661  39.3939 O.3            1 <1>                0.0000
      3 C3          29.4544  36.5611  38.8302 C.ar           1 <1>                0.0000
      4 C4          29.8056  37.4593  37.8368 C.ar           1 <1>                0.0000
      5 C5          28.8453  38.2740  37.2562 C.ar           1 <1>                0.0000
      6 Cl6         29.3021  39.3950  36.0118 Cl             1 <1>                0.0000
      7 C7          27.5306  38.1982  37.6612 C.ar           1 <1>                0.0000
      8 C8          27.1588  37.2948  38.6651 C.ar           1 <1>                0.0000
      9 C9          25.7595  37.2096  39.1003 C.2            1 <1>                0.0000
     10 O10         25.4986  37.0011  40.2664 O.2            1 <1>                0.0000
     11 C11         28.1307  36.4675  39.2479 C.ar           1 <1>                0.0000
     12 O12         27.7833  35.5881  40.2214 O.3            1 <1>                0.0000
     13 H13         32.2244  34.8183  39.1647 H              1 <1>                0.0000
     14 H14         31.2326  34.9400  37.6916 H              1 <1>                0.0000
     15 H15         32.0623  36.3807  38.3275 H              1 <1>                0.0000
     16 H16         30.8337  37.5261  37.5124 H              1 <1>                0.0000
     17 H17         26.7871  38.8354  37.2054 H              1 <1>                0.0000
     18 H18         24.9622  37.3328  38.3822 H              1 <1>                0.0000
     19 H19         27.7189  35.9816  41.1023 H              1 <1>                0.0000
@<TRIPOS>BOND
    1    1    2 1     
    2    1   13 1     
    3    1   14 1     
    4    1   15 1     
    5    2    3 1     
    6    3    4 ar    
    7    3   11 ar    
    8    4    5 ar    
    9    4   16 1     
   10    5    6 1     
   11    5    7 ar    
   12    7    8 ar    
   13    7   17 1     
   14    8    9 1     
   15    8   11 ar    
   16    9   10 2     
   17    9   18 1     
   18   11   12 1     
   19   12   19 1     
@<TRIPOS>SUBSTRUCTURE
      1 ****           1
@<TRIPOS>SET
DONOR_HYDROGENS      STATIC     ATOMS    <user>   **** ""
1 19
ATOM$RED        STATIC     ATOMS    COLORGROUP SYSTEM
1 19
@<TRIPOS>COMMENT
> <Gold.Version>
2022.2.0

> <Gold.Id.Protein>
1qkm|1qkm_protein|mol2

> <Gold.Protein.RotatedTorsions>
[  496  491  490  487 ] final  -60.86 input  -89.99 | X-H torsion

> <Gold.Protein.ActiveResidues>
 MET295  LEU298  THR299  LEU301  ALA302  GLU305  TRP335  MET336  LEU339  MET340 
 GLY342  LEU343  ARG346  PHE356  ILE373  ILE376  PHE377  LEU380  LYS471  GLY472 
 MET473  HIS475  LEU476  LEU477  ASN478  MET479  VAL484  VAL487 

> <Gold.Protein.RotatedAtoms>
   36.5037   34.7332   41.4723 H   0  0  0  0  0  0  0  0  0  0  0  0  # atno 496  bound_to 491 

> <Gold.Score>
     Score     S(PLP)   S(hbond)     S(cho)   S(metal)  DE(clash)   DE(tors)     intcor
     37.07     -37.64       0.00       0.00       0.00       0.00       0.62       0.68

> <Gold.PLP.Fitness>
37.0682

> <Gold.PLP.PLP>
-37.6392

> <Gold.PLP.part.hbond>
0.0000

> <Gold.PLP.part.metal>
0.0000

> <Gold.PLP.part.buried>
-4.0697

> <Gold.PLP.part.nonpolar>
-33.8717

> <Gold.PLP.part.repulsive>
0.4266

> <Gold.PLP.ligand.clash>
0.0000

> <Gold.PLP.ligand.torsion>
0.6245

> <Gold.PLP.Chemscore.Hbond>
0.0000

> <Gold.PLP.Chemscore.CHOScore>
0.0000

> <Gold.PLP.Chemscore.Metal>
0.0000

> <Gold.PLP.Chemscore.Internal.Correction>
0.6780

