#       Name:                EN300-135785_i001
#       Creating user name   aseyller
#       Creation time:       Fri Apr 21 19:25:40 2023


#       File generated by GOLD software.
#

@<TRIPOS>MOLECULE
EN300-135785_i001|benzaldehydes|mol2|825|dock14
    19    19     1
SMALL
USER_CHARGES


@<TRIPOS>ATOM
      1 C1          28.7961  36.4871  41.0821 C.3            1 <1>                0.0000
      2 O2          28.8014  36.9909  39.7448 O.3            1 <1>                0.0000
      3 C3          29.7852  36.5423  38.9199 C.ar           1 <1>                0.0000
      4 C4          30.3126  35.2745  39.0976 C.ar           1 <1>                0.0000
      5 C5          31.3158  34.8085  38.2613 C.ar           1 <1>                0.0000
      6 Cl6         31.9664  33.2164  38.4975 Cl             1 <1>                0.0000
      7 C7          31.7988  35.6021  37.2438 C.ar           1 <1>                0.0000
      8 C8          31.2759  36.8872  37.0507 C.ar           1 <1>                0.0000
      9 C9          31.7865  37.7369  35.9680 C.2            1 <1>                0.0000
     10 O10         32.6437  37.3164  35.2199 O.2            1 <1>                0.0000
     11 C11         30.2572  37.3552  37.8944 C.ar           1 <1>                0.0000
     12 O12         29.7423  38.5984  37.7176 O.3            1 <1>                0.0000
     13 H13         27.9623  36.9241  41.6317 H              1 <1>                0.0000
     14 H14         28.6889  35.4025  41.0613 H              1 <1>                0.0000
     15 H15         29.7328  36.7504  41.5733 H              1 <1>                0.0000
     16 H16         29.9405  34.6449  39.8924 H              1 <1>                0.0000
     17 H17         32.5803  35.2338  36.5957 H              1 <1>                0.0000
     18 H18         31.3986  38.7364  35.8374 H              1 <1>                0.0000
     19 H19         29.4567  39.0260  38.5365 H              1 <1>                0.0000
@<TRIPOS>BOND
    1    1    2 1     
    2    1   13 1     
    3    1   14 1     
    4    1   15 1     
    5    2    3 1     
    6    3    4 ar    
    7    3   11 ar    
    8    4    5 ar    
    9    4   16 1     
   10    5    6 1     
   11    5    7 ar    
   12    7    8 ar    
   13    7   17 1     
   14    8    9 1     
   15    8   11 ar    
   16    9   10 2     
   17    9   18 1     
   18   11   12 1     
   19   12   19 1     
@<TRIPOS>SUBSTRUCTURE
      1 ****           1
@<TRIPOS>SET
DONOR_HYDROGENS      STATIC     ATOMS    <user>   **** ""
1 19
ATOM$RED        STATIC     ATOMS    COLORGROUP SYSTEM
1 19
@<TRIPOS>COMMENT
> <Gold.Version>
2022.2.0

> <Gold.Id.Protein>
1qkm|1qkm_protein|mol2

> <Gold.Protein.RotatedTorsions>
[  496  491  490  487 ] final   96.08 input  -89.99 | X-H torsion

> <Gold.Protein.ActiveResidues>
 MET295  LEU298  THR299  LEU301  ALA302  GLU305  TRP335  MET336  LEU339  MET340 
 GLY342  LEU343  ARG346  PHE356  ILE373  ILE376  PHE377  LEU380  LYS471  GLY472 
 MET473  HIS475  LEU476  LEU477  ASN478  MET479  VAL484  VAL487 

> <Gold.Protein.RotatedAtoms>
   36.8761   32.9867   41.9491 H   0  0  0  0  0  0  0  0  0  0  0  0  # atno 496  bound_to 491 

> <Gold.Score>
     Score     S(PLP)   S(hbond)     S(cho)   S(metal)  DE(clash)   DE(tors)     intcor
     36.79     -36.86       0.00       0.00       0.00       0.00       0.38       0.68

> <Gold.PLP.Fitness>
36.7873

> <Gold.PLP.PLP>
-36.8605

> <Gold.PLP.part.hbond>
0.0000

> <Gold.PLP.part.metal>
0.0000

> <Gold.PLP.part.buried>
-3.5224

> <Gold.PLP.part.nonpolar>
-34.0061

> <Gold.PLP.part.repulsive>
0.1496

> <Gold.PLP.ligand.clash>
0.0000

> <Gold.PLP.ligand.torsion>
0.3756

> <Gold.PLP.Chemscore.Hbond>
0.0000

> <Gold.PLP.Chemscore.CHOScore>
0.0000

> <Gold.PLP.Chemscore.Metal>
0.0000

> <Gold.PLP.Chemscore.Internal.Correction>
0.6780

