#       Name:                EN300-135785_i001
#       Creating user name   aseyller
#       Creation time:       Fri Apr 21 19:25:40 2023


#       File generated by GOLD software.
#

@<TRIPOS>MOLECULE
EN300-135785_i001|benzaldehydes|mol2|825|dock15
    19    19     1
SMALL
USER_CHARGES


@<TRIPOS>ATOM
      1 C1          32.4861  35.7930  37.7583 C.3            1 <1>                0.0000
      2 O2          31.3038  35.8966  38.5543 O.3            1 <1>                0.0000
      3 C3          30.3745  36.8095  38.1638 C.ar           1 <1>                0.0000
      4 C4          30.7549  37.9019  37.4028 C.ar           1 <1>                0.0000
      5 C5          29.8144  38.8379  36.9999 C.ar           1 <1>                0.0000
      6 Cl6         30.3077  40.2020  36.0461 Cl             1 <1>                0.0000
      7 C7          28.4905  38.6909  37.3522 C.ar           1 <1>                0.0000
      8 C8          28.0893  37.5914  38.1218 C.ar           1 <1>                0.0000
      9 C9          26.6801  37.4296  38.4997 C.2            1 <1>                0.0000
     10 O10         26.3396  36.4865  39.1823 O.2            1 <1>                0.0000
     11 C11         29.0413  36.6424  38.5242 C.ar           1 <1>                0.0000
     12 O12         28.6652  35.5727  39.2700 O.3            1 <1>                0.0000
     13 H13         33.1415  35.0303  38.1788 H              1 <1>                0.0000
     14 H14         32.2149  35.5174  36.7392 H              1 <1>                0.0000
     15 H15         33.0036  36.7523  37.7499 H              1 <1>                0.0000
     16 H16         31.7903  38.0258  37.1216 H              1 <1>                0.0000
     17 H17         27.7626  39.4232  37.0356 H              1 <1>                0.0000
     18 H18         25.9465  38.1505  38.1701 H              1 <1>                0.0000
     19 H19         27.8660  35.7200  39.7940 H              1 <1>                0.0000
@<TRIPOS>BOND
    1    1    2 1     
    2    1   13 1     
    3    1   14 1     
    4    1   15 1     
    5    2    3 1     
    6    3    4 ar    
    7    3   11 ar    
    8    4    5 ar    
    9    4   16 1     
   10    5    6 1     
   11    5    7 ar    
   12    7    8 ar    
   13    7   17 1     
   14    8    9 1     
   15    8   11 ar    
   16    9   10 2     
   17    9   18 1     
   18   11   12 1     
   19   12   19 1     
@<TRIPOS>SUBSTRUCTURE
      1 ****           1
@<TRIPOS>SET
DONOR_HYDROGENS      STATIC     ATOMS    <user>   **** ""
1 19
ATOM$RED        STATIC     ATOMS    COLORGROUP SYSTEM
1 19
@<TRIPOS>COMMENT
> <Gold.Version>
2022.2.0

> <Gold.Id.Protein>
1qkm|1qkm_protein|mol2

> <Gold.Protein.RotatedTorsions>
[  496  491  490  487 ] final  140.52 input  -89.99 | X-H torsion

> <Gold.Protein.ActiveResidues>
 MET295  LEU298  THR299  LEU301  ALA302  GLU305  TRP335  MET336  LEU339  MET340 
 GLY342  LEU343  ARG346  PHE356  ILE373  ILE376  PHE377  LEU380  LYS471  GLY472 
 MET473  HIS475  LEU476  LEU477  ASN478  MET479  VAL484  VAL487 

> <Gold.Protein.RotatedAtoms>
   37.2171   33.0288   41.3240 H   0  0  0  0  0  0  0  0  0  0  0  0  # atno 496  bound_to 491 

> <Gold.Score>
     Score     S(PLP)   S(hbond)     S(cho)   S(metal)  DE(clash)   DE(tors)     intcor
     35.74     -35.75       0.00       0.00       0.00       0.00       0.34       0.68

> <Gold.PLP.Fitness>
35.7408

> <Gold.PLP.PLP>
-35.7515

> <Gold.PLP.part.hbond>
0.0000

> <Gold.PLP.part.metal>
0.0000

> <Gold.PLP.part.buried>
-3.5460

> <Gold.PLP.part.nonpolar>
-32.1273

> <Gold.PLP.part.repulsive>
0.1306

> <Gold.PLP.ligand.clash>
0.0000

> <Gold.PLP.ligand.torsion>
0.3443

> <Gold.PLP.Chemscore.Hbond>
0.0000

> <Gold.PLP.Chemscore.CHOScore>
0.0000

> <Gold.PLP.Chemscore.Metal>
0.0000

> <Gold.PLP.Chemscore.Internal.Correction>
0.6780

