#       Name:                EN300-135785_i001
#       Creating user name   aseyller
#       Creation time:       Fri Apr 21 19:25:41 2023


#       File generated by GOLD software.
#

@<TRIPOS>MOLECULE
EN300-135785_i001|benzaldehydes|mol2|825|dock16
    19    19     1
SMALL
USER_CHARGES


@<TRIPOS>ATOM
      1 C1          31.8010  33.3852  38.4995 C.3            1 <1>                0.0000
      2 O2          31.3774  34.6668  38.9688 O.3            1 <1>                0.0000
      3 C3          31.4294  35.6970  38.0825 C.ar           1 <1>                0.0000
      4 C4          32.3636  35.6842  37.0607 C.ar           1 <1>                0.0000
      5 C5          32.4240  36.7301  36.1523 C.ar           1 <1>                0.0000
      6 Cl6         33.6013  36.6989  34.8768 Cl             1 <1>                0.0000
      7 C7          31.5545  37.7938  36.2563 C.ar           1 <1>                0.0000
      8 C8          30.6034  37.8220  37.2843 C.ar           1 <1>                0.0000
      9 C9          29.6743  38.9527  37.3997 C.2            1 <1>                0.0000
     10 O10         29.8565  39.9568  36.7440 O.2            1 <1>                0.0000
     11 C11         30.5401  36.7604  38.1995 C.ar           1 <1>                0.0000
     12 O12         29.6232  36.7759  39.2000 O.3            1 <1>                0.0000
     13 H13         31.7094  32.6552  39.3039 H              1 <1>                0.0000
     14 H14         31.1760  33.0810  37.6599 H              1 <1>                0.0000
     15 H15         32.8406  33.4418  38.1770 H              1 <1>                0.0000
     16 H16         33.0495  34.8547  36.9708 H              1 <1>                0.0000
     17 H17         31.6063  38.6057  35.5458 H              1 <1>                0.0000
     18 H18         28.8284  38.8903  38.0683 H              1 <1>                0.0000
     19 H19         30.0087  36.8005  40.0865 H              1 <1>                0.0000
@<TRIPOS>BOND
    1    1    2 1     
    2    1   13 1     
    3    1   14 1     
    4    1   15 1     
    5    2    3 1     
    6    3    4 ar    
    7    3   11 ar    
    8    4    5 ar    
    9    4   16 1     
   10    5    6 1     
   11    5    7 ar    
   12    7    8 ar    
   13    7   17 1     
   14    8    9 1     
   15    8   11 ar    
   16    9   10 2     
   17    9   18 1     
   18   11   12 1     
   19   12   19 1     
@<TRIPOS>SUBSTRUCTURE
      1 ****           1
@<TRIPOS>SET
DONOR_HYDROGENS      STATIC     ATOMS    <user>   **** ""
1 19
ATOM$RED        STATIC     ATOMS    COLORGROUP SYSTEM
1 19
@<TRIPOS>COMMENT
> <Gold.Version>
2022.2.0

> <Gold.Id.Protein>
1qkm|1qkm_protein|mol2

> <Gold.Protein.RotatedTorsions>
[  496  491  490  487 ] final   63.27 input  -89.99 | X-H torsion

> <Gold.Protein.ActiveResidues>
 MET295  LEU298  THR299  LEU301  ALA302  GLU305  TRP335  MET336  LEU339  MET340 
 GLY342  LEU343  ARG346  PHE356  ILE373  ILE376  PHE377  LEU380  LYS471  GLY472 
 MET473  HIS475  LEU476  LEU477  ASN478  MET479  VAL484  VAL487 

> <Gold.Protein.RotatedAtoms>
   36.5790   33.2782   42.2815 H   0  0  0  0  0  0  0  0  0  0  0  0  # atno 496  bound_to 491 

> <Gold.Score>
     Score     S(PLP)   S(hbond)     S(cho)   S(metal)  DE(clash)   DE(tors)     intcor
     38.36     -38.49       0.00       0.00       0.00       0.00       0.40       0.68

> <Gold.PLP.Fitness>
38.3635

> <Gold.PLP.PLP>
-38.4914

> <Gold.PLP.part.hbond>
0.0000

> <Gold.PLP.part.metal>
0.0000

> <Gold.PLP.part.buried>
-4.4658

> <Gold.PLP.part.nonpolar>
-34.1655

> <Gold.PLP.part.repulsive>
0.0987

> <Gold.PLP.ligand.clash>
0.0000

> <Gold.PLP.ligand.torsion>
0.4029

> <Gold.PLP.Chemscore.Hbond>
0.0000

> <Gold.PLP.Chemscore.CHOScore>
0.0000

> <Gold.PLP.Chemscore.Metal>
0.0000

> <Gold.PLP.Chemscore.Internal.Correction>
0.6780

