#       Name:                EN300-135785_i001
#       Creating user name   aseyller
#       Creation time:       Fri Apr 21 19:25:33 2023


#       File generated by GOLD software.
#

@<TRIPOS>MOLECULE
EN300-135785_i001|benzaldehydes|mol2|825|dock2
    19    19     1
SMALL
USER_CHARGES


@<TRIPOS>ATOM
      1 C1          32.9909  36.4550  35.7763 C.3            1 <1>                0.0000
      2 O2          32.6432  36.1450  37.1272 O.3            1 <1>                0.0000
      3 C3          31.4500  36.6140  37.5809 C.ar           1 <1>                0.0000
      4 C4          30.8735  37.7255  36.9898 C.ar           1 <1>                0.0000
      5 C5          29.6571  38.2108  37.4455 C.ar           1 <1>                0.0000
      6 Cl6         28.9477  39.6055  36.6935 Cl             1 <1>                0.0000
      7 C7          29.0083  37.5919  38.4917 C.ar           1 <1>                0.0000
      8 C8          29.5781  36.4665  39.1006 C.ar           1 <1>                0.0000
      9 C9          28.8911  35.8029  40.2153 C.2            1 <1>                0.0000
     10 O10         27.6951  35.9437  40.3607 O.2            1 <1>                0.0000
     11 C11         30.8064  35.9734  38.6348 C.ar           1 <1>                0.0000
     12 O12         31.3688  34.8838  39.2163 O.3            1 <1>                0.0000
     13 H13         33.9639  36.0224  35.5431 H              1 <1>                0.0000
     14 H14         32.2390  36.0420  35.1037 H              1 <1>                0.0000
     15 H15         33.0350  37.5369  35.6515 H              1 <1>                0.0000
     16 H16         31.3743  38.2175  36.1691 H              1 <1>                0.0000
     17 H17         28.0611  37.9746  38.8423 H              1 <1>                0.0000
     18 H18         29.4506  35.1893  40.9059 H              1 <1>                0.0000
     19 H19         31.2832  34.8635  40.1792 H              1 <1>                0.0000
@<TRIPOS>BOND
    1    1    2 1     
    2    1   13 1     
    3    1   14 1     
    4    1   15 1     
    5    2    3 1     
    6    3    4 ar    
    7    3   11 ar    
    8    4    5 ar    
    9    4   16 1     
   10    5    6 1     
   11    5    7 ar    
   12    7    8 ar    
   13    7   17 1     
   14    8    9 1     
   15    8   11 ar    
   16    9   10 2     
   17    9   18 1     
   18   11   12 1     
   19   12   19 1     
@<TRIPOS>SUBSTRUCTURE
      1 ****           1
@<TRIPOS>SET
DONOR_HYDROGENS      STATIC     ATOMS    <user>   **** ""
1 19
ATOM$RED        STATIC     ATOMS    COLORGROUP SYSTEM
1 19
@<TRIPOS>COMMENT
> <Gold.Version>
2022.2.0

> <Gold.Id.Protein>
1qkm|1qkm_protein|mol2

> <Gold.Protein.RotatedTorsions>
[  496  491  490  487 ] final  -67.49 input  -89.99 | X-H torsion

> <Gold.Protein.ActiveResidues>
 MET295  LEU298  THR299  LEU301  ALA302  GLU305  TRP335  MET336  LEU339  MET340 
 GLY342  LEU343  ARG346  PHE356  ILE373  ILE376  PHE377  LEU380  LYS471  GLY472 
 MET473  HIS475  LEU476  LEU477  ASN478  MET479  VAL484  VAL487 

> <Gold.Protein.RotatedAtoms>
   36.5572   34.7351   41.3772 H   0  0  0  0  0  0  0  0  0  0  0  0  # atno 496  bound_to 491 

> <Gold.Score>
     Score     S(PLP)   S(hbond)     S(cho)   S(metal)  DE(clash)   DE(tors)     intcor
     38.78     -36.00       1.00       0.00       0.00       0.00       0.45       0.68

> <Gold.PLP.Fitness>
38.7842

> <Gold.PLP.PLP>
-36.0048

> <Gold.PLP.part.hbond>
-1.0000

> <Gold.PLP.part.metal>
0.0000

> <Gold.PLP.part.buried>
-3.2835

> <Gold.PLP.part.nonpolar>
-32.2314

> <Gold.PLP.part.repulsive>
0.0715

> <Gold.PLP.ligand.clash>
0.0000

> <Gold.PLP.ligand.torsion>
0.4507

> <Gold.PLP.Chemscore.Hbond>
1.0000

> <Gold.PLP.Chemscore.CHOScore>
0.0000

> <Gold.PLP.Chemscore.Metal>
0.0000

> <Gold.Chemscore.Hbonds>
donor molecule, donor type, donor heavy atom, donor atom, acceptor molecule, acceptor atom, score
      L1  H    12    19       P1   470  1.00

> <Gold.PLP.Chemscore.Internal.Correction>
0.6807

