#       Name:                EN300-135785_i001
#       Creating user name   aseyller
#       Creation time:       Fri Apr 21 19:25:38 2023


#       File generated by GOLD software.
#

@<TRIPOS>MOLECULE
EN300-135785_i001|benzaldehydes|mol2|825|dock11
    19    19     1
SMALL
USER_CHARGES


@<TRIPOS>ATOM
      1 C1          33.2915  35.9509  37.0570 C.3            1 <1>                0.0000
      2 O2          32.4109  35.9065  38.1815 O.3            1 <1>                0.0000
      3 C3          31.2601  36.6258  38.0934 C.ar           1 <1>                0.0000
      4 C4          31.1878  37.7138  37.2402 C.ar           1 <1>                0.0000
      5 C5          30.0186  38.4531  37.1436 C.ar           1 <1>                0.0000
      6 Cl6         29.9444  39.8145  36.0690 Cl             1 <1>                0.0000
      7 C7          28.9154  38.1127  37.8955 C.ar           1 <1>                0.0000
      8 C8          28.9721  37.0148  38.7635 C.ar           1 <1>                0.0000
      9 C9          27.7996  36.6474  39.5668 C.2            1 <1>                0.0000
     10 O10         26.6991  37.0496  39.2528 O.2            1 <1>                0.0000
     11 C11         30.1542  36.2646  38.8562 C.ar           1 <1>                0.0000
     12 O12         30.2218  35.1986  39.6934 O.3            1 <1>                0.0000
     13 H13         34.1687  35.3358  37.2580 H              1 <1>                0.0000
     14 H14         32.7750  35.5703  36.1758 H              1 <1>                0.0000
     15 H15         33.6026  36.9804  36.8795 H              1 <1>                0.0000
     16 H16         32.0473  37.9884  36.6465 H              1 <1>                0.0000
     17 H17         28.0075  38.6924  37.8161 H              1 <1>                0.0000
     18 H18         27.9169  36.0189  40.4372 H              1 <1>                0.0000
     19 H19         30.8727  35.2955  40.4019 H              1 <1>                0.0000
@<TRIPOS>BOND
    1    1    2 1     
    2    1   13 1     
    3    1   14 1     
    4    1   15 1     
    5    2    3 1     
    6    3    4 ar    
    7    3   11 ar    
    8    4    5 ar    
    9    4   16 1     
   10    5    6 1     
   11    5    7 ar    
   12    7    8 ar    
   13    7   17 1     
   14    8    9 1     
   15    8   11 ar    
   16    9   10 2     
   17    9   18 1     
   18   11   12 1     
   19   12   19 1     
@<TRIPOS>SUBSTRUCTURE
      1 ****           1
@<TRIPOS>SET
DONOR_HYDROGENS      STATIC     ATOMS    <user>   **** ""
1 19
ATOM$RED        STATIC     ATOMS    COLORGROUP SYSTEM
1 19
@<TRIPOS>COMMENT
> <Gold.Version>
2022.2.0

> <Gold.Id.Protein>
1qkm|1qkm_protein|mol2

> <Gold.Protein.RotatedTorsions>
[  496  491  490  487 ] final  -25.12 input  -89.99 | X-H torsion

> <Gold.Protein.ActiveResidues>
 MET295  LEU298  THR299  LEU301  ALA302  GLU305  TRP335  MET336  LEU339  MET340 
 GLY342  LEU343  ARG346  PHE356  ILE373  ILE376  PHE377  LEU380  LYS471  GLY472 
 MET473  HIS475  LEU476  LEU477  ASN478  MET479  VAL484  VAL487 

> <Gold.Protein.RotatedAtoms>
   36.2964   34.5243   41.9708 H   0  0  0  0  0  0  0  0  0  0  0  0  # atno 496  bound_to 491 

> <Gold.Score>
     Score     S(PLP)   S(hbond)     S(cho)   S(metal)  DE(clash)   DE(tors)     intcor
     36.92     -34.09       1.00       0.00       0.00       0.00       0.42       0.68

> <Gold.PLP.Fitness>
36.9220

> <Gold.PLP.PLP>
-34.0859

> <Gold.PLP.part.hbond>
-1.0000

> <Gold.PLP.part.metal>
0.0000

> <Gold.PLP.part.buried>
-3.2229

> <Gold.PLP.part.nonpolar>
-30.3052

> <Gold.PLP.part.repulsive>
0.0852

> <Gold.PLP.ligand.clash>
0.0000

> <Gold.PLP.ligand.torsion>
0.4210

> <Gold.PLP.Chemscore.Hbond>
1.0000

> <Gold.PLP.Chemscore.CHOScore>
0.0000

> <Gold.PLP.Chemscore.Metal>
0.0000

> <Gold.Chemscore.Hbonds>
donor molecule, donor type, donor heavy atom, donor atom, acceptor molecule, acceptor atom, score
      L1  H    12    19       P1   470  1.00

> <Gold.PLP.Chemscore.Internal.Correction>
0.6780

