#       Name:                EN300-135785_i001
#       Creating user name   aseyller
#       Creation time:       Fri Apr 21 19:25:36 2023


#       File generated by GOLD software.
#

@<TRIPOS>MOLECULE
EN300-135785_i001|benzaldehydes|mol2|825|dock8
    19    19     1
SMALL
USER_CHARGES


@<TRIPOS>ATOM
      1 C1          33.3329  36.6467  34.9096 C.3            1 <1>                0.0000
      2 O2          32.6722  37.4140  35.9180 O.3            1 <1>                0.0000
      3 C3          31.9825  36.7245  36.8658 C.ar           1 <1>                0.0000
      4 C4          32.3360  35.4202  37.1670 C.ar           1 <1>                0.0000
      5 C5          31.6386  34.7094  38.1321 C.ar           1 <1>                0.0000
      6 Cl6         32.0944  33.0747  38.4979 Cl             1 <1>                0.0000
      7 C7          30.5861  35.2936  38.8023 C.ar           1 <1>                0.0000
      8 C8          30.2157  36.6124  38.5094 C.ar           1 <1>                0.0000
      9 C9          29.0954  37.2399  39.2207 C.2            1 <1>                0.0000
     10 O10         28.6082  36.6931  40.1876 O.2            1 <1>                0.0000
     11 C11         30.9258  37.3320  37.5364 C.ar           1 <1>                0.0000
     12 O12         30.5768  38.6104  37.2435 O.3            1 <1>                0.0000
     13 H13         33.8437  37.3176  34.2189 H              1 <1>                0.0000
     14 H14         34.0606  35.9830  35.3766 H              1 <1>                0.0000
     15 H15         32.5983  36.0542  34.3642 H              1 <1>                0.0000
     16 H16         33.1596  34.9535  36.6471 H              1 <1>                0.0000
     17 H17         30.0465  34.7350  39.5529 H              1 <1>                0.0000
     18 H18         28.7050  38.1887  38.8831 H              1 <1>                0.0000
     19 H19         31.2591  39.1058  36.7700 H              1 <1>                0.0000
@<TRIPOS>BOND
    1    1    2 1     
    2    1   13 1     
    3    1   14 1     
    4    1   15 1     
    5    2    3 1     
    6    3    4 ar    
    7    3   11 ar    
    8    4    5 ar    
    9    4   16 1     
   10    5    6 1     
   11    5    7 ar    
   12    7    8 ar    
   13    7   17 1     
   14    8    9 1     
   15    8   11 ar    
   16    9   10 2     
   17    9   18 1     
   18   11   12 1     
   19   12   19 1     
@<TRIPOS>SUBSTRUCTURE
      1 ****           1
@<TRIPOS>SET
DONOR_HYDROGENS      STATIC     ATOMS    <user>   **** ""
1 19
ATOM$RED        STATIC     ATOMS    COLORGROUP SYSTEM
1 19
@<TRIPOS>COMMENT
> <Gold.Version>
2022.2.0

> <Gold.Id.Protein>
1qkm|1qkm_protein|mol2

> <Gold.Protein.RotatedTorsions>
[  496  491  490  487 ] final -143.72 input  -89.99 | X-H torsion

> <Gold.Protein.ActiveResidues>
 MET295  LEU298  THR299  LEU301  ALA302  GLU305  TRP335  MET336  LEU339  MET340 
 GLY342  LEU343  ARG346  PHE356  ILE373  ILE376  PHE377  LEU380  LYS471  GLY472 
 MET473  HIS475  LEU476  LEU477  ASN478  MET479  VAL484  VAL487 

> <Gold.Protein.RotatedAtoms>
   37.1966   34.0173   40.7205 H   0  0  0  0  0  0  0  0  0  0  0  0  # atno 496  bound_to 491 

> <Gold.Score>
     Score     S(PLP)   S(hbond)     S(cho)   S(metal)  DE(clash)   DE(tors)     intcor
     36.82     -36.90       0.00       0.00       0.00       0.00       0.38       0.68

> <Gold.PLP.Fitness>
36.8202

> <Gold.PLP.PLP>
-36.8955

> <Gold.PLP.part.hbond>
0.0000

> <Gold.PLP.part.metal>
0.0000

> <Gold.PLP.part.buried>
-2.9128

> <Gold.PLP.part.nonpolar>
-33.6343

> <Gold.PLP.part.repulsive>
0.1036

> <Gold.PLP.ligand.clash>
0.0000

> <Gold.PLP.ligand.torsion>
0.3766

> <Gold.PLP.Chemscore.Hbond>
0.0000

> <Gold.PLP.Chemscore.CHOScore>
0.0000

> <Gold.PLP.Chemscore.Metal>
0.0000

> <Gold.PLP.Chemscore.Internal.Correction>
0.6780

