#       Name:                EN300-29801_i001
#       Creating user name   fsindt
#       Creation time:       Mon Feb 27 19:50:05 2023


#       File generated by GOLD software.
#

@<TRIPOS>MOLECULE
EN300-29801_i001|acide_1|mol2|524|dock4
    34    33     1
SMALL
USER_CHARGES


@<TRIPOS>ATOM
      1 C1          -0.3813 -11.8539  10.1407 C.3            1 <1>                0.0000
      2 S2          -1.1596 -12.9097  11.3938 S.3            1 <1>                0.0000
      3 C3          -0.1799 -14.4340  11.3087 C.3            1 <1>                0.0000
      4 C4          -0.6818 -15.4225  12.3631 C.3            1 <1>                0.0000
      5 C5           0.1969 -16.6749  12.3474 C.3            1 <1>                0.0000
      6 N6          -0.5931 -17.8311  12.7781 N.am           1 <1>                0.0000
      7 C7          -0.0451 -19.0624  12.7701 C.2            1 <1>                0.0000
      8 O8           1.1043 -19.2135  12.4058 O.2            1 <1>                0.0000
      9 O9          -0.7710 -20.1249  13.1660 O.3            1 <1>                0.0000
     10 C10         -0.2135 -21.4394  12.9022 C.3            1 <1>                0.0000
     11 C11          0.1041 -21.5688  11.4111 C.3            1 <1>                0.0000
     12 C12          1.0702 -21.6213  13.7146 C.3            1 <1>                0.0000
     13 C13         -1.2271 -22.5131  13.3028 C.3            1 <1>                0.0000
     14 C14          1.3605 -16.4840  13.2857 C.2            1 <1>                0.0000
     15 O15          2.4979 -16.6855  12.8954 O.co2          1 <1>                0.0000
     16 O16          1.1646 -16.1281  14.4354 O.co2          1 <1>               -1.0000
     17 H17          0.6654 -11.6942  10.3994 H              1 <1>                0.0000
     18 H18         -0.4450 -12.3388   9.1666 H              1 <1>                0.0000
     19 H19         -0.8969 -10.8943  10.1032 H              1 <1>                0.0000
     20 H20         -0.2822 -14.8767  10.3178 H              1 <1>                0.0000
     21 H21          0.8685 -14.2031  11.4969 H              1 <1>                0.0000
     22 H22         -0.6347 -14.9580  13.3481 H              1 <1>                0.0000
     23 H23         -1.7125 -15.6989  12.1406 H              1 <1>                0.0000
     24 H24          0.5690 -16.8451  11.3371 H              1 <1>                0.0000
     25 H25          0.8263 -20.8037  11.1257 H              1 <1>                0.0000
     26 H26          0.5226 -22.5554  11.2130 H              1 <1>                0.0000
     27 H27         -0.8104 -21.4391  10.8323 H              1 <1>                0.0000
     28 H28          0.8439 -21.5291  14.7769 H              1 <1>                0.0000
     29 H29          1.4887 -22.6081  13.5165 H              1 <1>                0.0000
     30 H30          1.7923 -20.8564  13.4292 H              1 <1>                0.0000
     31 H31         -2.1416 -22.3835  12.7240 H              1 <1>                0.0000
     32 H32         -0.8085 -23.4999  13.1047 H              1 <1>                0.0000
     33 H33         -1.4533 -22.4210  14.3651 H              1 <1>                0.0000
     34 H34         -1.5106 -17.7104  13.0689 H              1 <1>                0.0000
@<TRIPOS>BOND
    1    1    2 1     
    2    1   17 1     
    3    1   18 1     
    4    1   19 1     
    5    2    3 1     
    6    3    4 1     
    7    3   20 1     
    8    3   21 1     
    9    4    5 1     
   10    4   22 1     
   11    4   23 1     
   12    5    6 1     
   13    5   14 1     
   14    5   24 1     
   15    6    7 am    
   16    6   34 1     
   17    7    8 2     
   18    7    9 1     
   19    9   10 1     
   20   10   11 1     
   21   10   12 1     
   22   10   13 1     
   23   11   25 1     
   24   11   26 1     
   25   11   27 1     
   26   12   28 1     
   27   12   29 1     
   28   12   30 1     
   29   13   31 1     
   30   13   32 1     
   31   13   33 1     
   32   14   15 ar    
   33   14   16 ar    
@<TRIPOS>SUBSTRUCTURE
      1 ****           1
@<TRIPOS>SET
DONOR_HYDROGENS      STATIC     ATOMS    <user>   **** ""
1 34
ATOM$RED        STATIC     ATOMS    COLORGROUP SYSTEM
1 34
@<TRIPOS>COMMENT
> <Gold.Version>
2022.2.0

> <Gold.Id.Protein>
3pbl|protein|mol2

> <Gold.Protein.RotatedTorsions>
[ 1303 1298 1297 1294 ] final   90.32 input  179.99 | X-H torsion
[ 2461 2456 2455 2452 ] final  -66.32 input   30.03 | X-H torsion
[ 2515 2510 2509 2506 ] final  -91.47 input  -89.99 | X-H torsion
[ 3721 3712 3711 3710 ] final -119.98 input -179.91 | X-H torsion
[ 3841 3832 3831 3830 ] final  -42.25 input -179.91 | X-H torsion
[ 3767 3762 3761 3758 ] final   31.92 input  -89.99 | X-H torsion
[ 2472 2467 2466 2463 ] final  102.80 input  -89.97 | X-H torsion

> <Gold.Protein.ActiveResidues>
 VAL82   VAL86   LEU89   PHE106  VAL107  ASP110  VAL111  MET112  CYS114  THR115 
 CYS181  SER182  ILE183  PHE188  VAL189  ILE190  SER192  SER193  SER196  TRP342 
 PHE345  PHE346  HIS349  VAL350  TYR365  THR369  GLY372  TYR373 

> <Gold.Protein.RotatedAtoms>
    4.4188  -10.1177    4.8601 H   0  0  0  0  0  0  0  0  0  0  0  0  # atno 1303 bound_to 1298
    0.3464   -8.6354    7.4347 H   0  0  0  0  0  0  0  0  0  0  0  0  # atno 2461 bound_to 2456
   -5.2596   -4.9811    7.9187 H   0  0  0  0  0  0  0  0  0  0  0  0  # atno 2472 bound_to 2467
    2.8181   -8.9500    4.6262 H   0  0  0  0  0  0  0  0  0  0  0  0  # atno 2515 bound_to 2510
   -3.2174  -16.6566   14.4054 H   0  0  0  0  0  0  0  0  0  0  0  0  # atno 3721 bound_to 3712
   -4.9574  -23.0754   10.0666 H   0  0  0  0  0  0  0  0  0  0  0  0  # atno 3767 bound_to 3762
    1.5625  -19.9908    9.2224 H   0  0  0  0  0  0  0  0  0  0  0  0  # atno 3841 bound_to 3832
    3.3369   -9.4374    3.8437 LP  0  0  0  0  0  0  0  0  0  0  0  0  # atno 4297 bound_to 1298
    4.6063   -8.5659    4.3876 LP  0  0  0  0  0  0  0  0  0  0  0  0  # atno 4298 bound_to 1298
    1.5478   -9.1797    8.3978 LP  0  0  0  0  0  0  0  0  0  0  0  0  # atno 4299 bound_to 2456
    1.8433   -7.9931    7.3156 LP  0  0  0  0  0  0  0  0  0  0  0  0  # atno 4300 bound_to 2456
    2.1366   -8.6207    6.0729 LP  0  0  0  0  0  0  0  0  0  0  0  0  # atno 4301 bound_to 2510
    2.3419   -7.4281    4.9765 LP  0  0  0  0  0  0  0  0  0  0  0  0  # atno 4302 bound_to 2510
   -3.1907  -17.3541   12.9595 LP  0  0  0  0  0  0  0  0  0  0  0  0  # atno 4306 bound_to 3712
   -2.6225  -18.1419   14.2722 LP  0  0  0  0  0  0  0  0  0  0  0  0  # atno 4307 bound_to 3712
    2.7537  -19.9619    8.1471 LP  0  0  0  0  0  0  0  0  0  0  0  0  # atno 4314 bound_to 3832
    2.6707  -21.1510    9.2633 LP  0  0  0  0  0  0  0  0  0  0  0  0  # atno 4315 bound_to 3832
   -5.2455  -21.9241   11.1884 LP  0  0  0  0  0  0  0  0  0  0  0  0  # atno 4318 bound_to 3762
   -3.9245  -22.8757   11.3157 LP  0  0  0  0  0  0  0  0  0  0  0  0  # atno 4319 bound_to 3762
   -3.6762   -4.9495    8.3165 LP  0  0  0  0  0  0  0  0  0  0  0  0  # atno 4320 bound_to 2467
   -4.7812   -5.4629    9.4038 LP  0  0  0  0  0  0  0  0  0  0  0  0  # atno 4321 bound_to 2467

> <Gold.Score>
     Score     S(PLP)   S(hbond)     S(cho)   S(metal)  DE(clash)   DE(tors)     intcor
     42.48     -37.64       2.00       0.00       0.00       0.50       0.64       0.64

> <Gold.PLP.Fitness>
42.4796

> <Gold.PLP.PLP>
-37.6356

> <Gold.PLP.part.hbond>
-2.0000

> <Gold.PLP.part.metal>
0.0000

> <Gold.PLP.part.buried>
-6.1494

> <Gold.PLP.part.nonpolar>
-30.0216

> <Gold.PLP.part.repulsive>
0.1879

> <Gold.PLP.ligand.clash>
0.5046

> <Gold.PLP.ligand.torsion>
0.6437

> <Gold.PLP.Chemscore.Hbond>
2.0000

> <Gold.PLP.Chemscore.CHOScore>
0.0000

> <Gold.PLP.Chemscore.Metal>
0.0000

> <Gold.Chemscore.Hbonds>
donor molecule, donor type, donor heavy atom, donor atom, acceptor molecule, acceptor atom, score
      L1  H     6    34       P1  3712  1.00
      P1  H  2305  2313       L1    16  1.00

> <Gold.PLP.Chemscore.Internal.Correction>
0.6361

