#       Name:                EN300-29801_i001
#       Creating user name   fsindt
#       Creation time:       Mon Feb 27 19:50:27 2023


#       File generated by GOLD software.
#

@<TRIPOS>MOLECULE
EN300-29801_i001|acide_1|mol2|524|dock17
    34    33     1
SMALL
USER_CHARGES


@<TRIPOS>ATOM
      1 C1          -1.6998 -11.3016  11.0243 C.3            1 <1>                0.0000
      2 S2          -0.0566 -10.7885  10.4523 S.3            1 <1>                0.0000
      3 C3           0.4767 -12.1907   9.4325 C.3            1 <1>                0.0000
      4 C4           0.7521 -13.3986  10.3302 C.3            1 <1>                0.0000
      5 C5           0.1359 -14.6509   9.7034 C.3            1 <1>                0.0000
      6 N6           0.6634 -15.8423  10.3732 N.am           1 <1>                0.0000
      7 C7           0.4139 -16.0457  11.6820 C.2            1 <1>                0.0000
      8 O8          -0.2487 -15.2410  12.3064 O.2            1 <1>                0.0000
      9 O9           0.8987 -17.1406  12.2975 O.3            1 <1>                0.0000
     10 C10          1.2017 -17.0215  13.7125 C.3            1 <1>                0.0000
     11 C11          1.9609 -18.2657  14.1780 C.3            1 <1>                0.0000
     12 C12          2.0651 -15.7801  13.9465 C.3            1 <1>                0.0000
     13 C13         -0.1012 -16.8931  14.5041 C.3            1 <1>                0.0000
     14 C14          0.4842 -14.7028   8.2382 C.2            1 <1>                0.0000
     15 O15         -0.4017 -14.6997   7.4005 O.co2          1 <1>                0.0000
     16 O16          1.6519 -14.7480   7.8904 O.co2          1 <1>               -1.0000
     17 H17         -2.3492 -11.4652  10.1644 H              1 <1>                0.0000
     18 H18         -1.6135 -12.2259  11.5955 H              1 <1>                0.0000
     19 H19         -2.1241 -10.5219  11.6570 H              1 <1>                0.0000
     20 H20         -0.3083 -12.4400   8.7186 H              1 <1>                0.0000
     21 H21          1.3859 -11.9233   8.8941 H              1 <1>                0.0000
     22 H22          1.8284 -13.5363  10.4340 H              1 <1>                0.0000
     23 H23          0.3111 -13.2293  11.3126 H              1 <1>                0.0000
     24 H24         -0.9476 -14.6193   9.8185 H              1 <1>                0.0000
     25 H25          2.8892 -18.3571  13.6140 H              1 <1>                0.0000
     26 H26          2.1883 -18.1763  15.2401 H              1 <1>                0.0000
     27 H27          1.3458 -19.1501  14.0112 H              1 <1>                0.0000
     28 H28          1.5243 -14.8938  13.6148 H              1 <1>                0.0000
     29 H29          2.2926 -15.6908  15.0087 H              1 <1>                0.0000
     30 H30          2.9934 -15.8716  13.3825 H              1 <1>                0.0000
     31 H31         -0.7163 -17.7774  14.3374 H              1 <1>                0.0000
     32 H32          0.1264 -16.8037  15.5664 H              1 <1>                0.0000
     33 H33         -0.6419 -16.0067  14.1725 H              1 <1>                0.0000
     34 H34          1.1924 -16.4847   9.8748 H              1 <1>                0.0000
@<TRIPOS>BOND
    1    1    2 1     
    2    1   17 1     
    3    1   18 1     
    4    1   19 1     
    5    2    3 1     
    6    3    4 1     
    7    3   20 1     
    8    3   21 1     
    9    4    5 1     
   10    4   22 1     
   11    4   23 1     
   12    5    6 1     
   13    5   14 1     
   14    5   24 1     
   15    6    7 am    
   16    6   34 1     
   17    7    8 2     
   18    7    9 1     
   19    9   10 1     
   20   10   11 1     
   21   10   12 1     
   22   10   13 1     
   23   11   25 1     
   24   11   26 1     
   25   11   27 1     
   26   12   28 1     
   27   12   29 1     
   28   12   30 1     
   29   13   31 1     
   30   13   32 1     
   31   13   33 1     
   32   14   15 ar    
   33   14   16 ar    
@<TRIPOS>SUBSTRUCTURE
      1 ****           1
@<TRIPOS>SET
DONOR_HYDROGENS      STATIC     ATOMS    <user>   **** ""
1 34
ATOM$RED        STATIC     ATOMS    COLORGROUP SYSTEM
1 34
@<TRIPOS>COMMENT
> <Gold.Version>
2022.2.0

> <Gold.Id.Protein>
3pbl|protein|mol2

> <Gold.Protein.RotatedTorsions>
[ 1303 1298 1297 1294 ] final  -26.52 input  179.99 | X-H torsion
[ 2461 2456 2455 2452 ] final  166.21 input   30.03 | X-H torsion
[ 2515 2510 2509 2506 ] final  164.08 input  -89.99 | X-H torsion
[ 3721 3712 3711 3710 ] final -132.71 input -179.91 | X-H torsion
[ 3841 3832 3831 3830 ] final  -90.70 input -179.91 | X-H torsion
[ 3767 3762 3761 3758 ] final  155.83 input  -89.99 | X-H torsion
[ 2472 2467 2466 2463 ] final  -65.20 input  -89.97 | X-H torsion

> <Gold.Protein.ActiveResidues>
 VAL82   VAL86   LEU89   PHE106  VAL107  ASP110  VAL111  MET112  CYS114  THR115 
 CYS181  SER182  ILE183  PHE188  VAL189  ILE190  SER192  SER193  SER196  TRP342 
 PHE345  PHE346  HIS349  VAL350  TYR365  THR369  GLY372  TYR373 

> <Gold.Protein.RotatedAtoms>
    3.3321   -9.4865    3.8600 H   0  0  0  0  0  0  0  0  0  0  0  0  # atno 1303 bound_to 1298
    1.6577   -9.1267    8.3833 H   0  0  0  0  0  0  0  0  0  0  0  0  # atno 2461 bound_to 2456
   -3.7673   -5.2173    9.0296 H   0  0  0  0  0  0  0  0  0  0  0  0  # atno 2472 bound_to 2467
    2.2213   -8.8456    5.9873 H   0  0  0  0  0  0  0  0  0  0  0  0  # atno 2515 bound_to 2510
   -3.2761  -16.5799   14.2394 H   0  0  0  0  0  0  0  0  0  0  0  0  # atno 3721 bound_to 3712
   -3.9371  -22.8293   11.3585 H   0  0  0  0  0  0  0  0  0  0  0  0  # atno 3767 bound_to 3762
    1.8597  -19.6125    8.6997 H   0  0  0  0  0  0  0  0  0  0  0  0  # atno 3841 bound_to 3832
    4.5713   -8.5456    4.3554 LP  0  0  0  0  0  0  0  0  0  0  0  0  # atno 4297 bound_to 1298
    4.4591  -10.0892    4.8764 LP  0  0  0  0  0  0  0  0  0  0  0  0  # atno 4298 bound_to 1298
    1.7481   -7.9574    7.2467 LP  0  0  0  0  0  0  0  0  0  0  0  0  # atno 4299 bound_to 2456
    0.3321   -8.7242    7.5184 LP  0  0  0  0  0  0  0  0  0  0  0  0  # atno 4300 bound_to 2456
    2.2398   -7.4102    5.2094 LP  0  0  0  0  0  0  0  0  0  0  0  0  # atno 4301 bound_to 2510
    2.8357   -8.7431    4.4781 LP  0  0  0  0  0  0  0  0  0  0  0  0  # atno 4302 bound_to 2510
   -3.0848  -17.5380   12.9654 LP  0  0  0  0  0  0  0  0  0  0  0  0  # atno 4306 bound_to 3712
   -2.6606  -18.0466   14.4580 LP  0  0  0  0  0  0  0  0  0  0  0  0  # atno 4307 bound_to 3712
    3.1221  -20.5765    8.4694 LP  0  0  0  0  0  0  0  0  0  0  0  0  # atno 4314 bound_to 3832
    1.9591  -20.9733    9.5448 LP  0  0  0  0  0  0  0  0  0  0  0  0  # atno 4315 bound_to 3832
   -4.9052  -23.1122   10.0741 LP  0  0  0  0  0  0  0  0  0  0  0  0  # atno 4318 bound_to 3762
   -5.2848  -21.9336   11.1387 LP  0  0  0  0  0  0  0  0  0  0  0  0  # atno 4319 bound_to 3762
   -5.3915   -5.3663    8.9495 LP  0  0  0  0  0  0  0  0  0  0  0  0  # atno 4320 bound_to 2467
   -4.5580   -4.8099    7.6602 LP  0  0  0  0  0  0  0  0  0  0  0  0  # atno 4321 bound_to 2467

> <Gold.Score>
     Score     S(PLP)   S(hbond)     S(cho)   S(metal)  DE(clash)   DE(tors)     intcor
     39.56     -37.76       1.00       0.00       0.00       0.00       0.89       0.57

> <Gold.PLP.Fitness>
39.5607

> <Gold.PLP.PLP>
-37.7631

> <Gold.PLP.part.hbond>
-1.0000

> <Gold.PLP.part.metal>
0.0000

> <Gold.PLP.part.buried>
-5.7534

> <Gold.PLP.part.nonpolar>
-32.7306

> <Gold.PLP.part.repulsive>
0.4069

> <Gold.PLP.ligand.clash>
0.0000

> <Gold.PLP.ligand.torsion>
0.8878

> <Gold.PLP.Chemscore.Hbond>
1.0000

> <Gold.PLP.Chemscore.CHOScore>
0.0000

> <Gold.PLP.Chemscore.Metal>
0.0000

> <Gold.Chemscore.Hbonds>
donor molecule, donor type, donor heavy atom, donor atom, acceptor molecule, acceptor atom, score
      L1  H     6    34       P1  1227  1.00

> <Gold.PLP.Chemscore.Internal.Correction>
0.5732

