#       Name:                EN300-29801_i001
#       Creating user name   fsindt
#       Creation time:       Mon Feb 27 19:50:02 2023


#       File generated by GOLD software.
#

@<TRIPOS>MOLECULE
EN300-29801_i001|acide_1|mol2|524|dock2
    34    33     1
SMALL
USER_CHARGES


@<TRIPOS>ATOM
      1 C1          -4.4513 -10.3829   9.8974 C.3            1 <1>                0.0000
      2 S2          -2.8823 -10.5122  10.7989 S.3            1 <1>                0.0000
      3 C3          -1.7141 -11.0319   9.5122 C.3            1 <1>                0.0000
      4 C4          -0.5732 -11.8271  10.1501 C.3            1 <1>                0.0000
      5 C5          -0.2071 -13.0072   9.2478 C.3            1 <1>                0.0000
      6 N6           0.7835 -13.8493   9.9231 N.am           1 <1>                0.0000
      7 C7           0.4624 -14.4792  11.0705 C.2            1 <1>                0.0000
      8 O8          -0.6488 -14.3489  11.5448 O.2            1 <1>                0.0000
      9 O9           1.3726 -15.2531  11.6911 O.3            1 <1>                0.0000
     10 C10          0.8651 -16.3073  12.5510 C.3            1 <1>                0.0000
     11 C11         -0.1770 -17.1291  11.7897 C.3            1 <1>                0.0000
     12 C12          2.0190 -17.2168  12.9781 C.3            1 <1>                0.0000
     13 C13          0.2187 -15.6870  13.7912 C.3            1 <1>                0.0000
     14 C14          0.3702 -12.4910   7.9550 C.2            1 <1>                0.0000
     15 O15          0.5192 -11.2923   7.7895 O.co2          1 <1>                0.0000
     16 O16          0.6881 -13.2722   7.0745 O.co2          1 <1>               -1.0000
     17 H17         -4.3522  -9.6471   9.0995 H              1 <1>                0.0000
     18 H18         -4.7047 -11.3523   9.4684 H              1 <1>                0.0000
     19 H19         -5.2395 -10.0718  10.5830 H              1 <1>                0.0000
     20 H20         -2.2303 -11.6577   8.7841 H              1 <1>                0.0000
     21 H21         -1.3088 -10.1521   9.0125 H              1 <1>                0.0000
     22 H22          0.2957 -11.1806  10.2732 H              1 <1>                0.0000
     23 H23         -0.8901 -12.1992  11.1244 H              1 <1>                0.0000
     24 H24         -1.1008 -13.5948   9.0377 H              1 <1>                0.0000
     25 H25          0.2836 -17.5710  10.9061 H              1 <1>                0.0000
     26 H26         -0.5579 -17.9204  12.4351 H              1 <1>                0.0000
     27 H27         -0.9990 -16.4811  11.4853 H              1 <1>                0.0000
     28 H28          2.7614 -16.6313  13.5204 H              1 <1>                0.0000
     29 H29          1.6380 -18.0082  13.6236 H              1 <1>                0.0000
     30 H30          2.4795 -17.6588  12.0945 H              1 <1>                0.0000
     31 H31         -0.6032 -15.0390  13.4869 H              1 <1>                0.0000
     32 H32         -0.1622 -16.4784  14.4367 H              1 <1>                0.0000
     33 H33          0.9612 -15.1016  14.3336 H              1 <1>                0.0000
     34 H34          1.6704 -13.9533   9.5445 H              1 <1>                0.0000
@<TRIPOS>BOND
    1    1    2 1     
    2    1   17 1     
    3    1   18 1     
    4    1   19 1     
    5    2    3 1     
    6    3    4 1     
    7    3   20 1     
    8    3   21 1     
    9    4    5 1     
   10    4   22 1     
   11    4   23 1     
   12    5    6 1     
   13    5   14 1     
   14    5   24 1     
   15    6    7 am    
   16    6   34 1     
   17    7    8 2     
   18    7    9 1     
   19    9   10 1     
   20   10   11 1     
   21   10   12 1     
   22   10   13 1     
   23   11   25 1     
   24   11   26 1     
   25   11   27 1     
   26   12   28 1     
   27   12   29 1     
   28   12   30 1     
   29   13   31 1     
   30   13   32 1     
   31   13   33 1     
   32   14   15 ar    
   33   14   16 ar    
@<TRIPOS>SUBSTRUCTURE
      1 ****           1
@<TRIPOS>SET
DONOR_HYDROGENS      STATIC     ATOMS    <user>   **** ""
1 34
ATOM$RED        STATIC     ATOMS    COLORGROUP SYSTEM
1 34
@<TRIPOS>COMMENT
> <Gold.Version>
2022.2.0

> <Gold.Id.Protein>
3pbl|protein|mol2

> <Gold.Protein.RotatedTorsions>
[ 1303 1298 1297 1294 ] final  137.08 input  179.99 | X-H torsion
[ 2461 2456 2455 2452 ] final -139.48 input   30.03 | X-H torsion
[ 2515 2510 2509 2506 ] final   94.15 input  -89.99 | X-H torsion
[ 3721 3712 3711 3710 ] final   59.57 input -179.91 | X-H torsion
[ 3841 3832 3831 3830 ] final -149.66 input -179.91 | X-H torsion
[ 3767 3762 3761 3758 ] final  -31.79 input  -89.99 | X-H torsion
[ 2472 2467 2466 2463 ] final  162.90 input  -89.97 | X-H torsion

> <Gold.Protein.ActiveResidues>
 VAL82   VAL86   LEU89   PHE106  VAL107  ASP110  VAL111  MET112  CYS114  THR115 
 CYS181  SER182  ILE183  PHE188  VAL189  ILE190  SER192  SER193  SER196  TRP342 
 PHE345  PHE346  HIS349  VAL350  TYR365  THR369  GLY372  TYR373 

> <Gold.Protein.RotatedAtoms>
    4.8586   -9.5170    4.9326 H   0  0  0  0  0  0  0  0  0  0  0  0  # atno 1303 bound_to 1298
    0.8220   -9.2681    8.2327 H   0  0  0  0  0  0  0  0  0  0  0  0  # atno 2461 bound_to 2456
   -5.4680   -5.3135    8.7775 H   0  0  0  0  0  0  0  0  0  0  0  0  # atno 2472 bound_to 2467
    2.0369   -7.7864    5.8832 H   0  0  0  0  0  0  0  0  0  0  0  0  # atno 2515 bound_to 2510
   -2.5890  -17.9109   13.3891 H   0  0  0  0  0  0  0  0  0  0  0  0  # atno 3721 bound_to 3712
   -5.5028  -22.3317   10.4409 H   0  0  0  0  0  0  0  0  0  0  0  0  # atno 3767 bound_to 3762
    2.6241  -19.7500    8.3494 H   0  0  0  0  0  0  0  0  0  0  0  0  # atno 3841 bound_to 3832
    3.5050  -10.0701    4.2060 LP  0  0  0  0  0  0  0  0  0  0  0  0  # atno 4297 bound_to 1298
    3.9983   -8.5342    3.9528 LP  0  0  0  0  0  0  0  0  0  0  0  0  # atno 4298 bound_to 1298
    2.1604   -8.4150    7.8477 LP  0  0  0  0  0  0  0  0  0  0  0  0  # atno 4299 bound_to 2456
    0.7553   -8.1253    7.0678 LP  0  0  0  0  0  0  0  0  0  0  0  0  # atno 4300 bound_to 2456
    2.6995   -7.9607    4.4012 LP  0  0  0  0  0  0  0  0  0  0  0  0  # atno 4301 bound_to 2510
    2.5606   -9.2523    5.3906 LP  0  0  0  0  0  0  0  0  0  0  0  0  # atno 4302 bound_to 2510
   -2.9875  -17.4133   14.8626 LP  0  0  0  0  0  0  0  0  0  0  0  0  # atno 4306 bound_to 3712
   -3.5511  -16.6346   13.5425 LP  0  0  0  0  0  0  0  0  0  0  0  0  # atno 4307 bound_to 3712
    2.7929  -21.1233    9.1628 LP  0  0  0  0  0  0  0  0  0  0  0  0  # atno 4314 bound_to 3832
    1.4051  -20.2678    9.2561 LP  0  0  0  0  0  0  0  0  0  0  0  0  # atno 4315 bound_to 3832
   -4.4120  -22.2110   11.6502 LP  0  0  0  0  0  0  0  0  0  0  0  0  # atno 4318 bound_to 3762
   -4.2128  -23.3323   10.4798 LP  0  0  0  0  0  0  0  0  0  0  0  0  # atno 4319 bound_to 3762
   -4.3651   -4.7990    7.6887 LP  0  0  0  0  0  0  0  0  0  0  0  0  # atno 4320 bound_to 2467
   -3.8840   -5.2810    9.1730 LP  0  0  0  0  0  0  0  0  0  0  0  0  # atno 4321 bound_to 2467

> <Gold.Score>
     Score     S(PLP)   S(hbond)     S(cho)   S(metal)  DE(clash)   DE(tors)     intcor
     48.61     -46.85       0.98       0.00       0.00       0.00       0.90       0.64

> <Gold.PLP.Fitness>
48.6148

> <Gold.PLP.PLP>
-46.8520

> <Gold.PLP.part.hbond>
-1.0000

> <Gold.PLP.part.metal>
0.0000

> <Gold.PLP.part.buried>
-5.4282

> <Gold.PLP.part.nonpolar>
-41.5133

> <Gold.PLP.part.repulsive>
0.1871

> <Gold.PLP.ligand.clash>
0.0000

> <Gold.PLP.ligand.torsion>
0.9006

> <Gold.PLP.Chemscore.Hbond>
0.9760

> <Gold.PLP.Chemscore.CHOScore>
0.0000

> <Gold.PLP.Chemscore.Metal>
0.0000

> <Gold.Chemscore.Hbonds>
donor molecule, donor type, donor heavy atom, donor atom, acceptor molecule, acceptor atom, score
      P1  H  2456  2461       L1    15  0.98

> <Gold.PLP.Chemscore.Internal.Correction>
0.6361

