#       Name:                EN300-29801_i001
#       Creating user name   fsindt
#       Creation time:       Mon Feb 27 19:50:03 2023


#       File generated by GOLD software.
#

@<TRIPOS>MOLECULE
EN300-29801_i001|acide_1|mol2|524|dock3
    34    33     1
SMALL
USER_CHARGES


@<TRIPOS>ATOM
      1 C1           0.4566 -19.8266  13.7448 C.3            1 <1>                0.0000
      2 S2          -0.4471 -19.9316  12.1754 S.3            1 <1>                0.0000
      3 C3           0.0131 -18.3910  11.3356 C.3            1 <1>                0.0000
      4 C4          -0.7012 -17.2137  12.0023 C.3            1 <1>                0.0000
      5 C5           0.3009 -16.0854  12.2541 C.3            1 <1>                0.0000
      6 N6           1.0032 -15.7688  11.0080 N.am           1 <1>                0.0000
      7 C7           0.6987 -14.6447  10.3297 C.2            1 <1>                0.0000
      8 O8          -0.1582 -13.8937  10.7518 O.2            1 <1>                0.0000
      9 O9           1.3441 -14.3537   9.1845 O.3            1 <1>                0.0000
     10 C10          0.6333 -13.5381   8.2161 C.3            1 <1>                0.0000
     11 C11          1.4157 -13.5090   6.9016 C.3            1 <1>                0.0000
     12 C12         -0.7551 -14.1322   7.9702 C.3            1 <1>                0.0000
     13 C13          0.4902 -12.1137   8.7561 C.3            1 <1>                0.0000
     14 C14          1.2984 -16.5225  13.2957 C.2            1 <1>                0.0000
     15 O15          1.3889 -15.9121  14.3472 O.co2          1 <1>                0.0000
     16 O16          2.0150 -17.4867  13.0868 O.co2          1 <1>               -1.0000
     17 H17          1.5260 -19.7619  13.5446 H              1 <1>                0.0000
     18 H18          0.1347 -18.9398  14.2907 H              1 <1>                0.0000
     19 H19          0.2517 -20.7151  14.3421 H              1 <1>                0.0000
     20 H20          1.0915 -18.2479  11.4045 H              1 <1>                0.0000
     21 H21         -0.2797 -18.4472  10.2872 H              1 <1>                0.0000
     22 H22         -1.4964 -16.8543  11.3492 H              1 <1>                0.0000
     23 H23         -1.1290 -17.5382  12.9509 H              1 <1>                0.0000
     24 H24         -0.2291 -15.2007  12.6073 H              1 <1>                0.0000
     25 H25          1.5176 -14.5239   6.5169 H              1 <1>                0.0000
     26 H26          0.8821 -12.8968   6.1747 H              1 <1>                0.0000
     27 H27          2.4048 -13.0859   7.0768 H              1 <1>                0.0000
     28 H28         -1.3124 -14.1529   8.9067 H              1 <1>                0.0000
     29 H29         -1.2887 -13.5199   7.2432 H              1 <1>                0.0000
     30 H30         -0.6531 -15.1470   7.5855 H              1 <1>                0.0000
     31 H31          1.4792 -11.6905   8.9313 H              1 <1>                0.0000
     32 H32         -0.0435 -11.5015   8.0291 H              1 <1>                0.0000
     33 H33         -0.0673 -12.1345   9.6925 H              1 <1>                0.0000
     34 H34          1.6873 -16.3683  10.6710 H              1 <1>                0.0000
@<TRIPOS>BOND
    1    1    2 1     
    2    1   17 1     
    3    1   18 1     
    4    1   19 1     
    5    2    3 1     
    6    3    4 1     
    7    3   20 1     
    8    3   21 1     
    9    4    5 1     
   10    4   22 1     
   11    4   23 1     
   12    5    6 1     
   13    5   14 1     
   14    5   24 1     
   15    6    7 am    
   16    6   34 1     
   17    7    8 2     
   18    7    9 1     
   19    9   10 1     
   20   10   11 1     
   21   10   12 1     
   22   10   13 1     
   23   11   25 1     
   24   11   26 1     
   25   11   27 1     
   26   12   28 1     
   27   12   29 1     
   28   12   30 1     
   29   13   31 1     
   30   13   32 1     
   31   13   33 1     
   32   14   15 ar    
   33   14   16 ar    
@<TRIPOS>SUBSTRUCTURE
      1 ****           1
@<TRIPOS>SET
DONOR_HYDROGENS      STATIC     ATOMS    <user>   **** ""
1 34
ATOM$RED        STATIC     ATOMS    COLORGROUP SYSTEM
1 34
@<TRIPOS>COMMENT
> <Gold.Version>
2022.2.0

> <Gold.Id.Protein>
3pbl|protein|mol2

> <Gold.Protein.RotatedTorsions>
[ 1303 1298 1297 1294 ] final   -0.89 input  179.99 | X-H torsion
[ 2461 2456 2455 2452 ] final  -59.39 input   30.03 | X-H torsion
[ 2515 2510 2509 2506 ] final -147.18 input  -89.99 | X-H torsion
[ 3721 3712 3711 3710 ] final  164.47 input -179.91 | X-H torsion
[ 3841 3832 3831 3830 ] final -152.96 input -179.91 | X-H torsion
[ 3767 3762 3761 3758 ] final   76.80 input  -89.99 | X-H torsion
[ 2472 2467 2466 2463 ] final  162.67 input  -89.97 | X-H torsion

> <Gold.Protein.ActiveResidues>
 VAL82   VAL86   LEU89   PHE106  VAL107  ASP110  VAL111  MET112  CYS114  THR115 
 CYS181  SER182  ILE183  PHE188  VAL189  ILE190  SER192  SER193  SER196  TRP342 
 PHE345  PHE346  HIS349  VAL350  TYR365  THR369  GLY372  TYR373 

> <Gold.Protein.RotatedAtoms>
    3.3817   -9.8609    4.0398 H   0  0  0  0  0  0  0  0  0  0  0  0  # atno 1303 bound_to 1298
    0.3736   -8.5524    7.3613 H   0  0  0  0  0  0  0  0  0  0  0  0  # atno 2461 bound_to 2456
   -5.4691   -5.3124    8.7740 H   0  0  0  0  0  0  0  0  0  0  0  0  # atno 2472 bound_to 2467
    2.5517   -9.2493    5.4105 H   0  0  0  0  0  0  0  0  0  0  0  0  # atno 2515 bound_to 2510
   -3.2743  -16.7214   13.3477 H   0  0  0  0  0  0  0  0  0  0  0  0  # atno 3721 bound_to 3712
   -4.3468  -23.3318   10.3487 H   0  0  0  0  0  0  0  0  0  0  0  0  # atno 3767 bound_to 3762
    2.6659  -19.7769    8.3476 H   0  0  0  0  0  0  0  0  0  0  0  0  # atno 3841 bound_to 3832
    4.2455   -8.4766    4.1022 LP  0  0  0  0  0  0  0  0  0  0  0  0  # atno 4297 bound_to 1298
    4.7353   -9.7836    4.9498 LP  0  0  0  0  0  0  0  0  0  0  0  0  # atno 4298 bound_to 1298
    1.4413   -9.2203    8.4011 LP  0  0  0  0  0  0  0  0  0  0  0  0  # atno 4299 bound_to 2456
    1.9226   -8.0355    7.3856 LP  0  0  0  0  0  0  0  0  0  0  0  0  # atno 4300 bound_to 2456
    2.0385   -7.7690    5.8699 LP  0  0  0  0  0  0  0  0  0  0  0  0  # atno 4301 bound_to 2510
    2.7064   -7.9804    4.3948 LP  0  0  0  0  0  0  0  0  0  0  0  0  # atno 4302 bound_to 2510
   -2.6589  -18.1833   13.5963 LP  0  0  0  0  0  0  0  0  0  0  0  0  # atno 4306 bound_to 3712
   -3.0886  -17.2379   14.8565 LP  0  0  0  0  0  0  0  0  0  0  0  0  # atno 4307 bound_to 3712
    2.7526  -21.1352    9.1983 LP  0  0  0  0  0  0  0  0  0  0  0  0  # atno 4314 bound_to 3832
    1.3971  -20.2248    9.2226 LP  0  0  0  0  0  0  0  0  0  0  0  0  # atno 4315 bound_to 3832
   -5.5101  -22.2100   10.5833 LP  0  0  0  0  0  0  0  0  0  0  0  0  # atno 4318 bound_to 3762
   -4.2704  -22.3336   11.6389 LP  0  0  0  0  0  0  0  0  0  0  0  0  # atno 4319 bound_to 3762
   -4.3614   -4.7990    7.6897 LP  0  0  0  0  0  0  0  0  0  0  0  0  # atno 4320 bound_to 2467
   -3.8866   -5.2822    9.1755 LP  0  0  0  0  0  0  0  0  0  0  0  0  # atno 4321 bound_to 2467

> <Gold.Score>
     Score     S(PLP)   S(hbond)     S(cho)   S(metal)  DE(clash)   DE(tors)     intcor
     42.08     -37.48       2.00       0.00       0.00       0.00       1.02       0.64

> <Gold.PLP.Fitness>
42.0777

> <Gold.PLP.PLP>
-37.4791

> <Gold.PLP.part.hbond>
-2.0000

> <Gold.PLP.part.metal>
0.0000

> <Gold.PLP.part.buried>
-5.7863

> <Gold.PLP.part.nonpolar>
-30.1453

> <Gold.PLP.part.repulsive>
0.2357

> <Gold.PLP.ligand.clash>
0.0000

> <Gold.PLP.ligand.torsion>
1.0187

> <Gold.PLP.Chemscore.Hbond>
2.0000

> <Gold.PLP.Chemscore.CHOScore>
0.0000

> <Gold.PLP.Chemscore.Metal>
0.0000

> <Gold.Chemscore.Hbonds>
donor molecule, donor type, donor heavy atom, donor atom, acceptor molecule, acceptor atom, score
      L1  H     6    34       P1  1227  1.00
      P1  H  2305  2313       L1    15  1.00

> <Gold.PLP.Chemscore.Internal.Correction>
0.6361

