#       Name:                EN300-29801_i001
#       Creating user name   fsindt
#       Creation time:       Mon Feb 27 19:50:07 2023


#       File generated by GOLD software.
#

@<TRIPOS>MOLECULE
EN300-29801_i001|acide_1|mol2|524|dock5
    34    33     1
SMALL
USER_CHARGES


@<TRIPOS>ATOM
      1 C1          -3.2559 -10.5798   9.8525 C.3            1 <1>                0.0000
      2 S2          -1.6560 -11.0999  10.5313 S.3            1 <1>                0.0000
      3 C3          -1.0210 -12.2281   9.2607 C.3            1 <1>                0.0000
      4 C4           0.2744 -12.8753   9.7545 C.3            1 <1>                0.0000
      5 C5           0.3248 -14.3330   9.2924 C.3            1 <1>                0.0000
      6 N6           1.2060 -15.0963  10.1797 N.am           1 <1>                0.0000
      7 C7           0.8520 -15.3066  11.4630 C.2            1 <1>                0.0000
      8 O8          -0.1981 -14.8633  11.8841 O.2            1 <1>                0.0000
      9 O9           1.6617 -16.0081  12.2784 O.3            1 <1>                0.0000
     10 C10          1.0293 -16.7632  13.3452 C.3            1 <1>                0.0000
     11 C11         -0.1046 -17.6120  12.7665 C.3            1 <1>                0.0000
     12 C12          2.0637 -17.6766  14.0061 C.3            1 <1>                0.0000
     13 C13          0.4623 -15.7970  14.3872 C.3            1 <1>                0.0000
     14 C14          0.8548 -14.3952   7.8831 C.2            1 <1>                0.0000
     15 O15          0.9646 -15.4710   7.3201 O.co2          1 <1>                0.0000
     16 O16          1.1740 -13.3697   7.3060 O.co2          1 <1>               -1.0000
     17 H17         -3.1004 -10.0858   8.8935 H              1 <1>                0.0000
     18 H18         -3.8923 -11.4535   9.7123 H              1 <1>                0.0000
     19 H19         -3.7362  -9.8877  10.5442 H              1 <1>                0.0000
     20 H20         -1.7609 -13.0031   9.0604 H              1 <1>                0.0000
     21 H21         -0.8226 -11.6702   8.3456 H              1 <1>                0.0000
     22 H22          1.1288 -12.3351   9.3466 H              1 <1>                0.0000
     23 H23          0.3071 -12.8379  10.8434 H              1 <1>                0.0000
     24 H24         -0.6783 -14.7585   9.3225 H              1 <1>                0.0000
     25 H25          0.2993 -18.3004  12.0241 H              1 <1>                0.0000
     26 H26         -0.5793 -18.1788  13.5673 H              1 <1>                0.0000
     27 H27         -0.8415 -16.9613  12.2956 H              1 <1>                0.0000
     28 H28          2.8715 -17.0719  14.4184 H              1 <1>                0.0000
     29 H29          1.5889 -18.2434  14.8070 H              1 <1>                0.0000
     30 H30          2.4676 -18.3650  13.2637 H              1 <1>                0.0000
     31 H31         -0.2746 -15.1463  13.9164 H              1 <1>                0.0000
     32 H32         -0.0124 -16.3639  15.1881 H              1 <1>                0.0000
     33 H33          1.2702 -15.1924  14.7996 H              1 <1>                0.0000
     34 H34          2.0442 -15.4502   9.8435 H              1 <1>                0.0000
@<TRIPOS>BOND
    1    1    2 1     
    2    1   17 1     
    3    1   18 1     
    4    1   19 1     
    5    2    3 1     
    6    3    4 1     
    7    3   20 1     
    8    3   21 1     
    9    4    5 1     
   10    4   22 1     
   11    4   23 1     
   12    5    6 1     
   13    5   14 1     
   14    5   24 1     
   15    6    7 am    
   16    6   34 1     
   17    7    8 2     
   18    7    9 1     
   19    9   10 1     
   20   10   11 1     
   21   10   12 1     
   22   10   13 1     
   23   11   25 1     
   24   11   26 1     
   25   11   27 1     
   26   12   28 1     
   27   12   29 1     
   28   12   30 1     
   29   13   31 1     
   30   13   32 1     
   31   13   33 1     
   32   14   15 ar    
   33   14   16 ar    
@<TRIPOS>SUBSTRUCTURE
      1 ****           1
@<TRIPOS>SET
DONOR_HYDROGENS      STATIC     ATOMS    <user>   **** ""
1 34
ATOM$RED        STATIC     ATOMS    COLORGROUP SYSTEM
1 34
@<TRIPOS>COMMENT
> <Gold.Version>
2022.2.0

> <Gold.Id.Protein>
3pbl|protein|mol2

> <Gold.Protein.RotatedTorsions>
[ 1303 1298 1297 1294 ] final  -33.29 input  179.99 | X-H torsion
[ 2461 2456 2455 2452 ] final  163.18 input   30.03 | X-H torsion
[ 2515 2510 2509 2506 ] final  -41.89 input  -89.99 | X-H torsion
[ 3721 3712 3711 3710 ] final   68.00 input -179.91 | X-H torsion
[ 3841 3832 3831 3830 ] final   93.36 input -179.91 | X-H torsion
[ 3767 3762 3761 3758 ] final  156.88 input  -89.99 | X-H torsion
[ 2472 2467 2466 2463 ] final -118.61 input  -89.97 | X-H torsion

> <Gold.Protein.ActiveResidues>
 VAL82   VAL86   LEU89   PHE106  VAL107  ASP110  VAL111  MET112  CYS114  THR115 
 CYS181  SER182  ILE183  PHE188  VAL189  ILE190  SER192  SER193  SER196  TRP342 
 PHE345  PHE346  HIS349  VAL350  TYR365  THR369  GLY372  TYR373 

> <Gold.Protein.RotatedAtoms>
    3.3452   -9.3807    3.8281 H   0  0  0  0  0  0  0  0  0  0  0  0  # atno 1303 bound_to 1298
    1.7003   -9.1026    8.3741 H   0  0  0  0  0  0  0  0  0  0  0  0  # atno 2461 bound_to 2456
   -4.4787   -5.4406    9.4320 H   0  0  0  0  0  0  0  0  0  0  0  0  # atno 2472 bound_to 2467
    2.7726   -8.2090    4.3551 H   0  0  0  0  0  0  0  0  0  0  0  0  # atno 2515 bound_to 2510
   -2.6363  -17.8435   13.2919 H   0  0  0  0  0  0  0  0  0  0  0  0  # atno 3721 bound_to 3712
   -3.9413  -22.8167   11.3698 H   0  0  0  0  0  0  0  0  0  0  0  0  # atno 3767 bound_to 3762
    2.8773  -20.9077    9.2292 H   0  0  0  0  0  0  0  0  0  0  0  0  # atno 3841 bound_to 3832
    4.6448   -8.5924    4.4247 LP  0  0  0  0  0  0  0  0  0  0  0  0  # atno 4297 bound_to 1298
    4.3724  -10.1482    4.8391 LP  0  0  0  0  0  0  0  0  0  0  0  0  # atno 4298 bound_to 1298
    1.7069   -7.9460    7.2209 LP  0  0  0  0  0  0  0  0  0  0  0  0  # atno 4299 bound_to 2456
    0.3306   -8.7597    7.5533 LP  0  0  0  0  0  0  0  0  0  0  0  0  # atno 4300 bound_to 2456
    2.4498   -9.1887    5.6206 LP  0  0  0  0  0  0  0  0  0  0  0  0  # atno 4301 bound_to 2510
    2.0741   -7.6015    5.7000 LP  0  0  0  0  0  0  0  0  0  0  0  0  # atno 4302 bound_to 2510
   -2.9197  -17.5348   14.8418 LP  0  0  0  0  0  0  0  0  0  0  0  0  # atno 4306 bound_to 3712
   -3.5643  -16.5908   13.6756 LP  0  0  0  0  0  0  0  0  0  0  0  0  # atno 4307 bound_to 3712
    1.4053  -20.2686    9.2567 LP  0  0  0  0  0  0  0  0  0  0  0  0  # atno 4314 bound_to 3832
    2.5003  -19.7851    8.1458 LP  0  0  0  0  0  0  0  0  0  0  0  0  # atno 4315 bound_to 3832
   -4.8908  -23.1217   10.0766 LP  0  0  0  0  0  0  0  0  0  0  0  0  # atno 4318 bound_to 3762
   -5.2950  -21.9367   11.1249 LP  0  0  0  0  0  0  0  0  0  0  0  0  # atno 4319 bound_to 3762
   -5.4272   -5.0828    8.1519 LP  0  0  0  0  0  0  0  0  0  0  0  0  # atno 4320 bound_to 2467
   -3.8110   -4.8702    8.0554 LP  0  0  0  0  0  0  0  0  0  0  0  0  # atno 4321 bound_to 2467

> <Gold.Score>
     Score     S(PLP)   S(hbond)     S(cho)   S(metal)  DE(clash)   DE(tors)     intcor
     44.13     -44.26       0.42       0.00       0.00       0.00       1.02       0.64

> <Gold.PLP.Fitness>
44.1269

> <Gold.PLP.PLP>
-44.2596

> <Gold.PLP.part.hbond>
-1.0000

> <Gold.PLP.part.metal>
0.0000

> <Gold.PLP.part.buried>
-4.6764

> <Gold.PLP.part.nonpolar>
-39.8853

> <Gold.PLP.part.repulsive>
0.4637

> <Gold.PLP.ligand.clash>
0.0000

> <Gold.PLP.ligand.torsion>
1.0216

> <Gold.PLP.Chemscore.Hbond>
0.4248

> <Gold.PLP.Chemscore.CHOScore>
0.0000

> <Gold.PLP.Chemscore.Metal>
0.0000

> <Gold.Chemscore.Hbonds>
donor molecule, donor type, donor heavy atom, donor atom, acceptor molecule, acceptor atom, score
      L1  H     6    34       P1  1227  0.42

> <Gold.PLP.Chemscore.Internal.Correction>
0.6361

