#       Name:                EN300-29801_i001
#       Creating user name   fsindt
#       Creation time:       Mon Feb 27 19:50:32 2023


#       File generated by GOLD software.
#

@<TRIPOS>MOLECULE
EN300-29801_i001|acide_1|mol2|524|dock20
    34    33     1
SMALL
USER_CHARGES


@<TRIPOS>ATOM
      1 C1           2.2804 -16.8052  14.2059 C.3            1 <1>                0.0000
      2 S2           0.4678 -16.7449  14.2472 S.3            1 <1>                0.0000
      3 C3           0.0818 -15.3371  13.1704 C.3            1 <1>                0.0000
      4 C4           0.5021 -15.6620  11.7356 C.3            1 <1>                0.0000
      5 C5           0.5268 -14.3757  10.9076 C.3            1 <1>                0.0000
      6 N6          -0.7701 -13.7023  11.0128 N.am           1 <1>                0.0000
      7 C7          -0.9517 -12.4963  10.4391 C.2            1 <1>                0.0000
      8 O8          -0.0398 -11.9676   9.8345 O.2            1 <1>                0.0000
      9 O9          -2.1435 -11.8775  10.5357 O.3            1 <1>                0.0000
     10 C10         -2.1817 -10.4649  10.2021 C.3            1 <1>                0.0000
     11 C11         -1.1186  -9.7205  11.0125 C.3            1 <1>                0.0000
     12 C12         -1.9023 -10.2859   8.7085 C.3            1 <1>                0.0000
     13 C13         -3.5642  -9.8997  10.5337 C.3            1 <1>                0.0000
     14 C14          0.8024 -14.7122   9.4648 C.2            1 <1>                0.0000
     15 O15          1.7836 -14.2503   8.9078 O.co2          1 <1>                0.0000
     16 O16          0.0440 -15.4464   8.8544 O.co2          1 <1>               -1.0000
     17 H17          2.6156 -16.9582  13.1801 H              1 <1>                0.0000
     18 H18          2.6839 -15.8659  14.5838 H              1 <1>                0.0000
     19 H19          2.6308 -17.6280  14.8292 H              1 <1>                0.0000
     20 H20         -0.9900 -15.1408  13.1993 H              1 <1>                0.0000
     21 H21          0.6220 -14.4560  13.5166 H              1 <1>                0.0000
     22 H22          1.4959 -16.1098  11.7408 H              1 <1>                0.0000
     23 H23         -0.2097 -16.3622  11.2982 H              1 <1>                0.0000
     24 H24          1.3098 -13.7168  11.2830 H              1 <1>                0.0000
     25 H25         -0.1336 -10.1232  10.7763 H              1 <1>                0.0000
     26 H26         -1.1473  -8.6601  10.7621 H              1 <1>                0.0000
     27 H27         -1.3176  -9.8481  12.0766 H              1 <1>                0.0000
     28 H28         -2.6596 -10.8162   8.1312 H              1 <1>                0.0000
     29 H29         -1.9309  -9.2254   8.4580 H              1 <1>                0.0000
     30 H30         -0.9173 -10.6885   8.4723 H              1 <1>                0.0000
     31 H31         -3.7633 -10.0272  11.5977 H              1 <1>                0.0000
     32 H32         -3.5928  -8.8392  10.2832 H              1 <1>                0.0000
     33 H33         -4.3215 -10.4300   9.9562 H              1 <1>                0.0000
     34 H34         -1.4980 -14.1244  11.4954 H              1 <1>                0.0000
@<TRIPOS>BOND
    1    1    2 1     
    2    1   17 1     
    3    1   18 1     
    4    1   19 1     
    5    2    3 1     
    6    3    4 1     
    7    3   20 1     
    8    3   21 1     
    9    4    5 1     
   10    4   22 1     
   11    4   23 1     
   12    5    6 1     
   13    5   14 1     
   14    5   24 1     
   15    6    7 am    
   16    6   34 1     
   17    7    8 2     
   18    7    9 1     
   19    9   10 1     
   20   10   11 1     
   21   10   12 1     
   22   10   13 1     
   23   11   25 1     
   24   11   26 1     
   25   11   27 1     
   26   12   28 1     
   27   12   29 1     
   28   12   30 1     
   29   13   31 1     
   30   13   32 1     
   31   13   33 1     
   32   14   15 ar    
   33   14   16 ar    
@<TRIPOS>SUBSTRUCTURE
      1 ****           1
@<TRIPOS>SET
DONOR_HYDROGENS      STATIC     ATOMS    <user>   **** ""
1 34
ATOM$RED        STATIC     ATOMS    COLORGROUP SYSTEM
1 34
@<TRIPOS>COMMENT
> <Gold.Version>
2022.2.0

> <Gold.Id.Protein>
3pbl|protein|mol2

> <Gold.Protein.RotatedTorsions>
[ 1303 1298 1297 1294 ] final -164.09 input  179.99 | X-H torsion
[ 2461 2456 2455 2452 ] final   84.78 input   30.03 | X-H torsion
[ 2515 2510 2509 2506 ] final  166.88 input  -89.99 | X-H torsion
[ 3721 3712 3711 3710 ] final -161.74 input -179.91 | X-H torsion
[ 3841 3832 3831 3830 ] final   55.79 input -179.91 | X-H torsion
[ 3767 3762 3761 3758 ] final   77.36 input  -89.99 | X-H torsion
[ 2472 2467 2466 2463 ] final  -15.16 input  -89.97 | X-H torsion

> <Gold.Protein.ActiveResidues>
 VAL82   VAL86   LEU89   PHE106  VAL107  ASP110  VAL111  MET112  CYS114  THR115 
 CYS181  SER182  ILE183  PHE188  VAL189  ILE190  SER192  SER193  SER196  TRP342 
 PHE345  PHE346  HIS349  VAL350  TYR365  THR369  GLY372  TYR373 

> <Gold.Protein.RotatedAtoms>
    4.7462   -8.6892    4.5333 H   0  0  0  0  0  0  0  0  0  0  0  0  # atno 1303 bound_to 1298
    2.1159   -8.2429    7.6603 H   0  0  0  0  0  0  0  0  0  0  0  0  # atno 2461 bound_to 2456
   -3.6864   -4.9405    8.2861 H   0  0  0  0  0  0  0  0  0  0  0  0  # atno 2472 bound_to 2467
    2.2384   -8.8827    5.9657 H   0  0  0  0  0  0  0  0  0  0  0  0  # atno 2515 bound_to 2510
   -3.3385  -16.5372   13.8119 H   0  0  0  0  0  0  0  0  0  0  0  0  # atno 3721 bound_to 3712
   -4.3398  -23.3325   10.3547 H   0  0  0  0  0  0  0  0  0  0  0  0  # atno 3767 bound_to 3762
    2.4134  -20.9314    9.5376 H   0  0  0  0  0  0  0  0  0  0  0  0  # atno 3841 bound_to 3832
    4.2273  -10.2199    4.7660 LP  0  0  0  0  0  0  0  0  0  0  0  0  # atno 4297 bound_to 1298
    3.3885   -9.2125    3.7922 LP  0  0  0  0  0  0  0  0  0  0  0  0  # atno 4298 bound_to 1298
    0.5640   -8.2768    7.1524 LP  0  0  0  0  0  0  0  0  0  0  0  0  # atno 4299 bound_to 2456
    1.0581   -9.2883    8.3354 LP  0  0  0  0  0  0  0  0  0  0  0  0  # atno 4300 bound_to 2456
    2.2226   -7.4142    5.2522 LP  0  0  0  0  0  0  0  0  0  0  0  0  # atno 4301 bound_to 2510
    2.8358   -8.7020    4.4570 LP  0  0  0  0  0  0  0  0  0  0  0  0  # atno 4302 bound_to 2510
   -2.8520  -17.9158   13.1482 LP  0  0  0  0  0  0  0  0  0  0  0  0  # atno 4306 bound_to 3712
   -2.8212  -17.7180   14.7688 LP  0  0  0  0  0  0  0  0  0  0  0  0  # atno 4307 bound_to 3712
    1.4820  -19.8370    8.8228 LP  0  0  0  0  0  0  0  0  0  0  0  0  # atno 4314 bound_to 3832
    2.9595  -20.1893    8.2234 LP  0  0  0  0  0  0  0  0  0  0  0  0  # atno 4315 bound_to 3832
   -5.5105  -22.2156   10.5760 LP  0  0  0  0  0  0  0  0  0  0  0  0  # atno 4318 bound_to 3762
   -4.2769  -22.3272   11.6402 LP  0  0  0  0  0  0  0  0  0  0  0  0  # atno 4319 bound_to 3762
   -4.7485   -5.4620    9.4114 LP  0  0  0  0  0  0  0  0  0  0  0  0  # atno 4320 bound_to 2467
   -5.2818   -4.9910    7.9416 LP  0  0  0  0  0  0  0  0  0  0  0  0  # atno 4321 bound_to 2467

> <Gold.Score>
     Score     S(PLP)   S(hbond)     S(cho)   S(metal)  DE(clash)   DE(tors)     intcor
     44.74     -44.82       0.00       0.00       0.00       0.00       0.33       0.57

> <Gold.PLP.Fitness>
44.7364

> <Gold.PLP.PLP>
-44.8241

> <Gold.PLP.part.hbond>
0.0000

> <Gold.PLP.part.metal>
0.0000

> <Gold.PLP.part.buried>
-6.6733

> <Gold.PLP.part.nonpolar>
-39.7300

> <Gold.PLP.part.repulsive>
0.3311

> <Gold.PLP.ligand.clash>
0.0000

> <Gold.PLP.ligand.torsion>
0.3304

> <Gold.PLP.Chemscore.Hbond>
0.0000

> <Gold.PLP.Chemscore.CHOScore>
0.0000

> <Gold.PLP.Chemscore.Metal>
0.0000

> <Gold.PLP.Chemscore.Internal.Correction>
0.5732

