#       Name:                EN300-29801_i001
#       Creating user name   fsindt
#       Creation time:       Mon Feb 27 19:50:18 2023


#       File generated by GOLD software.
#

@<TRIPOS>MOLECULE
EN300-29801_i001|acide_1|mol2|524|dock12
    34    33     1
SMALL
USER_CHARGES


@<TRIPOS>ATOM
      1 C1          -4.3937 -10.8216  10.2021 C.3            1 <1>                0.0000
      2 S2          -2.6593 -10.5660   9.7359 S.3            1 <1>                0.0000
      3 C3          -1.8160 -11.9699  10.5160 C.3            1 <1>                0.0000
      4 C4          -0.4039 -12.0998   9.9416 C.3            1 <1>                0.0000
      5 C5          -0.0908 -13.5755   9.6864 C.3            1 <1>                0.0000
      6 N6           0.9143 -14.0349  10.6482 N.am           1 <1>                0.0000
      7 C7           0.7149 -15.1751  11.3386 C.2            1 <1>                0.0000
      8 O8          -0.2985 -15.8222  11.1631 O.2            1 <1>                0.0000
      9 O9           1.6386 -15.5973  12.2224 O.3            1 <1>                0.0000
     10 C10          1.1965 -16.5311  13.2425 C.3            1 <1>                0.0000
     11 C11          2.2895 -16.6839  14.3023 C.3            1 <1>                0.0000
     12 C12         -0.0802 -16.0022  13.8993 C.3            1 <1>                0.0000
     13 C13          0.9143 -17.8912  12.6012 C.3            1 <1>                0.0000
     14 C14          0.4411 -13.7415   8.2863 C.2            1 <1>                0.0000
     15 O15          0.5532 -12.7704   7.5576 O.co2          1 <1>                0.0000
     16 O16          0.7594 -14.8469   7.8821 O.co2          1 <1>               -1.0000
     17 H17         -4.7356 -11.7822   9.8170 H              1 <1>                0.0000
     18 H18         -4.4830 -10.8129  11.2884 H              1 <1>                0.0000
     19 H19         -5.0045 -10.0230   9.7809 H              1 <1>                0.0000
     20 H20         -1.7568 -11.8059  11.5919 H              1 <1>                0.0000
     21 H21         -2.3744 -12.8848  10.3180 H              1 <1>                0.0000
     22 H22         -0.3409 -11.5477   9.0039 H              1 <1>                0.0000
     23 H23          0.3161 -11.6931  10.6518 H              1 <1>                0.0000
     24 H24         -1.0003 -14.1652   9.8019 H              1 <1>                0.0000
     25 H25          2.4905 -15.7149  14.7592 H              1 <1>                0.0000
     26 H26          1.9576 -17.3849  15.0680 H              1 <1>                0.0000
     27 H27          3.1990 -17.0607  13.8344 H              1 <1>                0.0000
     28 H28         -0.8588 -15.8934  13.1443 H              1 <1>                0.0000
     29 H29         -0.4121 -16.7033  14.6651 H              1 <1>                0.0000
     30 H30          0.1208 -15.0333  14.3563 H              1 <1>                0.0000
     31 H31          1.8238 -18.2680  12.1332 H              1 <1>                0.0000
     32 H32          0.5824 -18.5922  13.3670 H              1 <1>                0.0000
     33 H33          0.1356 -17.7823  11.8463 H              1 <1>                0.0000
     34 H34          1.7233 -13.5182  10.7883 H              1 <1>                0.0000
@<TRIPOS>BOND
    1    1    2 1     
    2    1   17 1     
    3    1   18 1     
    4    1   19 1     
    5    2    3 1     
    6    3    4 1     
    7    3   20 1     
    8    3   21 1     
    9    4    5 1     
   10    4   22 1     
   11    4   23 1     
   12    5    6 1     
   13    5   14 1     
   14    5   24 1     
   15    6    7 am    
   16    6   34 1     
   17    7    8 2     
   18    7    9 1     
   19    9   10 1     
   20   10   11 1     
   21   10   12 1     
   22   10   13 1     
   23   11   25 1     
   24   11   26 1     
   25   11   27 1     
   26   12   28 1     
   27   12   29 1     
   28   12   30 1     
   29   13   31 1     
   30   13   32 1     
   31   13   33 1     
   32   14   15 ar    
   33   14   16 ar    
@<TRIPOS>SUBSTRUCTURE
      1 ****           1
@<TRIPOS>SET
DONOR_HYDROGENS      STATIC     ATOMS    <user>   **** ""
1 34
ATOM$RED        STATIC     ATOMS    COLORGROUP SYSTEM
1 34
@<TRIPOS>COMMENT
> <Gold.Version>
2022.2.0

> <Gold.Id.Protein>
3pbl|protein|mol2

> <Gold.Protein.RotatedTorsions>
[ 1303 1298 1297 1294 ] final  -52.87 input  179.99 | X-H torsion
[ 2461 2456 2455 2452 ] final  -17.53 input   30.03 | X-H torsion
[ 2515 2510 2509 2506 ] final -179.03 input  -89.99 | X-H torsion
[ 3721 3712 3711 3710 ] final  -46.02 input -179.91 | X-H torsion
[ 3841 3832 3831 3830 ] final   53.01 input -179.91 | X-H torsion
[ 3767 3762 3761 3758 ] final  118.70 input  -89.99 | X-H torsion
[ 2472 2467 2466 2463 ] final -160.58 input  -89.97 | X-H torsion

> <Gold.Protein.ActiveResidues>
 VAL82   VAL86   LEU89   PHE106  VAL107  ASP110  VAL111  MET112  CYS114  THR115 
 CYS181  SER182  ILE183  PHE188  VAL189  ILE190  SER192  SER193  SER196  TRP342 
 PHE345  PHE346  HIS349  VAL350  TYR365  THR369  GLY372  TYR373 

> <Gold.Protein.RotatedAtoms>
    3.4427   -9.0794    3.7789 H   0  0  0  0  0  0  0  0  0  0  0  0  # atno 1303 bound_to 1298
    0.7817   -8.1086    7.0605 H   0  0  0  0  0  0  0  0  0  0  0  0  # atno 2461 bound_to 2456
   -5.1268   -5.4434    9.2420 H   0  0  0  0  0  0  0  0  0  0  0  0  # atno 2472 bound_to 2467
    2.3304   -9.0471    5.8317 H   0  0  0  0  0  0  0  0  0  0  0  0  # atno 2515 bound_to 2510
   -2.7012  -17.5109   14.7048 H   0  0  0  0  0  0  0  0  0  0  0  0  # atno 3721 bound_to 3712
   -3.9613  -23.1987   10.8857 H   0  0  0  0  0  0  0  0  0  0  0  0  # atno 3767 bound_to 3762
    2.3754  -20.9216    9.5524 H   0  0  0  0  0  0  0  0  0  0  0  0  # atno 3841 bound_to 3832
    4.8132   -8.7860    4.6168 LP  0  0  0  0  0  0  0  0  0  0  0  0  # atno 4297 bound_to 1298
    4.1065  -10.2560    4.6961 LP  0  0  0  0  0  0  0  0  0  0  0  0  # atno 4298 bound_to 1298
    0.7947   -9.2618    8.2169 LP  0  0  0  0  0  0  0  0  0  0  0  0  # atno 4299 bound_to 2456
    2.1612   -8.4376    7.8705 LP  0  0  0  0  0  0  0  0  0  0  0  0  # atno 4300 bound_to 2456
    2.1449   -7.4673    5.4634 LP  0  0  0  0  0  0  0  0  0  0  0  0  # atno 4301 bound_to 2510
    2.8214   -8.4845    4.3798 LP  0  0  0  0  0  0  0  0  0  0  0  0  # atno 4302 bound_to 2510
   -3.5666  -16.5793   13.7246 LP  0  0  0  0  0  0  0  0  0  0  0  0  # atno 4306 bound_to 3712
   -2.8425  -17.9303   13.1615 LP  0  0  0  0  0  0  0  0  0  0  0  0  # atno 4307 bound_to 3712
    1.5018  -19.8126    8.7888 LP  0  0  0  0  0  0  0  0  0  0  0  0  # atno 4314 bound_to 3832
    2.9836  -20.2251    8.2405 LP  0  0  0  0  0  0  0  0  0  0  0  0  # atno 4315 bound_to 3832
   -5.3349  -22.7012   10.1561 LP  0  0  0  0  0  0  0  0  0  0  0  0  # atno 4318 bound_to 3762
   -4.8309  -21.9754   11.5293 LP  0  0  0  0  0  0  0  0  0  0  0  0  # atno 4319 bound_to 3762
   -4.9501   -4.8752    7.7214 LP  0  0  0  0  0  0  0  0  0  0  0  0  # atno 4320 bound_to 2467
   -3.6402   -5.0750    8.6758 LP  0  0  0  0  0  0  0  0  0  0  0  0  # atno 4321 bound_to 2467

> <Gold.Score>
     Score     S(PLP)   S(hbond)     S(cho)   S(metal)  DE(clash)   DE(tors)     intcor
     43.26     -45.69       0.00       0.00       0.00       0.00       1.53       0.64

> <Gold.PLP.Fitness>
43.2616

> <Gold.PLP.PLP>
-45.6935

> <Gold.PLP.part.hbond>
0.0000

> <Gold.PLP.part.metal>
0.0000

> <Gold.PLP.part.buried>
-3.4411

> <Gold.PLP.part.nonpolar>
-42.8989

> <Gold.PLP.part.repulsive>
0.3211

> <Gold.PLP.ligand.clash>
0.0000

> <Gold.PLP.ligand.torsion>
1.5340

> <Gold.PLP.Chemscore.Hbond>
0.0000

> <Gold.PLP.Chemscore.CHOScore>
0.0000

> <Gold.PLP.Chemscore.Metal>
0.0000

> <Gold.PLP.Chemscore.Internal.Correction>
0.6361

