#       Name:                EN300-29801_i001
#       Creating user name   fsindt
#       Creation time:       Mon Feb 27 19:50:00 2023


#       File generated by GOLD software.
#

@<TRIPOS>MOLECULE
EN300-29801_i001|acide_1|mol2|524|dock1
    34    33     1
SMALL
USER_CHARGES


@<TRIPOS>ATOM
      1 C1          -0.9111 -18.4258   9.2021 C.3            1 <1>                0.0000
      2 S2          -0.4253 -19.5600  10.5319 S.3            1 <1>                0.0000
      3 C3           0.2245 -18.4423  11.8044 C.3            1 <1>                0.0000
      4 C4          -0.7278 -17.2573  11.9769 C.3            1 <1>                0.0000
      5 C5           0.0837 -15.9741  12.1659 C.3            1 <1>                0.0000
      6 N6           0.8220 -15.6776  10.9357 N.am           1 <1>                0.0000
      7 C7           0.5402 -14.5627  10.2328 C.2            1 <1>                0.0000
      8 O8          -0.3261 -13.8034  10.6195 O.2            1 <1>                0.0000
      9 O9           1.2187 -14.2902   9.1023 O.3            1 <1>                0.0000
     10 C10          0.6373 -13.3075   8.2052 C.3            1 <1>                0.0000
     11 C11          0.6808 -11.9271   8.8637 C.3            1 <1>                0.0000
     12 C12          1.4339 -13.2749   6.8993 C.3            1 <1>                0.0000
     13 C13         -0.8151 -13.6850   7.9074 C.3            1 <1>                0.0000
     14 C14          1.0554 -16.1570  13.3031 C.2            1 <1>                0.0000
     15 O15          0.8562 -15.6023  14.3703 O.co2          1 <1>                0.0000
     16 O16          2.0409 -16.8597  13.1558 O.co2          1 <1>               -1.0000
     17 H17         -1.6644 -17.7314   9.5739 H              1 <1>                0.0000
     18 H18         -0.0381 -17.8679   8.8634 H              1 <1>                0.0000
     19 H19         -1.3226 -18.9970   8.3698 H              1 <1>                0.0000
     20 H20          0.3116 -18.9789  12.7491 H              1 <1>                0.0000
     21 H21          1.2062 -18.0784  11.5015 H              1 <1>                0.0000
     22 H22         -1.3551 -17.1632  11.0905 H              1 <1>                0.0000
     23 H23         -1.3572 -17.4213  12.8517 H              1 <1>                0.0000
     24 H24         -0.5903 -15.1481  12.3932 H              1 <1>                0.0000
     25 H25          1.7156 -11.6582   9.0759 H              1 <1>                0.0000
     26 H26          0.2444 -11.1895   8.1903 H              1 <1>                0.0000
     27 H27          0.1134 -11.9504   9.7941 H              1 <1>                0.0000
     28 H28          1.4029 -14.2583   6.4302 H              1 <1>                0.0000
     29 H29          0.9975 -12.5371   6.2259 H              1 <1>                0.0000
     30 H30          2.4687 -13.0059   7.1115 H              1 <1>                0.0000
     31 H31         -1.3826 -13.7083   8.8377 H              1 <1>                0.0000
     32 H32         -1.2515 -12.9473   7.2340 H              1 <1>                0.0000
     33 H33         -0.8460 -14.6684   7.4382 H              1 <1>                0.0000
     34 H34          1.5134 -16.2838  10.6270 H              1 <1>                0.0000
@<TRIPOS>BOND
    1    1    2 1     
    2    1   17 1     
    3    1   18 1     
    4    1   19 1     
    5    2    3 1     
    6    3    4 1     
    7    3   20 1     
    8    3   21 1     
    9    4    5 1     
   10    4   22 1     
   11    4   23 1     
   12    5    6 1     
   13    5   14 1     
   14    5   24 1     
   15    6    7 am    
   16    6   34 1     
   17    7    8 2     
   18    7    9 1     
   19    9   10 1     
   20   10   11 1     
   21   10   12 1     
   22   10   13 1     
   23   11   25 1     
   24   11   26 1     
   25   11   27 1     
   26   12   28 1     
   27   12   29 1     
   28   12   30 1     
   29   13   31 1     
   30   13   32 1     
   31   13   33 1     
   32   14   15 ar    
   33   14   16 ar    
@<TRIPOS>SUBSTRUCTURE
      1 ****           1
@<TRIPOS>SET
DONOR_HYDROGENS      STATIC     ATOMS    <user>   **** ""
1 34
ATOM$RED        STATIC     ATOMS    COLORGROUP SYSTEM
1 34
@<TRIPOS>COMMENT
> <Gold.Version>
2022.2.0

> <Gold.Id.Protein>
3pbl|protein|mol2

> <Gold.Protein.RotatedTorsions>
[ 1303 1298 1297 1294 ] final -163.98 input  179.99 | X-H torsion
[ 2461 2456 2455 2452 ] final -137.72 input   30.03 | X-H torsion
[ 2515 2510 2509 2506 ] final  100.01 input  -89.99 | X-H torsion
[ 3721 3712 3711 3710 ] final  -45.45 input -179.91 | X-H torsion
[ 3841 3832 3831 3830 ] final   -1.60 input -179.91 | X-H torsion
[ 3767 3762 3761 3758 ] final   35.35 input  -89.99 | X-H torsion
[ 2472 2467 2466 2463 ] final -101.57 input  -89.97 | X-H torsion

> <Gold.Protein.ActiveResidues>
 VAL82   VAL86   LEU89   PHE106  VAL107  ASP110  VAL111  MET112  CYS114  THR115 
 CYS181  SER182  ILE183  PHE188  VAL189  ILE190  SER192  SER193  SER196  TRP342 
 PHE345  PHE346  HIS349  VAL350  TYR365  THR369  GLY372  TYR373 

> <Gold.Protein.RotatedAtoms>
    4.7452   -8.6881    4.5322 H   0  0  0  0  0  0  0  0  0  0  0  0  # atno 1303 bound_to 1298
    0.7973   -9.2626    8.2187 H   0  0  0  0  0  0  0  0  0  0  0  0  # atno 2461 bound_to 2456
   -4.2094   -5.3911    9.3768 H   0  0  0  0  0  0  0  0  0  0  0  0  # atno 2472 bound_to 2467
    2.0307   -7.8653    5.9380 H   0  0  0  0  0  0  0  0  0  0  0  0  # atno 2515 bound_to 2510
   -2.6974  -17.5180   14.7019 H   0  0  0  0  0  0  0  0  0  0  0  0  # atno 3721 bound_to 3712
   -4.9113  -23.1075   10.0725 H   0  0  0  0  0  0  0  0  0  0  0  0  # atno 3767 bound_to 3762
    1.7232  -20.4684    9.5505 H   0  0  0  0  0  0  0  0  0  0  0  0  # atno 3841 bound_to 3832
    4.2288  -10.2193    4.7668 LP  0  0  0  0  0  0  0  0  0  0  0  0  # atno 4297 bound_to 1298
    3.3879   -9.2142    3.7925 LP  0  0  0  0  0  0  0  0  0  0  0  0  # atno 4298 bound_to 1298
    2.1612   -8.4353    7.8683 LP  0  0  0  0  0  0  0  0  0  0  0  0  # atno 4299 bound_to 2456
    0.7792   -8.1104    7.0613 LP  0  0  0  0  0  0  0  0  0  0  0  0  # atno 4300 bound_to 2456
    2.6672   -7.8763    4.4345 LP  0  0  0  0  0  0  0  0  0  0  0  0  # atno 4301 bound_to 2510
    2.5989   -9.2578    5.3024 LP  0  0  0  0  0  0  0  0  0  0  0  0  # atno 4302 bound_to 2510
   -3.5669  -16.5774   13.7338 LP  0  0  0  0  0  0  0  0  0  0  0  0  # atno 4306 bound_to 3712
   -2.8466  -17.9241   13.1557 LP  0  0  0  0  0  0  0  0  0  0  0  0  # atno 4307 bound_to 3712
    2.1687  -19.6589    8.2381 LP  0  0  0  0  0  0  0  0  0  0  0  0  # atno 4314 bound_to 3832
    3.0701  -20.9023    8.7932 LP  0  0  0  0  0  0  0  0  0  0  0  0  # atno 4315 bound_to 3832
   -5.2802  -21.9323   11.1447 LP  0  0  0  0  0  0  0  0  0  0  0  0  # atno 4318 bound_to 3762
   -3.9359  -22.8355   11.3536 LP  0  0  0  0  0  0  0  0  0  0  0  0  # atno 4319 bound_to 3762
   -5.5026   -5.1813    8.4022 LP  0  0  0  0  0  0  0  0  0  0  0  0  # atno 4320 bound_to 2467
   -4.0048   -4.8212    7.8603 LP  0  0  0  0  0  0  0  0  0  0  0  0  # atno 4321 bound_to 2467

> <Gold.Score>
     Score     S(PLP)   S(hbond)     S(cho)   S(metal)  DE(clash)   DE(tors)     intcor
     46.59     -41.83       2.00       0.00       0.00       0.00       0.94       0.64

> <Gold.PLP.Fitness>
46.5863

> <Gold.PLP.PLP>
-41.8325

> <Gold.PLP.part.hbond>
-2.0000

> <Gold.PLP.part.metal>
0.0000

> <Gold.PLP.part.buried>
-5.9255

> <Gold.PLP.part.nonpolar>
-34.5850

> <Gold.PLP.part.repulsive>
0.2378

> <Gold.PLP.ligand.clash>
0.0000

> <Gold.PLP.ligand.torsion>
0.9411

> <Gold.PLP.Chemscore.Hbond>
2.0000

> <Gold.PLP.Chemscore.CHOScore>
0.0000

> <Gold.PLP.Chemscore.Metal>
0.0000

> <Gold.Chemscore.Hbonds>
donor molecule, donor type, donor heavy atom, donor atom, acceptor molecule, acceptor atom, score
      L1  H     6    34       P1  1227  1.00
      P1  H  2305  2313       L1    15  1.00

> <Gold.PLP.Chemscore.Internal.Correction>
0.6361

