#       Name:                EN300-29801_i001
#       Creating user name   fsindt
#       Creation time:       Mon Feb 27 19:50:14 2023


#       File generated by GOLD software.
#

@<TRIPOS>MOLECULE
EN300-29801_i001|acide_1|mol2|524|dock10
    34    33     1
SMALL
USER_CHARGES


@<TRIPOS>ATOM
      1 C1           0.8493 -13.6195   7.9720 C.3            1 <1>                0.0000
      2 S2           0.0354 -13.5120   9.5897 S.3            1 <1>                0.0000
      3 C3           0.7624 -14.8989  10.5053 C.3            1 <1>                0.0000
      4 C4          -0.0600 -15.1636  11.7679 C.3            1 <1>                0.0000
      5 C5           0.4957 -16.3925  12.4904 C.3            1 <1>                0.0000
      6 N6           0.1333 -17.6016  11.7466 N.am           1 <1>                0.0000
      7 C7           0.4706 -18.8147  12.2271 C.2            1 <1>                0.0000
      8 O8           1.0751 -18.9057  13.2773 O.2            1 <1>                0.0000
      9 O9           0.1376 -19.9259  11.5436 O.3            1 <1>                0.0000
     10 C10         -0.1030 -21.1296  12.3192 C.3            1 <1>                0.0000
     11 C11          1.2172 -21.6276  12.9107 C.3            1 <1>                0.0000
     12 C12         -1.0841 -20.8191  13.4515 C.3            1 <1>                0.0000
     13 C13         -0.6957 -22.2104  11.4129 C.3            1 <1>                0.0000
     14 C14         -0.0850 -16.4641  13.8791 C.2            1 <1>                0.0000
     15 O15          0.1883 -15.6045  14.6993 O.co2          1 <1>                0.0000
     16 O16         -0.8282 -17.3819  14.1825 O.co2          1 <1>               -1.0000
     17 H17          1.9269 -13.5180   8.1001 H              1 <1>                0.0000
     18 H18          0.6267 -14.5845   7.5168 H              1 <1>                0.0000
     19 H19          0.4830 -12.8206   7.3273 H              1 <1>                0.0000
     20 H20          0.7606 -15.7897   9.8771 H              1 <1>                0.0000
     21 H21          1.7871 -14.6530  10.7840 H              1 <1>                0.0000
     22 H22         -0.0023 -14.2976  12.4273 H              1 <1>                0.0000
     23 H23         -1.0997 -15.3427  11.4935 H              1 <1>                0.0000
     24 H24          1.5812 -16.3166  12.5539 H              1 <1>                0.0000
     25 H25          1.6395 -20.8575  13.5564 H              1 <1>                0.0000
     26 H26          1.0366 -22.5311  13.4929 H              1 <1>                0.0000
     27 H27          1.9162 -21.8487  12.1040 H              1 <1>                0.0000
     28 H28         -2.0247 -20.4643  13.0301 H              1 <1>                0.0000
     29 H29         -1.2647 -21.7227  14.0338 H              1 <1>                0.0000
     30 H30         -0.6619 -20.0491  14.0972 H              1 <1>                0.0000
     31 H31          0.0032 -22.4315  10.6062 H              1 <1>                0.0000
     32 H32         -0.8763 -23.1139  11.9952 H              1 <1>                0.0000
     33 H33         -1.6363 -21.8556  10.9916 H              1 <1>                0.0000
     34 H34         -0.3493 -17.5289  10.9083 H              1 <1>                0.0000
@<TRIPOS>BOND
    1    1    2 1     
    2    1   17 1     
    3    1   18 1     
    4    1   19 1     
    5    2    3 1     
    6    3    4 1     
    7    3   20 1     
    8    3   21 1     
    9    4    5 1     
   10    4   22 1     
   11    4   23 1     
   12    5    6 1     
   13    5   14 1     
   14    5   24 1     
   15    6    7 am    
   16    6   34 1     
   17    7    8 2     
   18    7    9 1     
   19    9   10 1     
   20   10   11 1     
   21   10   12 1     
   22   10   13 1     
   23   11   25 1     
   24   11   26 1     
   25   11   27 1     
   26   12   28 1     
   27   12   29 1     
   28   12   30 1     
   29   13   31 1     
   30   13   32 1     
   31   13   33 1     
   32   14   15 ar    
   33   14   16 ar    
@<TRIPOS>SUBSTRUCTURE
      1 ****           1
@<TRIPOS>SET
DONOR_HYDROGENS      STATIC     ATOMS    <user>   **** ""
1 34
ATOM$RED        STATIC     ATOMS    COLORGROUP SYSTEM
1 34
@<TRIPOS>COMMENT
> <Gold.Version>
2022.2.0

> <Gold.Id.Protein>
3pbl|protein|mol2

> <Gold.Protein.RotatedTorsions>
[ 1303 1298 1297 1294 ] final -138.39 input  179.99 | X-H torsion
[ 2461 2456 2455 2452 ] final  -67.29 input   30.03 | X-H torsion
[ 2515 2510 2509 2506 ] final -112.98 input  -89.99 | X-H torsion
[ 3721 3712 3711 3710 ] final    3.65 input -179.91 | X-H torsion
[ 3841 3832 3831 3830 ] final  107.93 input -179.91 | X-H torsion
[ 3767 3762 3761 3758 ] final -142.88 input  -89.99 | X-H torsion
[ 2472 2467 2466 2463 ] final  143.46 input  -89.97 | X-H torsion

> <Gold.Protein.ActiveResidues>
 VAL82   VAL86   LEU89   PHE106  VAL107  ASP110  VAL111  MET112  CYS114  THR115 
 CYS181  SER182  ILE183  PHE188  VAL189  ILE190  SER192  SER193  SER196  TRP342 
 PHE345  PHE346  HIS349  VAL350  TYR365  THR369  GLY372  TYR373 

> <Gold.Protein.RotatedAtoms>
    4.4743   -8.5048    4.2728 H   0  0  0  0  0  0  0  0  0  0  0  0  # atno 1303 bound_to 1298
    0.3436   -8.6469    7.4452 H   0  0  0  0  0  0  0  0  0  0  0  0  # atno 2461 bound_to 2456
   -5.5094   -5.2105    8.4791 H   0  0  0  0  0  0  0  0  0  0  0  0  # atno 2472 bound_to 2467
    2.7477   -9.1594    4.8999 H   0  0  0  0  0  0  0  0  0  0  0  0  # atno 2515 bound_to 2510
   -2.4801  -17.9765   14.1914 H   0  0  0  0  0  0  0  0  0  0  0  0  # atno 3721 bound_to 3712
   -4.5305  -22.1260   11.6369 H   0  0  0  0  0  0  0  0  0  0  0  0  # atno 3767 bound_to 3762
    3.0063  -20.8227    9.0732 H   0  0  0  0  0  0  0  0  0  0  0  0  # atno 3841 bound_to 3832
    4.5568  -10.0052    4.9117 LP  0  0  0  0  0  0  0  0  0  0  0  0  # atno 4297 bound_to 1298
    3.3309   -9.6117    3.9071 LP  0  0  0  0  0  0  0  0  0  0  0  0  # atno 4298 bound_to 1298
    1.5623   -9.1734    8.3966 LP  0  0  0  0  0  0  0  0  0  0  0  0  # atno 4299 bound_to 2456
    1.8315   -7.9879    7.3063 LP  0  0  0  0  0  0  0  0  0  0  0  0  # atno 4300 bound_to 2456
    2.0564   -8.2785    6.0880 LP  0  0  0  0  0  0  0  0  0  0  0  0  # atno 4301 bound_to 2510
    2.4925   -7.5608    4.6875 LP  0  0  0  0  0  0  0  0  0  0  0  0  # atno 4302 bound_to 2510
   -3.4205  -16.7132   14.5039 LP  0  0  0  0  0  0  0  0  0  0  0  0  # atno 4306 bound_to 3712
   -3.2438  -17.2589   12.9750 LP  0  0  0  0  0  0  0  0  0  0  0  0  # atno 4307 bound_to 3712
    1.4742  -20.4616    9.3869 LP  0  0  0  0  0  0  0  0  0  0  0  0  # atno 4314 bound_to 3832
    2.2824  -19.6903    8.1958 LP  0  0  0  0  0  0  0  0  0  0  0  0  # atno 4315 bound_to 3832
   -4.1211  -23.3129   10.5926 LP  0  0  0  0  0  0  0  0  0  0  0  0  # atno 4318 bound_to 3762
   -5.4757  -22.4360   10.3418 LP  0  0  0  0  0  0  0  0  0  0  0  0  # atno 4319 bound_to 3762
   -4.0725   -4.8118    7.8136 LP  0  0  0  0  0  0  0  0  0  0  0  0  # atno 4320 bound_to 2467
   -4.1352   -5.3712    9.3465 LP  0  0  0  0  0  0  0  0  0  0  0  0  # atno 4321 bound_to 2467

> <Gold.Score>
     Score     S(PLP)   S(hbond)     S(cho)   S(metal)  DE(clash)   DE(tors)     intcor
     41.78     -37.59       1.62       0.00       0.00       0.00       0.66       0.64

> <Gold.PLP.Fitness>
41.7753

> <Gold.PLP.PLP>
-37.5896

> <Gold.PLP.part.hbond>
-1.8489

> <Gold.PLP.part.metal>
0.0000

> <Gold.PLP.part.buried>
-5.6178

> <Gold.PLP.part.nonpolar>
-30.6960

> <Gold.PLP.part.repulsive>
0.2214

> <Gold.PLP.ligand.clash>
0.0000

> <Gold.PLP.ligand.torsion>
0.6612

> <Gold.PLP.Chemscore.Hbond>
1.6240

> <Gold.PLP.Chemscore.CHOScore>
0.0000

> <Gold.PLP.Chemscore.Metal>
0.0000

> <Gold.Chemscore.Hbonds>
donor molecule, donor type, donor heavy atom, donor atom, acceptor molecule, acceptor atom, score
      P1  H  2305  2313       L1    15  1.00
      P1  H  3712  3721       L1    16  0.62

> <Gold.PLP.Chemscore.Internal.Correction>
0.6361

