#       Name:                EN300-29801_i001
#       Creating user name   fsindt
#       Creation time:       Mon Feb 27 19:50:11 2023


#       File generated by GOLD software.
#

@<TRIPOS>MOLECULE
EN300-29801_i001|acide_1|mol2|524|dock8
    34    33     1
SMALL
USER_CHARGES


@<TRIPOS>ATOM
      1 C1          -0.3631 -20.9804  11.4464 C.3            1 <1>                0.0000
      2 S2           0.0269 -20.4234  13.1282 S.3            1 <1>                0.0000
      3 C3          -0.3997 -18.6609  13.0836 C.3            1 <1>                0.0000
      4 C4           0.1858 -18.0262  11.8206 C.3            1 <1>                0.0000
      5 C5           0.1989 -16.5039  11.9738 C.3            1 <1>                0.0000
      6 N6           0.9536 -15.9084  10.8683 N.am           1 <1>                0.0000
      7 C7           0.5741 -14.7211  10.3558 C.2            1 <1>                0.0000
      8 O8          -0.3939 -14.1444  10.8107 O.2            1 <1>                0.0000
      9 O9           1.2677 -14.1737   9.3399 O.3            1 <1>                0.0000
     10 C10          0.5288 -13.3338   8.4143 C.3            1 <1>                0.0000
     11 C11         -0.7234 -14.0749   7.9413 C.3            1 <1>                0.0000
     12 C12          0.1193 -12.0378   9.1172 C.3            1 <1>                0.0000
     13 C13          1.4116 -13.0034   7.2092 C.3            1 <1>                0.0000
     14 C14          0.8500 -16.1361  13.2821 C.2            1 <1>                0.0000
     15 O15          0.1997 -15.5829  14.1524 O.co2          1 <1>                0.0000
     16 O16          2.0273 -16.3917  13.4702 O.co2          1 <1>               -1.0000
     17 H17         -1.4204 -20.8103  11.2434 H              1 <1>                0.0000
     18 H18          0.2390 -20.4218  10.7299 H              1 <1>                0.0000
     19 H19         -0.1421 -22.0439  11.3555 H              1 <1>                0.0000
     20 H20         -1.4840 -18.5496  13.0769 H              1 <1>                0.0000
     21 H21          0.0109 -18.1653  13.9632 H              1 <1>                0.0000
     22 H22          1.2043 -18.3851  11.6724 H              1 <1>                0.0000
     23 H23         -0.4247 -18.2996  10.9600 H              1 <1>                0.0000
     24 H24         -0.8244 -16.1285  11.9589 H              1 <1>                0.0000
     25 H25         -1.3524 -14.3103   8.8000 H              1 <1>                0.0000
     26 H26         -1.2781 -13.4444   7.2466 H              1 <1>                0.0000
     27 H27         -0.4317 -14.9982   7.4407 H              1 <1>                0.0000
     28 H28          1.0114 -11.5099   9.4541 H              1 <1>                0.0000
     29 H29         -0.4354 -11.4073   8.4223 H              1 <1>                0.0000
     30 H30         -0.5096 -12.2732   9.9757 H              1 <1>                0.0000
     31 H31          1.7033 -13.9266   6.7085 H              1 <1>                0.0000
     32 H32          0.8568 -12.3729   6.5144 H              1 <1>                0.0000
     33 H33          2.3036 -12.4753   7.5462 H              1 <1>                0.0000
     34 H34          1.7263 -16.3687  10.5051 H              1 <1>                0.0000
@<TRIPOS>BOND
    1    1    2 1     
    2    1   17 1     
    3    1   18 1     
    4    1   19 1     
    5    2    3 1     
    6    3    4 1     
    7    3   20 1     
    8    3   21 1     
    9    4    5 1     
   10    4   22 1     
   11    4   23 1     
   12    5    6 1     
   13    5   14 1     
   14    5   24 1     
   15    6    7 am    
   16    6   34 1     
   17    7    8 2     
   18    7    9 1     
   19    9   10 1     
   20   10   11 1     
   21   10   12 1     
   22   10   13 1     
   23   11   25 1     
   24   11   26 1     
   25   11   27 1     
   26   12   28 1     
   27   12   29 1     
   28   12   30 1     
   29   13   31 1     
   30   13   32 1     
   31   13   33 1     
   32   14   15 ar    
   33   14   16 ar    
@<TRIPOS>SUBSTRUCTURE
      1 ****           1
@<TRIPOS>SET
DONOR_HYDROGENS      STATIC     ATOMS    <user>   **** ""
1 34
ATOM$RED        STATIC     ATOMS    COLORGROUP SYSTEM
1 34
@<TRIPOS>COMMENT
> <Gold.Version>
2022.2.0

> <Gold.Id.Protein>
3pbl|protein|mol2

> <Gold.Protein.RotatedTorsions>
[ 1303 1298 1297 1294 ] final -122.30 input  179.99 | X-H torsion
[ 2461 2456 2455 2452 ] final -142.16 input   30.03 | X-H torsion
[ 2515 2510 2509 2506 ] final -176.45 input  -89.99 | X-H torsion
[ 3721 3712 3711 3710 ] final  -94.88 input -179.91 | X-H torsion
[ 3841 3832 3831 3830 ] final  -39.07 input -179.91 | X-H torsion
[ 3767 3762 3761 3758 ] final   -4.51 input  -89.99 | X-H torsion
[ 2472 2467 2466 2463 ] final  100.79 input  -89.97 | X-H torsion

> <Gold.Protein.ActiveResidues>
 VAL82   VAL86   LEU89   PHE106  VAL107  ASP110  VAL111  MET112  CYS114  THR115 
 CYS181  SER182  ILE183  PHE188  VAL189  ILE190  SER192  SER193  SER196  TRP342 
 PHE345  PHE346  HIS349  VAL350  TYR365  THR369  GLY372  TYR373 

> <Gold.Protein.RotatedAtoms>
    4.2643   -8.4758    4.1156 H   0  0  0  0  0  0  0  0  0  0  0  0  # atno 1303 bound_to 1298
    0.8604   -9.2752    8.2533 H   0  0  0  0  0  0  0  0  0  0  0  0  # atno 2461 bound_to 2456
   -5.2368   -4.9708    7.8971 H   0  0  0  0  0  0  0  0  0  0  0  0  # atno 2472 bound_to 2467
    2.3480   -9.0727    5.8031 H   0  0  0  0  0  0  0  0  0  0  0  0  # atno 2515 bound_to 2510
   -3.0600  -16.8929   14.6525 H   0  0  0  0  0  0  0  0  0  0  0  0  # atno 3721 bound_to 3712
   -5.3618  -22.6610   10.1774 H   0  0  0  0  0  0  0  0  0  0  0  0  # atno 3767 bound_to 3762
    1.5612  -20.0262    9.2549 H   0  0  0  0  0  0  0  0  0  0  0  0  # atno 3841 bound_to 3832
    4.7228   -9.8033    4.9487 LP  0  0  0  0  0  0  0  0  0  0  0  0  # atno 4297 bound_to 1298
    3.3751   -9.8425    4.0274 LP  0  0  0  0  0  0  0  0  0  0  0  0  # atno 4298 bound_to 1298
    2.1576   -8.3844    7.8161 LP  0  0  0  0  0  0  0  0  0  0  0  0  # atno 4299 bound_to 2456
    0.7197   -8.1489    7.0789 LP  0  0  0  0  0  0  0  0  0  0  0  0  # atno 4300 bound_to 2456
    2.1325   -7.4827    5.5008 LP  0  0  0  0  0  0  0  0  0  0  0  0  # atno 4301 bound_to 2510
    2.8162   -8.4434    4.3711 LP  0  0  0  0  0  0  0  0  0  0  0  0  # atno 4302 bound_to 2510
   -3.3799  -17.0047   13.0831 LP  0  0  0  0  0  0  0  0  0  0  0  0  # atno 4306 bound_to 3712
   -2.6150  -18.2184   13.8633 LP  0  0  0  0  0  0  0  0  0  0  0  0  # atno 4307 bound_to 3712
    2.7133  -19.9278    8.1417 LP  0  0  0  0  0  0  0  0  0  0  0  0  # atno 4314 bound_to 3832
    2.7126  -21.1442    9.2312 LP  0  0  0  0  0  0  0  0  0  0  0  0  # atno 4315 bound_to 3832
   -4.7865  -21.9925   11.5518 LP  0  0  0  0  0  0  0  0  0  0  0  0  # atno 4318 bound_to 3762
   -3.9793  -23.2216   10.8416 LP  0  0  0  0  0  0  0  0  0  0  0  0  # atno 4319 bound_to 3762
   -3.6671   -4.9594    8.3467 LP  0  0  0  0  0  0  0  0  0  0  0  0  # atno 4320 bound_to 2467
   -4.8131   -5.4633    9.3952 LP  0  0  0  0  0  0  0  0  0  0  0  0  # atno 4321 bound_to 2467

> <Gold.Score>
     Score     S(PLP)   S(hbond)     S(cho)   S(metal)  DE(clash)   DE(tors)     intcor
     40.56     -35.93       1.99       0.00       0.00       0.00       0.99       0.64

> <Gold.PLP.Fitness>
40.5607

> <Gold.PLP.PLP>
-35.9261

> <Gold.PLP.part.hbond>
-2.0000

> <Gold.PLP.part.metal>
0.0000

> <Gold.PLP.part.buried>
-4.9049

> <Gold.PLP.part.nonpolar>
-28.9060

> <Gold.PLP.part.repulsive>
0.2547

> <Gold.PLP.ligand.clash>
0.0000

> <Gold.PLP.ligand.torsion>
0.9876

> <Gold.PLP.Chemscore.Hbond>
1.9913

> <Gold.PLP.Chemscore.CHOScore>
0.0000

> <Gold.PLP.Chemscore.Metal>
0.0000

> <Gold.Chemscore.Hbonds>
donor molecule, donor type, donor heavy atom, donor atom, acceptor molecule, acceptor atom, score
      L1  H     6    34       P1  1227  1.00
      P1  H  2305  2313       L1    15  0.99

> <Gold.PLP.Chemscore.Internal.Correction>
0.6361

