#       Name:                EN300-29801_i001
#       Creating user name   fsindt
#       Creation time:       Mon Feb 27 19:50:16 2023


#       File generated by GOLD software.
#

@<TRIPOS>MOLECULE
EN300-29801_i001|acide_1|mol2|524|dock11
    34    33     1
SMALL
USER_CHARGES


@<TRIPOS>ATOM
      1 C1          -1.0966 -11.8400  10.6717 C.3            1 <1>                0.0000
      2 S2          -0.3989 -13.5133  10.6081 S.3            1 <1>                0.0000
      3 C3          -0.6348 -14.1184  12.3018 C.3            1 <1>                0.0000
      4 C4          -0.6989 -15.6469  12.2931 C.3            1 <1>                0.0000
      5 C5           0.7154 -16.2161  12.1644 C.3            1 <1>                0.0000
      6 N6           0.6492 -17.5649  11.5965 N.am           1 <1>                0.0000
      7 C7          -0.0331 -18.5337  12.2386 C.2            1 <1>                0.0000
      8 O8          -0.5935 -18.2883  13.2885 O.2            1 <1>                0.0000
      9 O9          -0.0940 -19.7733  11.7167 O.3            1 <1>                0.0000
     10 C10         -0.2140 -20.8772  12.6522 C.3            1 <1>                0.0000
     11 C11         -1.5994 -20.8476  13.3010 C.3            1 <1>                0.0000
     12 C12         -0.0284 -22.2002  11.9064 C.3            1 <1>                0.0000
     13 C13          0.8591 -20.7472  13.7350 C.3            1 <1>                0.0000
     14 C14          1.3590 -16.2753  13.5258 C.2            1 <1>                0.0000
     15 O15          2.4729 -16.7543  13.6532 O.co2          1 <1>                0.0000
     16 O16          0.7655 -15.8443  14.4998 O.co2          1 <1>               -1.0000
     17 H17         -2.1479 -11.8952  10.9542 H              1 <1>                0.0000
     18 H18         -0.5532 -11.2474  11.4076 H              1 <1>                0.0000
     19 H19         -1.0078 -11.3719   9.6912 H              1 <1>                0.0000
     20 H20          0.1996 -13.7932  12.9233 H              1 <1>                0.0000
     21 H21         -1.5652 -13.7180  12.7044 H              1 <1>                0.0000
     22 H22         -1.1482 -15.9970  13.2224 H              1 <1>                0.0000
     23 H23         -1.3030 -15.9805  11.4492 H              1 <1>                0.0000
     24 H24          1.3069 -15.5751  11.5105 H              1 <1>                0.0000
     25 H25         -2.3639 -20.9403  12.5296 H              1 <1>                0.0000
     26 H26         -1.6895 -21.6763  14.0032 H              1 <1>                0.0000
     27 H27         -1.7317 -19.9051  13.8323 H              1 <1>                0.0000
     28 H28          0.9585 -22.2213  11.4442 H              1 <1>                0.0000
     29 H29         -0.1185 -23.0290  12.6087 H              1 <1>                0.0000
     30 H30         -0.7930 -22.2928  11.1350 H              1 <1>                0.0000
     31 H31          0.7269 -19.8047  14.2663 H              1 <1>                0.0000
     32 H32          0.7689 -21.5760  14.4372 H              1 <1>                0.0000
     33 H33          1.8460 -20.7684  13.2727 H              1 <1>                0.0000
     34 H34          1.0966 -17.7608  10.7584 H              1 <1>                0.0000
@<TRIPOS>BOND
    1    1    2 1     
    2    1   17 1     
    3    1   18 1     
    4    1   19 1     
    5    2    3 1     
    6    3    4 1     
    7    3   20 1     
    8    3   21 1     
    9    4    5 1     
   10    4   22 1     
   11    4   23 1     
   12    5    6 1     
   13    5   14 1     
   14    5   24 1     
   15    6    7 am    
   16    6   34 1     
   17    7    8 2     
   18    7    9 1     
   19    9   10 1     
   20   10   11 1     
   21   10   12 1     
   22   10   13 1     
   23   11   25 1     
   24   11   26 1     
   25   11   27 1     
   26   12   28 1     
   27   12   29 1     
   28   12   30 1     
   29   13   31 1     
   30   13   32 1     
   31   13   33 1     
   32   14   15 ar    
   33   14   16 ar    
@<TRIPOS>SUBSTRUCTURE
      1 ****           1
@<TRIPOS>SET
DONOR_HYDROGENS      STATIC     ATOMS    <user>   **** ""
1 34
ATOM$RED        STATIC     ATOMS    COLORGROUP SYSTEM
1 34
@<TRIPOS>COMMENT
> <Gold.Version>
2022.2.0

> <Gold.Id.Protein>
3pbl|protein|mol2

> <Gold.Protein.RotatedTorsions>
[ 1303 1298 1297 1294 ] final  -19.66 input  179.99 | X-H torsion
[ 2461 2456 2455 2452 ] final   65.80 input   30.03 | X-H torsion
[ 2515 2510 2509 2506 ] final   -7.43 input  -89.99 | X-H torsion
[ 3721 3712 3711 3710 ] final   43.75 input -179.91 | X-H torsion
[ 3841 3832 3831 3830 ] final -160.43 input -179.91 | X-H torsion
[ 3767 3762 3761 3758 ] final  -94.82 input  -89.99 | X-H torsion
[ 2472 2467 2466 2463 ] final  140.39 input  -89.97 | X-H torsion

> <Gold.Protein.ActiveResidues>
 VAL82   VAL86   LEU89   PHE106  VAL107  ASP110  VAL111  MET112  CYS114  THR115 
 CYS181  SER182  ILE183  PHE188  VAL189  ILE190  SER192  SER193  SER196  TRP342 
 PHE345  PHE346  HIS349  VAL350  TYR365  THR369  GLY372  TYR373 

> <Gold.Protein.RotatedAtoms>
    3.3300   -9.5922    3.8996 H   0  0  0  0  0  0  0  0  0  0  0  0  # atno 1303 bound_to 1298
    1.9758   -8.0725    7.4412 H   0  0  0  0  0  0  0  0  0  0  0  0  # atno 2461 bound_to 2456
   -5.5061   -5.1932    8.4319 H   0  0  0  0  0  0  0  0  0  0  0  0  # atno 2472 bound_to 2467
    2.5903   -7.7125    4.5336 H   0  0  0  0  0  0  0  0  0  0  0  0  # atno 2515 bound_to 2510
   -2.5195  -17.9997   13.5992 H   0  0  0  0  0  0  0  0  0  0  0  0  # atno 3721 bound_to 3712
   -5.1714  -21.9147   11.2705 H   0  0  0  0  0  0  0  0  0  0  0  0  # atno 3767 bound_to 3762
    2.7566  -19.8438    8.3513 H   0  0  0  0  0  0  0  0  0  0  0  0  # atno 3841 bound_to 3832
    4.4903   -8.5099    4.2853 LP  0  0  0  0  0  0  0  0  0  0  0  0  # atno 4297 bound_to 1298
    4.5422  -10.0191    4.9069 LP  0  0  0  0  0  0  0  0  0  0  0  0  # atno 4298 bound_to 1298
    0.4025   -8.4908    7.3098 LP  0  0  0  0  0  0  0  0  0  0  0  0  # atno 4299 bound_to 2456
    1.3597   -9.2447    8.3971 LP  0  0  0  0  0  0  0  0  0  0  0  0  # atno 4300 bound_to 2456
    2.6749   -9.2370    5.1118 LP  0  0  0  0  0  0  0  0  0  0  0  0  # atno 4301 bound_to 2510
    2.0315   -8.0499    6.0302 LP  0  0  0  0  0  0  0  0  0  0  0  0  # atno 4302 bound_to 2510
   -3.1194  -17.1856   14.8463 LP  0  0  0  0  0  0  0  0  0  0  0  0  # atno 4306 bound_to 3712
   -3.4995  -16.7598   13.3163 LP  0  0  0  0  0  0  0  0  0  0  0  0  # atno 4307 bound_to 3712
    2.6554  -21.1529    9.2744 LP  0  0  0  0  0  0  0  0  0  0  0  0  # atno 4314 bound_to 3832
    1.3896  -20.1298    9.1422 LP  0  0  0  0  0  0  0  0  0  0  0  0  # atno 4315 bound_to 3832
   -3.9105  -22.9519   11.2367 LP  0  0  0  0  0  0  0  0  0  0  0  0  # atno 4318 bound_to 3762
   -5.0456  -23.0081   10.0641 LP  0  0  0  0  0  0  0  0  0  0  0  0  # atno 4319 bound_to 3762
   -4.0308   -4.8173    7.8414 LP  0  0  0  0  0  0  0  0  0  0  0  0  # atno 4320 bound_to 2467
   -4.1802   -5.3831    9.3659 LP  0  0  0  0  0  0  0  0  0  0  0  0  # atno 4321 bound_to 2467

> <Gold.Score>
     Score     S(PLP)   S(hbond)     S(cho)   S(metal)  DE(clash)   DE(tors)     intcor
     45.16     -37.43       2.99       0.00       0.00       0.00       0.94       0.64

> <Gold.PLP.Fitness>
45.1606

> <Gold.PLP.PLP>
-37.4336

> <Gold.PLP.part.hbond>
-3.0000

> <Gold.PLP.part.metal>
0.0000

> <Gold.PLP.part.buried>
-6.4432

> <Gold.PLP.part.nonpolar>
-28.5507

> <Gold.PLP.part.repulsive>
0.1273

> <Gold.PLP.ligand.clash>
0.0033

> <Gold.PLP.ligand.torsion>
0.9409

> <Gold.PLP.Chemscore.Hbond>
2.9920

> <Gold.PLP.Chemscore.CHOScore>
0.0000

> <Gold.PLP.Chemscore.Metal>
0.0000

> <Gold.Chemscore.Hbonds>
donor molecule, donor type, donor heavy atom, donor atom, acceptor molecule, acceptor atom, score
      L1  H     6    34       P1  1227  0.99
      P1  H  2305  2313       L1    16  1.00
      P1  H  3712  3721       L1     8  1.00

> <Gold.PLP.Chemscore.Internal.Correction>
0.6361

