#       Name:                EN300-29801_i001
#       Creating user name   fsindt
#       Creation time:       Mon Feb 27 19:50:29 2023


#       File generated by GOLD software.
#

@<TRIPOS>MOLECULE
EN300-29801_i001|acide_1|mol2|524|dock18
    34    33     1
SMALL
USER_CHARGES


@<TRIPOS>ATOM
      1 C1           0.1976 -14.9382   9.1690 C.3            1 <1>                0.0000
      2 S2           1.1085 -14.6969  10.7191 S.3            1 <1>                0.0000
      3 C3          -0.2151 -14.5073  11.9449 C.3            1 <1>                0.0000
      4 C4          -0.9418 -15.8420  12.1215 C.3            1 <1>                0.0000
      5 C5           0.0839 -16.9568  12.3360 C.3            1 <1>                0.0000
      6 N6          -0.5929 -18.1513  12.8474 N.am           1 <1>                0.0000
      7 C7           0.0716 -19.3213  12.9244 C.2            1 <1>                0.0000
      8 O8           1.2321 -19.3854  12.5698 O.2            1 <1>                0.0000
      9 O9          -0.5503 -20.4190  13.3943 O.3            1 <1>                0.0000
     10 C10         -0.0101 -21.7055  12.9927 C.3            1 <1>                0.0000
     11 C11          1.3296 -21.9376  13.6943 C.3            1 <1>                0.0000
     12 C12         -0.9893 -22.8143  13.3836 C.3            1 <1>                0.0000
     13 C13          0.1986 -21.7204  11.4771 C.3            1 <1>                0.0000
     14 C14          1.1198 -16.5016  13.3313 C.2            1 <1>                0.0000
     15 O15          2.3019 -16.5226  13.0336 O.co2          1 <1>                0.0000
     16 O16          0.7758 -16.1124  14.4344 O.co2          1 <1>               -1.0000
     17 H17         -0.4286 -15.8266   9.2501 H              1 <1>                0.0000
     18 H18         -0.4296 -14.0678   8.9768 H              1 <1>                0.0000
     19 H19          0.9040 -15.0652   8.3485 H              1 <1>                0.0000
     20 H20          0.2140 -14.1983  12.8981 H              1 <1>                0.0000
     21 H21         -0.9218 -13.7513  11.6026 H              1 <1>                0.0000
     22 H22         -1.6021 -15.7844  12.9869 H              1 <1>                0.0000
     23 H23         -1.5301 -16.0563  11.2292 H              1 <1>                0.0000
     24 H24          0.5689 -17.1916  11.3884 H              1 <1>                0.0000
     25 H25          1.1809 -21.9270  14.7741 H              1 <1>                0.0000
     26 H26          1.7351 -22.9033  13.3928 H              1 <1>                0.0000
     27 H27          2.0272 -21.1476  13.4158 H              1 <1>                0.0000
     28 H28         -1.9437 -22.6490  12.8838 H              1 <1>                0.0000
     29 H29         -0.5837 -23.7801  13.0821 H              1 <1>                0.0000
     30 H30         -1.1379 -22.8037  14.4634 H              1 <1>                0.0000
     31 H31          0.8961 -20.9305  11.1986 H              1 <1>                0.0000
     32 H32          0.6041 -22.6862  11.1756 H              1 <1>                0.0000
     33 H33         -0.7559 -21.5552  10.9773 H              1 <1>                0.0000
     34 H34         -1.5193 -18.1001  13.1304 H              1 <1>                0.0000
@<TRIPOS>BOND
    1    1    2 1     
    2    1   17 1     
    3    1   18 1     
    4    1   19 1     
    5    2    3 1     
    6    3    4 1     
    7    3   20 1     
    8    3   21 1     
    9    4    5 1     
   10    4   22 1     
   11    4   23 1     
   12    5    6 1     
   13    5   14 1     
   14    5   24 1     
   15    6    7 am    
   16    6   34 1     
   17    7    8 2     
   18    7    9 1     
   19    9   10 1     
   20   10   11 1     
   21   10   12 1     
   22   10   13 1     
   23   11   25 1     
   24   11   26 1     
   25   11   27 1     
   26   12   28 1     
   27   12   29 1     
   28   12   30 1     
   29   13   31 1     
   30   13   32 1     
   31   13   33 1     
   32   14   15 ar    
   33   14   16 ar    
@<TRIPOS>SUBSTRUCTURE
      1 ****           1
@<TRIPOS>SET
DONOR_HYDROGENS      STATIC     ATOMS    <user>   **** ""
1 34
ATOM$RED        STATIC     ATOMS    COLORGROUP SYSTEM
1 34
@<TRIPOS>COMMENT
> <Gold.Version>
2022.2.0

> <Gold.Id.Protein>
3pbl|protein|mol2

> <Gold.Protein.RotatedTorsions>
[ 1303 1298 1297 1294 ] final    5.08 input  179.99 | X-H torsion
[ 2461 2456 2455 2452 ] final   27.51 input   30.03 | X-H torsion
[ 2515 2510 2509 2506 ] final    5.81 input  -89.99 | X-H torsion
[ 3721 3712 3711 3710 ] final -121.19 input -179.91 | X-H torsion
[ 3841 3832 3831 3830 ] final  -74.81 input -179.91 | X-H torsion
[ 3767 3762 3761 3758 ] final  -53.77 input  -89.99 | X-H torsion
[ 2472 2467 2466 2463 ] final -100.37 input  -89.97 | X-H torsion

> <Gold.Protein.ActiveResidues>
 VAL82   VAL86   LEU89   PHE106  VAL107  ASP110  VAL111  MET112  CYS114  THR115 
 CYS181  SER182  ILE183  PHE188  VAL189  ILE190  SER192  SER193  SER196  TRP342 
 PHE345  PHE346  HIS349  VAL350  TYR365  THR369  GLY372  TYR373 

> <Gold.Protein.RotatedAtoms>
    3.4151   -9.9366    4.0923 H   0  0  0  0  0  0  0  0  0  0  0  0  # atno 1303 bound_to 1298
    1.4763   -7.9168    7.1113 H   0  0  0  0  0  0  0  0  0  0  0  0  # atno 2461 bound_to 2456
   -4.1914   -5.3867    9.3701 H   0  0  0  0  0  0  0  0  0  0  0  0  # atno 2472 bound_to 2467
    2.5010   -7.5721    4.6734 H   0  0  0  0  0  0  0  0  0  0  0  0  # atno 2515 bound_to 2510
   -3.2236  -16.6479   14.3907 H   0  0  0  0  0  0  0  0  0  0  0  0  # atno 3721 bound_to 3712
   -5.4882  -22.1106   10.7241 H   0  0  0  0  0  0  0  0  0  0  0  0  # atno 3767 bound_to 3762
    1.7095  -19.6952    8.8667 H   0  0  0  0  0  0  0  0  0  0  0  0  # atno 3841 bound_to 3832
    4.1636   -8.4861    4.0490 LP  0  0  0  0  0  0  0  0  0  0  0  0  # atno 4297 bound_to 1298
    4.7838   -9.6984    4.9504 LP  0  0  0  0  0  0  0  0  0  0  0  0  # atno 4298 bound_to 1298
    0.3636   -8.9341    7.7391 LP  0  0  0  0  0  0  0  0  0  0  0  0  # atno 4299 bound_to 2456
    1.8979   -8.9571    8.2976 LP  0  0  0  0  0  0  0  0  0  0  0  0  # atno 4300 bound_to 2456
    2.7423   -9.1684    4.9169 LP  0  0  0  0  0  0  0  0  0  0  0  0  # atno 4301 bound_to 2510
    2.0533   -8.2590    6.0852 LP  0  0  0  0  0  0  0  0  0  0  0  0  # atno 4302 bound_to 2510
   -3.1808  -17.3716   12.9581 LP  0  0  0  0  0  0  0  0  0  0  0  0  # atno 4306 bound_to 3712
   -2.6252  -18.1344   14.2907 LP  0  0  0  0  0  0  0  0  0  0  0  0  # atno 4307 bound_to 3712
    3.0607  -20.3670    8.3198 LP  0  0  0  0  0  0  0  0  0  0  0  0  # atno 4314 bound_to 3832
    2.1940  -21.0874    9.5015 LP  0  0  0  0  0  0  0  0  0  0  0  0  # atno 4315 bound_to 3832
   -4.1548  -22.4572   11.6009 LP  0  0  0  0  0  0  0  0  0  0  0  0  # atno 4318 bound_to 3762
   -4.4847  -23.3070   10.2460 LP  0  0  0  0  0  0  0  0  0  0  0  0  # atno 4319 bound_to 3762
   -5.5049   -5.1881    8.4204 LP  0  0  0  0  0  0  0  0  0  0  0  0  # atno 4320 bound_to 2467
   -4.0205   -4.8188    7.8487 LP  0  0  0  0  0  0  0  0  0  0  0  0  # atno 4321 bound_to 2467

> <Gold.Score>
     Score     S(PLP)   S(hbond)     S(cho)   S(metal)  DE(clash)   DE(tors)     intcor
     39.27     -34.11       2.00       0.00       0.00       0.00       0.71       0.57

> <Gold.PLP.Fitness>
39.2748

> <Gold.PLP.PLP>
-34.1127

> <Gold.PLP.part.hbond>
-2.0000

> <Gold.PLP.part.metal>
0.0000

> <Gold.PLP.part.buried>
-6.0333

> <Gold.PLP.part.nonpolar>
-26.9176

> <Gold.PLP.part.repulsive>
0.1596

> <Gold.PLP.ligand.clash>
0.0000

> <Gold.PLP.ligand.torsion>
0.7056

> <Gold.PLP.Chemscore.Hbond>
2.0000

> <Gold.PLP.Chemscore.CHOScore>
0.0000

> <Gold.PLP.Chemscore.Metal>
0.0000

> <Gold.Chemscore.Hbonds>
donor molecule, donor type, donor heavy atom, donor atom, acceptor molecule, acceptor atom, score
      L1  H     6    34       P1  3712  1.00
      P1  H  2305  2313       L1    16  1.00

> <Gold.PLP.Chemscore.Internal.Correction>
0.5732

