#       Name:                EN300-29801_i001
#       Creating user name   fsindt
#       Creation time:       Mon Feb 27 19:50:23 2023


#       File generated by GOLD software.
#

@<TRIPOS>MOLECULE
EN300-29801_i001|acide_1|mol2|524|dock15
    34    33     1
SMALL
USER_CHARGES


@<TRIPOS>ATOM
      1 C1           1.3435 -20.8572  13.3765 C.3            1 <1>                0.0000
      2 S2           1.5859 -19.3567  12.3863 S.3            1 <1>                0.0000
      3 C3           2.0945 -18.1300  13.6220 C.3            1 <1>                0.0000
      4 C4           2.3909 -16.7993  12.9277 C.3            1 <1>                0.0000
      5 C5           1.1570 -16.3465  12.1447 C.3            1 <1>                0.0000
      6 N6           1.4653 -15.1119  11.4186 N.am           1 <1>                0.0000
      7 C7           0.8245 -14.8295  10.2671 C.2            1 <1>                0.0000
      8 O8          -0.0091 -15.5987   9.8312 O.2            1 <1>                0.0000
      9 O9           1.1078 -13.6949   9.5998 O.3            1 <1>                0.0000
     10 C10          0.6774 -13.6196   8.2152 C.3            1 <1>                0.0000
     11 C11         -0.8508 -13.5724   8.1579 C.3            1 <1>                0.0000
     12 C12          1.2512 -12.3560   7.5708 C.3            1 <1>                0.0000
     13 C13          1.1784 -14.8509   7.4576 C.3            1 <1>                0.0000
     14 C14          0.0193 -16.0961  13.1007 C.2            1 <1>                0.0000
     15 O15          0.1892 -15.3879  14.0785 O.co2          1 <1>                0.0000
     16 O16         -1.0712 -16.6019  12.8963 O.co2          1 <1>               -1.0000
     17 H17          2.2788 -21.1222  13.8695 H              1 <1>                0.0000
     18 H18          0.5751 -20.6763  14.1280 H              1 <1>                0.0000
     19 H19          1.0309 -21.6747  12.7267 H              1 <1>                0.0000
     20 H20          1.2927 -17.9908  14.3471 H              1 <1>                0.0000
     21 H21          2.9907 -18.4802  14.1341 H              1 <1>                0.0000
     22 H22          2.6426 -16.0474  13.6757 H              1 <1>                0.0000
     23 H23          3.2296 -16.9256  12.2430 H              1 <1>                0.0000
     24 H24          0.8714 -17.1234  11.4355 H              1 <1>                0.0000
     25 H25         -1.2077 -12.6951   8.6976 H              1 <1>                0.0000
     26 H26         -1.1738 -13.5158   7.1185 H              1 <1>                0.0000
     27 H27         -1.2595 -14.4726   8.6169 H              1 <1>                0.0000
     28 H28          2.3399 -12.3896   7.6117 H              1 <1>                0.0000
     29 H29          0.9281 -12.2994   6.5313 H              1 <1>                0.0000
     30 H30          0.8942 -11.4788   8.1105 H              1 <1>                0.0000
     31 H31          0.7697 -15.7510   7.9167 H              1 <1>                0.0000
     32 H32          0.8553 -14.7942   6.4181 H              1 <1>                0.0000
     33 H33          2.2672 -14.8844   7.4984 H              1 <1>                0.0000
     34 H34          2.1307 -14.4979  11.7666 H              1 <1>                0.0000
@<TRIPOS>BOND
    1    1    2 1     
    2    1   17 1     
    3    1   18 1     
    4    1   19 1     
    5    2    3 1     
    6    3    4 1     
    7    3   20 1     
    8    3   21 1     
    9    4    5 1     
   10    4   22 1     
   11    4   23 1     
   12    5    6 1     
   13    5   14 1     
   14    5   24 1     
   15    6    7 am    
   16    6   34 1     
   17    7    8 2     
   18    7    9 1     
   19    9   10 1     
   20   10   11 1     
   21   10   12 1     
   22   10   13 1     
   23   11   25 1     
   24   11   26 1     
   25   11   27 1     
   26   12   28 1     
   27   12   29 1     
   28   12   30 1     
   29   13   31 1     
   30   13   32 1     
   31   13   33 1     
   32   14   15 ar    
   33   14   16 ar    
@<TRIPOS>SUBSTRUCTURE
      1 ****           1
@<TRIPOS>SET
DONOR_HYDROGENS      STATIC     ATOMS    <user>   **** ""
1 34
ATOM$RED        STATIC     ATOMS    COLORGROUP SYSTEM
1 34
@<TRIPOS>COMMENT
> <Gold.Version>
2022.2.0

> <Gold.Id.Protein>
3pbl|protein|mol2

> <Gold.Protein.RotatedTorsions>
[ 1303 1298 1297 1294 ] final  111.14 input  179.99 | X-H torsion
[ 2461 2456 2455 2452 ] final -111.45 input   30.03 | X-H torsion
[ 2515 2510 2509 2506 ] final  -45.92 input  -89.99 | X-H torsion
[ 3721 3712 3711 3710 ] final   90.71 input -179.91 | X-H torsion
[ 3841 3832 3831 3830 ] final  128.70 input -179.91 | X-H torsion
[ 3767 3762 3761 3758 ] final  108.07 input  -89.99 | X-H torsion
[ 2472 2467 2466 2463 ] final  -44.25 input  -89.97 | X-H torsion

> <Gold.Protein.ActiveResidues>
 VAL82   VAL86   LEU89   PHE106  VAL107  ASP110  VAL111  MET112  CYS114  THR115 
 CYS181  SER182  ILE183  PHE188  VAL189  ILE190  SER192  SER193  SER196  TRP342 
 PHE345  PHE346  HIS349  VAL350  TYR365  THR369  GLY372  TYR373 

> <Gold.Protein.RotatedAtoms>
    4.6597   -9.8904    4.9393 H   0  0  0  0  0  0  0  0  0  0  0  0  # atno 1303 bound_to 1298
    0.4903   -9.1113    7.9604 H   0  0  0  0  0  0  0  0  0  0  0  0  # atno 2461 bound_to 2456
   -3.6485   -5.0968    8.7315 H   0  0  0  0  0  0  0  0  0  0  0  0  # atno 2472 bound_to 2467
    2.7871   -8.2738    4.3540 H   0  0  0  0  0  0  0  0  0  0  0  0  # atno 2515 bound_to 2510
   -2.7890  -17.6067   13.0998 H   0  0  0  0  0  0  0  0  0  0  0  0  # atno 3721 bound_to 3712
   -4.0278  -23.2661   10.7389 H   0  0  0  0  0  0  0  0  0  0  0  0  # atno 3767 bound_to 3762
    3.1154  -20.6417    8.8436 H   0  0  0  0  0  0  0  0  0  0  0  0  # atno 3841 bound_to 3832
    3.3497   -9.7517    3.9745 LP  0  0  0  0  0  0  0  0  0  0  0  0  # atno 4297 bound_to 1298
    4.3526   -8.4791    4.1776 LP  0  0  0  0  0  0  0  0  0  0  0  0  # atno 4298 bound_to 1298
    2.0712   -8.7471    8.1483 LP  0  0  0  0  0  0  0  0  0  0  0  0  # atno 4299 bound_to 2456
    1.1760   -7.9499    7.0394 LP  0  0  0  0  0  0  0  0  0  0  0  0  # atno 4300 bound_to 2456
    2.4214   -9.1619    5.6743 LP  0  0  0  0  0  0  0  0  0  0  0  0  # atno 4301 bound_to 2510
    2.0881   -7.5635    5.6474 LP  0  0  0  0  0  0  0  0  0  0  0  0  # atno 4302 bound_to 2510
   -2.7590  -17.8392   14.6881 LP  0  0  0  0  0  0  0  0  0  0  0  0  # atno 4306 bound_to 3712
   -3.5487  -16.5598   14.0510 LP  0  0  0  0  0  0  0  0  0  0  0  0  # atno 4307 bound_to 3712
    1.6579  -20.7265    9.5103 LP  0  0  0  0  0  0  0  0  0  0  0  0  # atno 4314 bound_to 3832
    1.9727  -19.6345    8.3376 LP  0  0  0  0  0  0  0  0  0  0  0  0  # atno 4315 bound_to 3832
   -5.4168  -22.5696   10.2366 LP  0  0  0  0  0  0  0  0  0  0  0  0  # atno 4318 bound_to 3762
   -4.6826  -22.0396   11.5955 LP  0  0  0  0  0  0  0  0  0  0  0  0  # atno 4319 bound_to 3762
   -5.1741   -5.4347    9.2056 LP  0  0  0  0  0  0  0  0  0  0  0  0  # atno 4320 bound_to 2467
   -4.8942   -4.8621    7.7021 LP  0  0  0  0  0  0  0  0  0  0  0  0  # atno 4321 bound_to 2467

> <Gold.Score>
     Score     S(PLP)   S(hbond)     S(cho)   S(metal)  DE(clash)   DE(tors)     intcor
     41.46     -38.26       1.42       0.00       0.00       0.00       0.81       0.57

> <Gold.PLP.Fitness>
41.4553

> <Gold.PLP.PLP>
-38.2639

> <Gold.PLP.part.hbond>
-2.3056

> <Gold.PLP.part.metal>
0.0000

> <Gold.PLP.part.buried>
-3.0836

> <Gold.PLP.part.nonpolar>
-34.7125

> <Gold.PLP.part.repulsive>
0.2921

> <Gold.PLP.ligand.clash>
0.0000

> <Gold.PLP.ligand.torsion>
0.8149

> <Gold.PLP.Chemscore.Hbond>
1.4160

> <Gold.PLP.Chemscore.CHOScore>
0.0000

> <Gold.PLP.Chemscore.Metal>
0.0000

> <Gold.Chemscore.Hbonds>
donor molecule, donor type, donor heavy atom, donor atom, acceptor molecule, acceptor atom, score
      P1  H  2305  2313       L1    15  1.00
      P1  H  3712  3721       L1    16  0.42

> <Gold.PLP.Chemscore.Internal.Correction>
0.5732

