#       Name:                EN300-29801_i001
#       Creating user name   fsindt
#       Creation time:       Mon Feb 27 19:50:20 2023


#       File generated by GOLD software.
#

@<TRIPOS>MOLECULE
EN300-29801_i001|acide_1|mol2|524|dock13
    34    33     1
SMALL
USER_CHARGES


@<TRIPOS>ATOM
      1 C1          -4.9779 -10.9929   9.6017 C.3            1 <1>                0.0000
      2 S2          -3.5577  -9.8851   9.8173 S.3            1 <1>                0.0000
      3 C3          -2.2401 -11.0105  10.3540 C.3            1 <1>                0.0000
      4 C4          -1.9842 -12.0529   9.2638 C.3            1 <1>                0.0000
      5 C5          -0.6494 -12.7519   9.5297 C.3            1 <1>                0.0000
      6 N6          -0.5945 -13.1840  10.9284 N.am           1 <1>                0.0000
      7 C7          -0.1528 -14.4199  11.2350 C.2            1 <1>                0.0000
      8 O8           0.2000 -15.1756  10.3513 O.2            1 <1>                0.0000
      9 O9          -0.1023 -14.8171  12.5205 O.3            1 <1>                0.0000
     10 C10          0.6472 -16.0270  12.8076 C.3            1 <1>                0.0000
     11 C11          0.7221 -16.2334  14.3218 C.3            1 <1>                0.0000
     12 C12         -0.0528 -17.2255  12.1637 C.3            1 <1>                0.0000
     13 C13          2.0621 -15.8973  12.2400 C.3            1 <1>                0.0000
     14 C14          0.4821 -11.7953   9.2548 C.2            1 <1>                0.0000
     15 O15          0.6137 -10.7942   9.9381 O.co2          1 <1>                0.0000
     16 O16          1.2660 -12.0224   8.3489 O.co2          1 <1>               -1.0000
     17 H17         -4.7398 -11.7471   8.8517 H              1 <1>                0.0000
     18 H18         -5.2046 -11.4815  10.5493 H              1 <1>                0.0000
     19 H19         -5.8427 -10.4155   9.2747 H              1 <1>                0.0000
     20 H20         -1.3278 -10.4419  10.5343 H              1 <1>                0.0000
     21 H21         -2.5429 -11.5124  11.2729 H              1 <1>                0.0000
     22 H22         -2.7875 -12.7897   9.2699 H              1 <1>                0.0000
     23 H23         -1.9495 -11.5611   8.2917 H              1 <1>                0.0000
     24 H24         -0.5576 -13.6203   8.8772 H              1 <1>                0.0000
     25 H25         -0.2860 -16.3258  14.7262 H              1 <1>                0.0000
     26 H26          1.2847 -17.1416  14.5373 H              1 <1>                0.0000
     27 H27          1.2207 -15.3795  14.7806 H              1 <1>                0.0000
     28 H28         -0.1061 -17.0785  11.0850 H              1 <1>                0.0000
     29 H29          0.5099 -18.1339  12.3792 H              1 <1>                0.0000
     30 H30         -1.0608 -17.3179  12.5681 H              1 <1>                0.0000
     31 H31          2.5607 -15.0435  12.6987 H              1 <1>                0.0000
     32 H32          2.6247 -16.8057  12.4556 H              1 <1>                0.0000
     33 H33          2.0087 -15.7505  11.1612 H              1 <1>                0.0000
     34 H34         -0.8761 -12.5808  11.6338 H              1 <1>                0.0000
@<TRIPOS>BOND
    1    1    2 1     
    2    1   17 1     
    3    1   18 1     
    4    1   19 1     
    5    2    3 1     
    6    3    4 1     
    7    3   20 1     
    8    3   21 1     
    9    4    5 1     
   10    4   22 1     
   11    4   23 1     
   12    5    6 1     
   13    5   14 1     
   14    5   24 1     
   15    6    7 am    
   16    6   34 1     
   17    7    8 2     
   18    7    9 1     
   19    9   10 1     
   20   10   11 1     
   21   10   12 1     
   22   10   13 1     
   23   11   25 1     
   24   11   26 1     
   25   11   27 1     
   26   12   28 1     
   27   12   29 1     
   28   12   30 1     
   29   13   31 1     
   30   13   32 1     
   31   13   33 1     
   32   14   15 ar    
   33   14   16 ar    
@<TRIPOS>SUBSTRUCTURE
      1 ****           1
@<TRIPOS>SET
DONOR_HYDROGENS      STATIC     ATOMS    <user>   **** ""
1 34
ATOM$RED        STATIC     ATOMS    COLORGROUP SYSTEM
1 34
@<TRIPOS>COMMENT
> <Gold.Version>
2022.2.0

> <Gold.Id.Protein>
3pbl|protein|mol2

> <Gold.Protein.RotatedTorsions>
[ 1303 1298 1297 1294 ] final  170.87 input  179.99 | X-H torsion
[ 2461 2456 2455 2452 ] final  147.25 input   30.03 | X-H torsion
[ 2515 2510 2509 2506 ] final -177.72 input  -89.99 | X-H torsion
[ 3721 3712 3711 3710 ] final -148.50 input -179.91 | X-H torsion
[ 3841 3832 3831 3830 ] final  -96.30 input -179.91 | X-H torsion
[ 3767 3762 3761 3758 ] final   73.52 input  -89.99 | X-H torsion
[ 2472 2467 2466 2463 ] final  -15.07 input  -89.97 | X-H torsion

> <Gold.Protein.ActiveResidues>
 VAL82   VAL86   LEU89   PHE106  VAL107  ASP110  VAL111  MET112  CYS114  THR115 
 CYS181  SER182  ILE183  PHE188  VAL189  ILE190  SER192  SER193  SER196  TRP342 
 PHE345  PHE346  HIS349  VAL350  TYR365  THR369  GLY372  TYR373 

> <Gold.Protein.RotatedAtoms>
    4.8923   -8.9996    4.7553 H   0  0  0  0  0  0  0  0  0  0  0  0  # atno 1303 bound_to 1298
    1.9010   -8.9545    8.2961 H   0  0  0  0  0  0  0  0  0  0  0  0  # atno 2461 bound_to 2456
   -3.6870   -4.9400    8.2847 H   0  0  0  0  0  0  0  0  0  0  0  0  # atno 2472 bound_to 2467
    2.3393   -9.0602    5.8174 H   0  0  0  0  0  0  0  0  0  0  0  0  # atno 2515 bound_to 2510
   -3.3233  -16.5329   14.0110 H   0  0  0  0  0  0  0  0  0  0  0  0  # atno 3721 bound_to 3712
   -4.3883  -23.3266   10.3147 H   0  0  0  0  0  0  0  0  0  0  0  0  # atno 3767 bound_to 3762
    1.9221  -19.5951    8.6454 H   0  0  0  0  0  0  0  0  0  0  0  0  # atno 3841 bound_to 3832
    3.8854  -10.2682    4.5472 LP  0  0  0  0  0  0  0  0  0  0  0  0  # atno 4297 bound_to 1298
    3.5842   -8.8537    3.7889 LP  0  0  0  0  0  0  0  0  0  0  0  0  # atno 4298 bound_to 1298
    1.4722   -7.9169    7.1099 LP  0  0  0  0  0  0  0  0  0  0  0  0  # atno 4299 bound_to 2456
    0.3647   -8.9369    7.7422 LP  0  0  0  0  0  0  0  0  0  0  0  0  # atno 4300 bound_to 2456
    2.1386   -7.4749    5.4824 LP  0  0  0  0  0  0  0  0  0  0  0  0  # atno 4301 bound_to 2510
    2.8189   -8.4637    4.3752 LP  0  0  0  0  0  0  0  0  0  0  0  0  # atno 4302 bound_to 2510
   -2.9542  -17.7548   13.0369 LP  0  0  0  0  0  0  0  0  0  0  0  0  # atno 4306 bound_to 3712
   -2.7367  -17.8840   14.6502 LP  0  0  0  0  0  0  0  0  0  0  0  0  # atno 4307 bound_to 3712
    3.1281  -20.6479    8.5295 LP  0  0  0  0  0  0  0  0  0  0  0  0  # atno 4314 bound_to 3832
    1.8809  -20.9221    9.5473 LP  0  0  0  0  0  0  0  0  0  0  0  0  # atno 4315 bound_to 3832
   -5.5063  -22.1777   10.6263 LP  0  0  0  0  0  0  0  0  0  0  0  0  # atno 4318 bound_to 3762
   -4.2327  -22.3711   11.6299 LP  0  0  0  0  0  0  0  0  0  0  0  0  # atno 4319 bound_to 3762
   -4.7470   -5.4620    9.4117 LP  0  0  0  0  0  0  0  0  0  0  0  0  # atno 4320 bound_to 2467
   -5.2828   -4.9915    7.9427 LP  0  0  0  0  0  0  0  0  0  0  0  0  # atno 4321 bound_to 2467

> <Gold.Score>
     Score     S(PLP)   S(hbond)     S(cho)   S(metal)  DE(clash)   DE(tors)     intcor
     45.08     -45.69       0.00       0.00       0.00       0.13       0.53       0.57

> <Gold.PLP.Fitness>
45.0813

> <Gold.PLP.PLP>
-45.6868

> <Gold.PLP.part.hbond>
-0.7215

> <Gold.PLP.part.metal>
0.0000

> <Gold.PLP.part.buried>
-4.9251

> <Gold.PLP.part.nonpolar>
-41.9968

> <Gold.PLP.part.repulsive>
0.1860

> <Gold.PLP.ligand.clash>
0.1271

> <Gold.PLP.ligand.torsion>
0.5258

> <Gold.PLP.Chemscore.Hbond>
0.0000

> <Gold.PLP.Chemscore.CHOScore>
0.0000

> <Gold.PLP.Chemscore.Metal>
0.0000

> <Gold.PLP.Chemscore.Internal.Correction>
0.5732

