#       Name:                EN300-29801_i001
#       Creating user name   fsindt
#       Creation time:       Mon Feb 27 19:50:13 2023


#       File generated by GOLD software.
#

@<TRIPOS>MOLECULE
EN300-29801_i001|acide_1|mol2|524|dock9
    34    33     1
SMALL
USER_CHARGES


@<TRIPOS>ATOM
      1 C1           0.3694 -13.1790   8.3771 C.3            1 <1>                0.0000
      2 S2          -0.3668 -13.3063  10.0301 S.3            1 <1>                0.0000
      3 C3           0.5492 -14.6807  10.7801 C.3            1 <1>                0.0000
      4 C4          -0.2891 -15.3020  11.8990 C.3            1 <1>                0.0000
      5 C5           0.3452 -16.6234  12.3379 C.3            1 <1>                0.0000
      6 N6          -0.7093 -17.5838  12.6726 N.am           1 <1>                0.0000
      7 C7          -0.3973 -18.8750  12.8999 C.2            1 <1>                0.0000
      8 O8           0.7586 -19.2427  12.8275 O.2            1 <1>                0.0000
      9 O9          -1.3664 -19.7577  13.2075 O.3            1 <1>                0.0000
     10 C10         -0.9630 -21.1392  13.3994 C.3            1 <1>                0.0000
     11 C11         -0.3186 -21.6654  12.1153 C.3            1 <1>                0.0000
     12 C12          0.0458 -21.2213  14.5469 C.3            1 <1>                0.0000
     13 C13         -2.1909 -21.9868  13.7382 C.3            1 <1>                0.0000
     14 C14          1.2118 -16.3872  13.5479 C.2            1 <1>                0.0000
     15 O15          2.3741 -16.7554  13.5465 O.co2          1 <1>                0.0000
     16 O16          0.7507 -15.8279  14.5283 O.co2          1 <1>               -1.0000
     17 H17          1.4354 -12.9712   8.4692 H              1 <1>                0.0000
     18 H18          0.2271 -14.1183   7.8427 H              1 <1>                0.0000
     19 H19         -0.1121 -12.3710   7.8262 H              1 <1>                0.0000
     20 H20          0.7584 -15.4347  10.0213 H              1 <1>                0.0000
     21 H21          1.4877 -14.3099  11.1922 H              1 <1>                0.0000
     22 H22         -0.3273 -14.6181  12.7469 H              1 <1>                0.0000
     23 H23         -1.3000 -15.4872  11.5357 H              1 <1>                0.0000
     24 H24          0.9547 -17.0211  11.5264 H              1 <1>                0.0000
     25 H25          0.5563 -21.0616  11.8740 H              1 <1>                0.0000
     26 H26         -0.0157 -22.7025  12.2594 H              1 <1>                0.0000
     27 H27         -1.0372 -21.6069  11.2978 H              1 <1>                0.0000
     28 H28         -0.4133 -20.8464  15.4616 H              1 <1>                0.0000
     29 H29          0.3486 -22.2585  14.6909 H              1 <1>                0.0000
     30 H30          0.9206 -20.6175  14.3055 H              1 <1>                0.0000
     31 H31         -2.9095 -21.9283  12.9207 H              1 <1>                0.0000
     32 H32         -1.8880 -23.0239  13.8822 H              1 <1>                0.0000
     33 H33         -2.6499 -21.6119  14.6530 H              1 <1>                0.0000
     34 H34         -1.6321 -17.2903  12.7304 H              1 <1>                0.0000
@<TRIPOS>BOND
    1    1    2 1     
    2    1   17 1     
    3    1   18 1     
    4    1   19 1     
    5    2    3 1     
    6    3    4 1     
    7    3   20 1     
    8    3   21 1     
    9    4    5 1     
   10    4   22 1     
   11    4   23 1     
   12    5    6 1     
   13    5   14 1     
   14    5   24 1     
   15    6    7 am    
   16    6   34 1     
   17    7    8 2     
   18    7    9 1     
   19    9   10 1     
   20   10   11 1     
   21   10   12 1     
   22   10   13 1     
   23   11   25 1     
   24   11   26 1     
   25   11   27 1     
   26   12   28 1     
   27   12   29 1     
   28   12   30 1     
   29   13   31 1     
   30   13   32 1     
   31   13   33 1     
   32   14   15 ar    
   33   14   16 ar    
@<TRIPOS>SUBSTRUCTURE
      1 ****           1
@<TRIPOS>SET
DONOR_HYDROGENS      STATIC     ATOMS    <user>   **** ""
1 34
ATOM$RED        STATIC     ATOMS    COLORGROUP SYSTEM
1 34
@<TRIPOS>COMMENT
> <Gold.Version>
2022.2.0

> <Gold.Id.Protein>
3pbl|protein|mol2

> <Gold.Protein.RotatedTorsions>
[ 1303 1298 1297 1294 ] final   78.65 input  179.99 | X-H torsion
[ 2461 2456 2455 2452 ] final   83.54 input   30.03 | X-H torsion
[ 2515 2510 2509 2506 ] final -179.85 input  -89.99 | X-H torsion
[ 3721 3712 3711 3710 ] final  -98.73 input -179.91 | X-H torsion
[ 3841 3832 3831 3830 ] final -170.20 input -179.91 | X-H torsion
[ 3767 3762 3761 3758 ] final   -0.72 input  -89.99 | X-H torsion
[ 2472 2467 2466 2463 ] final  148.44 input  -89.97 | X-H torsion

> <Gold.Protein.ActiveResidues>
 VAL82   VAL86   LEU89   PHE106  VAL107  ASP110  VAL111  MET112  CYS114  THR115 
 CYS181  SER182  ILE183  PHE188  VAL189  ILE190  SER192  SER193  SER196  TRP342 
 PHE345  PHE346  HIS349  VAL350  TYR365  THR369  GLY372  TYR373 

> <Gold.Protein.RotatedAtoms>
    4.2644  -10.2041    4.7863 H   0  0  0  0  0  0  0  0  0  0  0  0  # atno 1303 bound_to 1298
    2.1095   -8.2304    7.6456 H   0  0  0  0  0  0  0  0  0  0  0  0  # atno 2461 bound_to 2456
   -5.5090   -5.2383    8.5562 H   0  0  0  0  0  0  0  0  0  0  0  0  # atno 2472 bound_to 2467
    2.3248   -9.0386    5.8406 H   0  0  0  0  0  0  0  0  0  0  0  0  # atno 2515 bound_to 2510
   -3.0868  -16.8506   14.6230 H   0  0  0  0  0  0  0  0  0  0  0  0  # atno 3721 bound_to 3712
   -5.3296  -22.7078   10.1518 H   0  0  0  0  0  0  0  0  0  0  0  0  # atno 3767 bound_to 3762
    2.8646  -19.9421    8.3724 H   0  0  0  0  0  0  0  0  0  0  0  0  # atno 3841 bound_to 3832
    3.3750   -9.2548    3.7993 LP  0  0  0  0  0  0  0  0  0  0  0  0  # atno 4297 bound_to 1298
    4.7227   -8.6621    4.5058 LP  0  0  0  0  0  0  0  0  0  0  0  0  # atno 4298 bound_to 1298
    0.5510   -8.2899    7.1610 LP  0  0  0  0  0  0  0  0  0  0  0  0  # atno 4299 bound_to 2456
    1.0775   -9.2877    8.3416 LP  0  0  0  0  0  0  0  0  0  0  0  0  # atno 4300 bound_to 2456
    2.1490   -7.4627    5.4514 LP  0  0  0  0  0  0  0  0  0  0  0  0  # atno 4301 bound_to 2510
    2.8229   -8.4975    4.3829 LP  0  0  0  0  0  0  0  0  0  0  0  0  # atno 4302 bound_to 2510
   -3.3536  -17.0552   13.0531 LP  0  0  0  0  0  0  0  0  0  0  0  0  # atno 4306 bound_to 3712
   -2.6102  -18.2169   13.9274 LP  0  0  0  0  0  0  0  0  0  0  0  0  # atno 4307 bound_to 3712
    2.5183  -21.1567    9.3627 LP  0  0  0  0  0  0  0  0  0  0  0  0  # atno 4314 bound_to 3832
    1.4019  -20.0125    9.0295 LP  0  0  0  0  0  0  0  0  0  0  0  0  # atno 4315 bound_to 3832
   -4.8391  -21.9725   11.5249 LP  0  0  0  0  0  0  0  0  0  0  0  0  # atno 4318 bound_to 3762
   -3.9589  -23.1948   10.8941 LP  0  0  0  0  0  0  0  0  0  0  0  0  # atno 4319 bound_to 3762
   -4.1433   -4.8049    7.7729 LP  0  0  0  0  0  0  0  0  0  0  0  0  # atno 4320 bound_to 2467
   -4.0648   -5.3503    9.3101 LP  0  0  0  0  0  0  0  0  0  0  0  0  # atno 4321 bound_to 2467

> <Gold.Score>
     Score     S(PLP)   S(hbond)     S(cho)   S(metal)  DE(clash)   DE(tors)     intcor
     37.90     -35.24       1.69       0.00       0.00       1.38       0.84       0.64

> <Gold.PLP.Fitness>
37.9048

> <Gold.PLP.PLP>
-35.2383

> <Gold.PLP.part.hbond>
-3.0000

> <Gold.PLP.part.metal>
0.0000

> <Gold.PLP.part.buried>
-5.8476

> <Gold.PLP.part.nonpolar>
-27.0407

> <Gold.PLP.part.repulsive>
0.1352

> <Gold.PLP.ligand.clash>
1.3771

> <Gold.PLP.ligand.torsion>
0.8367

> <Gold.PLP.Chemscore.Hbond>
1.6936

> <Gold.PLP.Chemscore.CHOScore>
0.0000

> <Gold.PLP.Chemscore.Metal>
0.0000

> <Gold.Chemscore.Hbonds>
donor molecule, donor type, donor heavy atom, donor atom, acceptor molecule, acceptor atom, score
      L1  H     6    34       P1  3712  0.69
      P1  H  2305  2313       L1    16  1.00

> <Gold.PLP.Chemscore.Internal.Correction>
0.6361

