#       Name:                EN300-29801_i001
#       Creating user name   fsindt
#       Creation time:       Mon Feb 27 19:50:21 2023


#       File generated by GOLD software.
#

@<TRIPOS>MOLECULE
EN300-29801_i001|acide_1|mol2|524|dock14
    34    33     1
SMALL
USER_CHARGES


@<TRIPOS>ATOM
      1 C1           0.8906 -13.5333   8.6005 C.3            1 <1>                0.0000
      2 S2           0.2216 -14.9996   9.4330 S.3            1 <1>                0.0000
      3 C3          -0.0993 -14.4028  11.1156 C.3            1 <1>                0.0000
      4 C4          -0.2985 -15.5969  12.0511 C.3            1 <1>                0.0000
      5 C5           1.0611 -16.2105  12.3916 C.3            1 <1>                0.0000
      6 N6           1.1037 -17.5963  11.9184 N.am           1 <1>                0.0000
      7 C7           0.2524 -18.5087  12.4274 C.2            1 <1>                0.0000
      8 O8          -0.5507 -18.1818  13.2788 O.2            1 <1>                0.0000
      9 O9           0.2915 -19.7823  11.9925 O.3            1 <1>                0.0000
     10 C10         -0.0954 -20.8139  12.9381 C.3            1 <1>                0.0000
     11 C11          0.2383 -22.1894  12.3572 C.3            1 <1>                0.0000
     12 C12          0.6673 -20.6156  14.2497 C.3            1 <1>                0.0000
     13 C13         -1.5994 -20.7240  13.2041 C.3            1 <1>                0.0000
     14 C14          1.2649 -16.1830  13.8845 C.2            1 <1>                0.0000
     15 O15          0.3921 -15.7391  14.6109 O.co2          1 <1>                0.0000
     16 O16          2.3028 -16.6047  14.3659 O.co2          1 <1>               -1.0000
     17 H17          0.1522 -12.7319   8.6270 H              1 <1>                0.0000
     18 H18          1.7978 -13.2085   9.1098 H              1 <1>                0.0000
     19 H19          1.1236 -13.7785   7.5642 H              1 <1>                0.0000
     20 H20          0.7487 -13.8100  11.4587 H              1 <1>                0.0000
     21 H21         -0.9980 -13.7861  11.1172 H              1 <1>                0.0000
     22 H22         -0.7862 -15.2634  12.9671 H              1 <1>                0.0000
     23 H23         -0.9213 -16.3440  11.5591 H              1 <1>                0.0000
     24 H24          1.8506 -15.6364  11.9065 H              1 <1>                0.0000
     25 H25          1.3099 -22.2535  12.1677 H              1 <1>                0.0000
     26 H26         -0.0521 -22.9639  13.0670 H              1 <1>                0.0000
     27 H27         -0.3049 -22.3307  11.4228 H              1 <1>                0.0000
     28 H28          0.4294 -19.6357  14.6635 H              1 <1>                0.0000
     29 H29          0.3768 -21.3901  14.9596 H              1 <1>                0.0000
     30 H30          1.7387 -20.6798  14.0602 H              1 <1>                0.0000
     31 H31         -2.1427 -20.8652  12.2698 H              1 <1>                0.0000
     32 H32         -1.8898 -21.4985  13.9140 H              1 <1>                0.0000
     33 H33         -1.8371 -19.7440  13.6181 H              1 <1>                0.0000
     34 H34          1.7448 -17.8572  11.2388 H              1 <1>                0.0000
@<TRIPOS>BOND
    1    1    2 1     
    2    1   17 1     
    3    1   18 1     
    4    1   19 1     
    5    2    3 1     
    6    3    4 1     
    7    3   20 1     
    8    3   21 1     
    9    4    5 1     
   10    4   22 1     
   11    4   23 1     
   12    5    6 1     
   13    5   14 1     
   14    5   24 1     
   15    6    7 am    
   16    6   34 1     
   17    7    8 2     
   18    7    9 1     
   19    9   10 1     
   20   10   11 1     
   21   10   12 1     
   22   10   13 1     
   23   11   25 1     
   24   11   26 1     
   25   11   27 1     
   26   12   28 1     
   27   12   29 1     
   28   12   30 1     
   29   13   31 1     
   30   13   32 1     
   31   13   33 1     
   32   14   15 ar    
   33   14   16 ar    
@<TRIPOS>SUBSTRUCTURE
      1 ****           1
@<TRIPOS>SET
DONOR_HYDROGENS      STATIC     ATOMS    <user>   **** ""
1 34
ATOM$RED        STATIC     ATOMS    COLORGROUP SYSTEM
1 34
@<TRIPOS>COMMENT
> <Gold.Version>
2022.2.0

> <Gold.Id.Protein>
3pbl|protein|mol2

> <Gold.Protein.RotatedTorsions>
[ 1303 1298 1297 1294 ] final  -18.17 input  179.99 | X-H torsion
[ 2461 2456 2455 2452 ] final   57.59 input   30.03 | X-H torsion
[ 2515 2510 2509 2506 ] final  -91.49 input  -89.99 | X-H torsion
[ 3721 3712 3711 3710 ] final   38.17 input -179.91 | X-H torsion
[ 3841 3832 3831 3830 ] final   17.50 input -179.91 | X-H torsion
[ 3767 3762 3761 3758 ] final  131.48 input  -89.99 | X-H torsion
[ 2472 2467 2466 2463 ] final  -30.85 input  -89.97 | X-H torsion

> <Gold.Protein.ActiveResidues>
 VAL82   VAL86   LEU89   PHE106  VAL107  ASP110  VAL111  MET112  CYS114  THR115 
 CYS181  SER182  ILE183  PHE188  VAL189  ILE190  SER192  SER193  SER196  TRP342 
 PHE345  PHE346  HIS349  VAL350  TYR365  THR369  GLY372  TYR373 

> <Gold.Protein.RotatedAtoms>
    3.3310   -9.6147    3.9090 H   0  0  0  0  0  0  0  0  0  0  0  0  # atno 1303 bound_to 1298
    1.8894   -8.0158    7.3544 H   0  0  0  0  0  0  0  0  0  0  0  0  # atno 2461 bound_to 2456
   -3.6362   -5.0211    8.5252 H   0  0  0  0  0  0  0  0  0  0  0  0  # atno 2472 bound_to 2467
    2.8180   -8.9503    4.6264 H   0  0  0  0  0  0  0  0  0  0  0  0  # atno 2515 bound_to 2510
   -2.5017  -18.0182   13.6795 H   0  0  0  0  0  0  0  0  0  0  0  0  # atno 3721 bound_to 3712
   -3.9154  -23.0917   11.0605 H   0  0  0  0  0  0  0  0  0  0  0  0  # atno 3767 bound_to 3762
    1.9139  -20.6731    9.6157 H   0  0  0  0  0  0  0  0  0  0  0  0  # atno 3841 bound_to 3832
    4.4720   -8.5039    4.2702 LP  0  0  0  0  0  0  0  0  0  0  0  0  # atno 4297 bound_to 1298
    4.5594  -10.0027    4.9125 LP  0  0  0  0  0  0  0  0  0  0  0  0  # atno 4298 bound_to 1298
    0.3604   -8.5885    7.3927 LP  0  0  0  0  0  0  0  0  0  0  0  0  # atno 4299 bound_to 2456
    1.4881   -9.2037    8.4009 LP  0  0  0  0  0  0  0  0  0  0  0  0  # atno 4300 bound_to 2456
    2.1365   -8.6204    6.0729 LP  0  0  0  0  0  0  0  0  0  0  0  0  # atno 4301 bound_to 2510
    2.3421   -7.4281    4.9762 LP  0  0  0  0  0  0  0  0  0  0  0  0  # atno 4302 bound_to 2510
   -3.1659  -17.1081   14.8233 LP  0  0  0  0  0  0  0  0  0  0  0  0  # atno 4306 bound_to 3712
   -3.4736  -16.8158   13.2465 LP  0  0  0  0  0  0  0  0  0  0  0  0  # atno 4307 bound_to 3712
    1.8907  -19.6367    8.3903 LP  0  0  0  0  0  0  0  0  0  0  0  0  # atno 4314 bound_to 3832
    3.1278  -20.6881    8.5658 LP  0  0  0  0  0  0  0  0  0  0  0  0  # atno 4315 bound_to 3832
   -5.2083  -22.8557   10.0913 LP  0  0  0  0  0  0  0  0  0  0  0  0  # atno 4318 bound_to 3762
   -5.0034  -21.9279   11.4194 LP  0  0  0  0  0  0  0  0  0  0  0  0  # atno 4319 bound_to 3762
   -4.9910   -5.4577    9.3254 LP  0  0  0  0  0  0  0  0  0  0  0  0  # atno 4320 bound_to 2467
   -5.0896   -4.9147    7.7885 LP  0  0  0  0  0  0  0  0  0  0  0  0  # atno 4321 bound_to 2467

> <Gold.Score>
     Score     S(PLP)   S(hbond)     S(cho)   S(metal)  DE(clash)   DE(tors)     intcor
     43.04     -36.15       3.00       0.00       0.00       0.00       1.34       0.57

> <Gold.PLP.Fitness>
43.0446

> <Gold.PLP.PLP>
-36.1493

> <Gold.PLP.part.hbond>
-3.0000

> <Gold.PLP.part.metal>
0.0000

> <Gold.PLP.part.buried>
-6.2197

> <Gold.PLP.part.nonpolar>
-27.1459

> <Gold.PLP.part.repulsive>
0.1537

> <Gold.PLP.ligand.clash>
0.0000

> <Gold.PLP.ligand.torsion>
1.3389

> <Gold.PLP.Chemscore.Hbond>
3.0000

> <Gold.PLP.Chemscore.CHOScore>
0.0000

> <Gold.PLP.Chemscore.Metal>
0.0000

> <Gold.Chemscore.Hbonds>
donor molecule, donor type, donor heavy atom, donor atom, acceptor molecule, acceptor atom, score
      L1  H     6    34       P1  1227  1.00
      P1  H  2305  2313       L1    15  1.00
      P1  H  3712  3721       L1     8  1.00

> <Gold.PLP.Chemscore.Internal.Correction>
0.5732

