#       Name:                EN300-29801_i001
#       Creating user name   fsindt
#       Creation time:       Mon Feb 27 19:50:30 2023


#       File generated by GOLD software.
#

@<TRIPOS>MOLECULE
EN300-29801_i001|acide_1|mol2|524|dock19
    34    33     1
SMALL
USER_CHARGES


@<TRIPOS>ATOM
      1 C1          -0.2000 -10.0436  11.1057 C.3            1 <1>                0.0000
      2 S2          -1.7630 -10.4953  10.3034 S.3            1 <1>                0.0000
      3 C3          -1.2592 -11.7738   9.1192 C.3            1 <1>                0.0000
      4 C4           0.1061 -12.3336   9.5231 C.3            1 <1>                0.0000
      5 C5           0.0870 -13.8590   9.4059 C.3            1 <1>                0.0000
      6 N6           1.1263 -14.4280  10.2675 N.am           1 <1>                0.0000
      7 C7           0.7836 -15.0783  11.3971 C.2            1 <1>                0.0000
      8 O8          -0.3874 -15.1927  11.7009 O.2            1 <1>                0.0000
      9 O9           1.7387 -15.6013  12.1889 O.3            1 <1>                0.0000
     10 C10          1.3398 -16.6742  13.0823 C.3            1 <1>                0.0000
     11 C11          2.5822 -17.2807  13.7376 C.3            1 <1>                0.0000
     12 C12          0.4123 -16.1182  14.1648 C.3            1 <1>                0.0000
     13 C13          0.6045 -17.7541  12.2861 C.3            1 <1>                0.0000
     14 C14          0.3471 -14.2562   7.9757 C.2            1 <1>                0.0000
     15 O15          0.5392 -13.3991   7.1302 O.co2          1 <1>                0.0000
     16 O16          0.3654 -15.4349   7.6640 O.co2          1 <1>               -1.0000
     17 H17          0.2255 -10.9212  11.5924 H              1 <1>                0.0000
     18 H18          0.4979  -9.6692  10.3569 H              1 <1>                0.0000
     19 H19         -0.3844  -9.2688  11.8500 H              1 <1>                0.0000
     20 H20         -1.9954 -12.5776   9.1174 H              1 <1>                0.0000
     21 H21         -1.1932 -11.3394   8.1217 H              1 <1>                0.0000
     22 H22          0.8743 -11.9282   8.8645 H              1 <1>                0.0000
     23 H23          0.3245 -12.0510  10.5530 H              1 <1>                0.0000
     24 H24         -0.8881 -14.2350   9.7158 H              1 <1>                0.0000
     25 H25          3.1061 -16.5113  14.3048 H              1 <1>                0.0000
     26 H26          2.2828 -18.0861  14.4082 H              1 <1>                0.0000
     27 H27          3.2430 -17.6768  12.9664 H              1 <1>                0.0000
     28 H28         -0.4728 -15.6861  13.6979 H              1 <1>                0.0000
     29 H29          0.1129 -16.9236  14.8354 H              1 <1>                0.0000
     30 H30          0.9362 -15.3489  14.7320 H              1 <1>                0.0000
     31 H31          1.2652 -18.1501  11.5149 H              1 <1>                0.0000
     32 H32          0.3050 -18.5595  12.9568 H              1 <1>                0.0000
     33 H33         -0.2807 -17.3220  11.8193 H              1 <1>                0.0000
     34 H34          2.0610 -14.3367  10.0249 H              1 <1>                0.0000
@<TRIPOS>BOND
    1    1    2 1     
    2    1   17 1     
    3    1   18 1     
    4    1   19 1     
    5    2    3 1     
    6    3    4 1     
    7    3   20 1     
    8    3   21 1     
    9    4    5 1     
   10    4   22 1     
   11    4   23 1     
   12    5    6 1     
   13    5   14 1     
   14    5   24 1     
   15    6    7 am    
   16    6   34 1     
   17    7    8 2     
   18    7    9 1     
   19    9   10 1     
   20   10   11 1     
   21   10   12 1     
   22   10   13 1     
   23   11   25 1     
   24   11   26 1     
   25   11   27 1     
   26   12   28 1     
   27   12   29 1     
   28   12   30 1     
   29   13   31 1     
   30   13   32 1     
   31   13   33 1     
   32   14   15 ar    
   33   14   16 ar    
@<TRIPOS>SUBSTRUCTURE
      1 ****           1
@<TRIPOS>SET
DONOR_HYDROGENS      STATIC     ATOMS    <user>   **** ""
1 34
ATOM$RED        STATIC     ATOMS    COLORGROUP SYSTEM
1 34
@<TRIPOS>COMMENT
> <Gold.Version>
2022.2.0

> <Gold.Id.Protein>
3pbl|protein|mol2

> <Gold.Protein.RotatedTorsions>
[ 1303 1298 1297 1294 ] final -139.84 input  179.99 | X-H torsion
[ 2461 2456 2455 2452 ] final -160.83 input   30.03 | X-H torsion
[ 2515 2510 2509 2506 ] final -131.58 input  -89.99 | X-H torsion
[ 3721 3712 3711 3710 ] final  158.16 input -179.91 | X-H torsion
[ 3841 3832 3831 3830 ] final  113.97 input -179.91 | X-H torsion
[ 3767 3762 3761 3758 ] final   93.67 input  -89.99 | X-H torsion
[ 2472 2467 2466 2463 ] final   35.51 input  -89.97 | X-H torsion

> <Gold.Protein.ActiveResidues>
 VAL82   VAL86   LEU89   PHE106  VAL107  ASP110  VAL111  MET112  CYS114  THR115 
 CYS181  SER182  ILE183  PHE188  VAL189  ILE190  SER192  SER193  SER196  TRP342 
 PHE345  PHE346  HIS349  VAL350  TYR365  THR369  GLY372  TYR373 

> <Gold.Protein.RotatedAtoms>
    4.4921   -8.5108    4.2875 H   0  0  0  0  0  0  0  0  0  0  0  0  # atno 1303 bound_to 1298
    1.1465   -9.2833    8.3613 H   0  0  0  0  0  0  0  0  0  0  0  0  # atno 2461 bound_to 2456
   -4.2491   -4.8001    7.7249 H   0  0  0  0  0  0  0  0  0  0  0  0  # atno 2472 bound_to 2467
    2.6510   -9.2484    5.1747 H   0  0  0  0  0  0  0  0  0  0  0  0  # atno 2515 bound_to 2510
   -3.2470  -16.7798   13.2776 H   0  0  0  0  0  0  0  0  0  0  0  0  # atno 3721 bound_to 3712
   -4.1546  -23.3221   10.5475 H   0  0  0  0  0  0  0  0  0  0  0  0  # atno 3767 bound_to 3762
    3.0477  -20.7766    9.0063 H   0  0  0  0  0  0  0  0  0  0  0  0  # atno 3841 bound_to 3832
    4.5400  -10.0211    4.9062 LP  0  0  0  0  0  0  0  0  0  0  0  0  # atno 4297 bound_to 1298
    3.3300   -9.5897    3.8980 LP  0  0  0  0  0  0  0  0  0  0  0  0  # atno 4298 bound_to 1298
    2.0836   -8.1877    7.5939 LP  0  0  0  0  0  0  0  0  0  0  0  0  # atno 4299 bound_to 2456
    0.5076   -8.3373    7.1932 LP  0  0  0  0  0  0  0  0  0  0  0  0  # atno 4300 bound_to 2456
    2.0290   -7.9869    6.0039 LP  0  0  0  0  0  0  0  0  0  0  0  0  # atno 4301 bound_to 2510
    2.6166   -7.7634    4.4968 LP  0  0  0  0  0  0  0  0  0  0  0  0  # atno 4302 bound_to 2510
   -2.6376  -18.2048   13.6972 LP  0  0  0  0  0  0  0  0  0  0  0  0  # atno 4306 bound_to 3712
   -3.1413  -17.1489   14.8366 LP  0  0  0  0  0  0  0  0  0  0  0  0  # atno 4307 bound_to 3712
    1.5179  -20.5411    9.4310 LP  0  0  0  0  0  0  0  0  0  0  0  0  # atno 4314 bound_to 3832
    2.1908  -19.6641    8.2291 LP  0  0  0  0  0  0  0  0  0  0  0  0  # atno 4315 bound_to 3832
   -5.4885  -22.3951   10.3790 LP  0  0  0  0  0  0  0  0  0  0  0  0  # atno 4318 bound_to 3762
   -4.4840  -22.1581   11.6445 LP  0  0  0  0  0  0  0  0  0  0  0  0  # atno 4319 bound_to 3762
   -3.9715   -5.3178    9.2485 LP  0  0  0  0  0  0  0  0  0  0  0  0  # atno 4320 bound_to 2467
   -5.4963   -5.2755    8.6656 LP  0  0  0  0  0  0  0  0  0  0  0  0  # atno 4321 bound_to 2467

> <Gold.Score>
     Score     S(PLP)   S(hbond)     S(cho)   S(metal)  DE(clash)   DE(tors)     intcor
     41.37     -43.49       0.00       0.00       0.00       0.00       1.34       0.57

> <Gold.PLP.Fitness>
41.3720

> <Gold.PLP.PLP>
-43.4850

> <Gold.PLP.part.hbond>
0.0000

> <Gold.PLP.part.metal>
0.0000

> <Gold.PLP.part.buried>
-5.6908

> <Gold.PLP.part.nonpolar>
-38.9328

> <Gold.PLP.part.repulsive>
0.3507

> <Gold.PLP.ligand.clash>
0.0000

> <Gold.PLP.ligand.torsion>
1.3431

> <Gold.PLP.Chemscore.Hbond>
0.0000

> <Gold.PLP.Chemscore.CHOScore>
0.0000

> <Gold.PLP.Chemscore.Metal>
0.0000

> <Gold.PLP.Chemscore.Internal.Correction>
0.5732

