#       Name:                EN300-29801_i001
#       Creating user name   fsindt
#       Creation time:       Mon Feb 27 19:50:10 2023


#       File generated by GOLD software.
#

@<TRIPOS>MOLECULE
EN300-29801_i001|acide_1|mol2|524|dock7
    34    33     1
SMALL
USER_CHARGES


@<TRIPOS>ATOM
      1 C1          -1.3023 -12.9010  11.3994 C.3            1 <1>                0.0000
      2 S2          -0.1123 -13.6016  10.2231 S.3            1 <1>                0.0000
      3 C3           0.6852 -14.9173  11.1842 C.3            1 <1>                0.0000
      4 C4          -0.3843 -15.7530  11.8903 C.3            1 <1>                0.0000
      5 C5           0.2901 -16.8311  12.7410 C.3            1 <1>                0.0000
      6 N6          -0.6495 -17.9317  12.9693 N.am           1 <1>                0.0000
      7 C7          -0.1889 -19.1869  13.1382 C.2            1 <1>                0.0000
      8 O8           1.0058 -19.4058  13.1014 O.2            1 <1>                0.0000
      9 O9          -1.0523 -20.1984  13.3481 O.3            1 <1>                0.0000
     10 C10         -0.6560 -21.5125  12.8745 C.3            1 <1>                0.0000
     11 C11          0.4877 -22.0434  13.7411 C.3            1 <1>                0.0000
     12 C12         -1.8483 -22.4674  12.9626 C.3            1 <1>                0.0000
     13 C13         -0.1898 -21.4115  11.4207 C.3            1 <1>                0.0000
     14 C14          0.7036 -16.2411  14.0645 C.2            1 <1>                0.0000
     15 O15         -0.1404 -15.7992  14.8254 O.co2          1 <1>                0.0000
     16 O16          1.8824 -16.2055  14.3745 O.co2          1 <1>               -1.0000
     17 H17         -2.0031 -13.6752  11.7118 H              1 <1>                0.0000
     18 H18         -0.7703 -12.5194  12.2707 H              1 <1>                0.0000
     19 H19         -1.8487 -12.0874  10.9222 H              1 <1>                0.0000
     20 H20          1.2629 -15.5560  10.5161 H              1 <1>                0.0000
     21 H21          1.3486 -14.4738  11.9266 H              1 <1>                0.0000
     22 H22         -0.9852 -15.1077  12.5311 H              1 <1>                0.0000
     23 H23         -1.0259 -16.2255  11.1465 H              1 <1>                0.0000
     24 H24          1.1705 -17.2072  12.2198 H              1 <1>                0.0000
     25 H25          0.1556 -22.1154  14.7768 H              1 <1>                0.0000
     26 H26          0.7852 -23.0298  13.3856 H              1 <1>                0.0000
     27 H27          1.3371 -21.3631  13.6783 H              1 <1>                0.0000
     28 H28         -2.6630 -22.0891  12.3452 H              1 <1>                0.0000
     29 H29         -1.5507 -23.4539  12.6071 H              1 <1>                0.0000
     30 H30         -2.1803 -22.5393  13.9983 H              1 <1>                0.0000
     31 H31          0.6595 -20.7312  11.3579 H              1 <1>                0.0000
     32 H32          0.1077 -22.3980  11.0652 H              1 <1>                0.0000
     33 H33         -1.0047 -21.0334  10.8033 H              1 <1>                0.0000
     34 H34         -1.6032 -17.7570  12.9987 H              1 <1>                0.0000
@<TRIPOS>BOND
    1    1    2 1     
    2    1   17 1     
    3    1   18 1     
    4    1   19 1     
    5    2    3 1     
    6    3    4 1     
    7    3   20 1     
    8    3   21 1     
    9    4    5 1     
   10    4   22 1     
   11    4   23 1     
   12    5    6 1     
   13    5   14 1     
   14    5   24 1     
   15    6    7 am    
   16    6   34 1     
   17    7    8 2     
   18    7    9 1     
   19    9   10 1     
   20   10   11 1     
   21   10   12 1     
   22   10   13 1     
   23   11   25 1     
   24   11   26 1     
   25   11   27 1     
   26   12   28 1     
   27   12   29 1     
   28   12   30 1     
   29   13   31 1     
   30   13   32 1     
   31   13   33 1     
   32   14   15 ar    
   33   14   16 ar    
@<TRIPOS>SUBSTRUCTURE
      1 ****           1
@<TRIPOS>SET
DONOR_HYDROGENS      STATIC     ATOMS    <user>   **** ""
1 34
ATOM$RED        STATIC     ATOMS    COLORGROUP SYSTEM
1 34
@<TRIPOS>COMMENT
> <Gold.Version>
2022.2.0

> <Gold.Id.Protein>
3pbl|protein|mol2

> <Gold.Protein.RotatedTorsions>
[ 1303 1298 1297 1294 ] final  -90.43 input  179.99 | X-H torsion
[ 2461 2456 2455 2452 ] final  -75.94 input   30.03 | X-H torsion
[ 2515 2510 2509 2506 ] final  110.61 input  -89.99 | X-H torsion
[ 3721 3712 3711 3710 ] final -116.85 input -179.91 | X-H torsion
[ 3841 3832 3831 3830 ] final -136.98 input -179.91 | X-H torsion
[ 3767 3762 3761 3758 ] final -128.23 input  -89.99 | X-H torsion
[ 2472 2467 2466 2463 ] final  -14.66 input  -89.97 | X-H torsion

> <Gold.Protein.ActiveResidues>
 VAL82   VAL86   LEU89   PHE106  VAL107  ASP110  VAL111  MET112  CYS114  THR115 
 CYS181  SER182  ILE183  PHE188  VAL189  ILE190  SER192  SER193  SER196  TRP342 
 PHE345  PHE346  HIS349  VAL350  TYR365  THR369  GLY372  TYR373 

> <Gold.Protein.RotatedAtoms>
    3.8319   -8.6231    3.8723 H   0  0  0  0  0  0  0  0  0  0  0  0  # atno 1303 bound_to 1298
    0.3305   -8.7493    7.5430 H   0  0  0  0  0  0  0  0  0  0  0  0  # atno 2461 bound_to 2456
   -3.6892   -4.9381    8.2786 H   0  0  0  0  0  0  0  0  0  0  0  0  # atno 2472 bound_to 2467
    2.0304   -8.0201    6.0180 H   0  0  0  0  0  0  0  0  0  0  0  0  # atno 2515 bound_to 2510
   -3.2004  -16.6803   14.4427 H   0  0  0  0  0  0  0  0  0  0  0  0  # atno 3721 bound_to 3712
   -4.7341  -22.0142   11.5750 H   0  0  0  0  0  0  0  0  0  0  0  0  # atno 3767 bound_to 3762
    2.4558  -19.6631    8.3758 H   0  0  0  0  0  0  0  0  0  0  0  0  # atno 3841 bound_to 3832
    4.9032   -9.3220    4.8873 LP  0  0  0  0  0  0  0  0  0  0  0  0  # atno 4297 bound_to 1298
    3.6272  -10.1765    4.3322 LP  0  0  0  0  0  0  0  0  0  0  0  0  # atno 4298 bound_to 1298
    1.6879   -9.1097    8.3767 LP  0  0  0  0  0  0  0  0  0  0  0  0  # atno 4299 bound_to 2456
    1.7191   -7.9492    7.2283 LP  0  0  0  0  0  0  0  0  0  0  0  0  # atno 4300 bound_to 2456
    2.6028   -7.7360    4.5156 LP  0  0  0  0  0  0  0  0  0  0  0  0  # atno 4301 bound_to 2510
    2.6638   -9.2432    5.1413 LP  0  0  0  0  0  0  0  0  0  0  0  0  # atno 4302 bound_to 2510
   -3.2161  -17.3087   12.9653 LP  0  0  0  0  0  0  0  0  0  0  0  0  # atno 4306 bound_to 3712
   -2.6166  -18.1598   14.2234 LP  0  0  0  0  0  0  0  0  0  0  0  0  # atno 4307 bound_to 3712
    2.9306  -21.0557    9.0170 LP  0  0  0  0  0  0  0  0  0  0  0  0  # atno 4314 bound_to 3832
    1.4619  -20.4358    9.3713 LP  0  0  0  0  0  0  0  0  0  0  0  0  # atno 4315 bound_to 3832
   -4.0023  -23.2453   10.7903 LP  0  0  0  0  0  0  0  0  0  0  0  0  # atno 4318 bound_to 3762
   -5.3910  -22.6153   10.2060 LP  0  0  0  0  0  0  0  0  0  0  0  0  # atno 4319 bound_to 3762
   -4.7404   -5.4618    9.4131 LP  0  0  0  0  0  0  0  0  0  0  0  0  # atno 4320 bound_to 2467
   -5.2872   -4.9937    7.9473 LP  0  0  0  0  0  0  0  0  0  0  0  0  # atno 4321 bound_to 2467

> <Gold.Score>
     Score     S(PLP)   S(hbond)     S(cho)   S(metal)  DE(clash)   DE(tors)     intcor
     41.02     -36.62       2.00       0.00       0.00       0.00       1.12       0.64

> <Gold.PLP.Fitness>
41.0230

> <Gold.PLP.PLP>
-36.6211

> <Gold.PLP.part.hbond>
-2.7069

> <Gold.PLP.part.metal>
0.0000

> <Gold.PLP.part.buried>
-5.7859

> <Gold.PLP.part.nonpolar>
-28.8258

> <Gold.PLP.part.repulsive>
0.1559

> <Gold.PLP.ligand.clash>
0.0000

> <Gold.PLP.ligand.torsion>
1.1171

> <Gold.PLP.Chemscore.Hbond>
2.0000

> <Gold.PLP.Chemscore.CHOScore>
0.0000

> <Gold.PLP.Chemscore.Metal>
0.0000

> <Gold.Chemscore.Hbonds>
donor molecule, donor type, donor heavy atom, donor atom, acceptor molecule, acceptor atom, score
      L1  H     6    34       P1  3712  1.00
      P1  H  2305  2313       L1    15  1.00

> <Gold.PLP.Chemscore.Internal.Correction>
0.6361

