#       Name:                EN300-29801_i001
#       Creating user name   fsindt
#       Creation time:       Mon Feb 27 19:50:08 2023


#       File generated by GOLD software.
#

@<TRIPOS>MOLECULE
EN300-29801_i001|acide_1|mol2|524|dock6
    34    33     1
SMALL
USER_CHARGES


@<TRIPOS>ATOM
      1 C1           1.2188 -14.2685   8.9448 C.3            1 <1>                0.0000
      2 S2           0.0503 -14.1401  10.3263 S.3            1 <1>                0.0000
      3 C3           0.7524 -15.2687  11.5608 C.3            1 <1>                0.0000
      4 C4          -0.2165 -16.4280  11.8015 C.3            1 <1>                0.0000
      5 C5           0.3635 -17.3658  12.8622 C.3            1 <1>                0.0000
      6 N6          -0.6391 -18.3696  13.2273 N.am           1 <1>                0.0000
      7 C7          -0.3430 -19.6814  13.1377 C.2            1 <1>                0.0000
      8 O8           0.7556 -20.0315  12.7542 O.2            1 <1>                0.0000
      9 O9          -1.2644 -20.6040  13.4734 O.3            1 <1>                0.0000
     10 C10         -0.9888 -21.9786  13.0957 C.3            1 <1>                0.0000
     11 C11          0.2296 -22.4857  13.8699 C.3            1 <1>                0.0000
     12 C12         -2.2017 -22.8511  13.4255 C.3            1 <1>                0.0000
     13 C13         -0.7039 -22.0478  11.5941 C.3            1 <1>                0.0000
     14 C14          0.7443 -16.5689  14.0832 C.2            1 <1>                0.0000
     15 O15          1.9049 -16.5417  14.4558 O.co2          1 <1>                0.0000
     16 O16         -0.1082 -15.9515  14.6985 O.co2          1 <1>               -1.0000
     17 H17          2.2102 -13.9611   9.2776 H              1 <1>                0.0000
     18 H18          1.2566 -15.3003   8.5955 H              1 <1>                0.0000
     19 H19          0.8918 -13.6212   8.1310 H              1 <1>                0.0000
     20 H20          1.7029 -15.6591  11.1971 H              1 <1>                0.0000
     21 H21          0.9142 -14.7305  12.4947 H              1 <1>                0.0000
     22 H22         -1.1732 -16.0362  12.1471 H              1 <1>                0.0000
     23 H23         -0.3636 -16.9777  10.8718 H              1 <1>                0.0000
     24 H24          1.2473 -17.8635  12.4629 H              1 <1>                0.0000
     25 H25          0.0267 -22.4364  14.9397 H              1 <1>                0.0000
     26 H26          0.4365 -23.5176  13.5864 H              1 <1>                0.0000
     27 H27          1.0937 -21.8641  13.6350 H              1 <1>                0.0000
     28 H28         -3.0697 -22.4898  12.8740 H              1 <1>                0.0000
     29 H29         -1.9948 -23.8830  13.1420 H              1 <1>                0.0000
     30 H30         -2.4046 -22.8018  14.4953 H              1 <1>                0.0000
     31 H31          0.1601 -21.4262  11.3592 H              1 <1>                0.0000
     32 H32         -0.4970 -23.0797  11.3107 H              1 <1>                0.0000
     33 H33         -1.5720 -21.6866  11.0426 H              1 <1>                0.0000
     34 H34         -1.5160 -18.0902  13.5335 H              1 <1>                0.0000
@<TRIPOS>BOND
    1    1    2 1     
    2    1   17 1     
    3    1   18 1     
    4    1   19 1     
    5    2    3 1     
    6    3    4 1     
    7    3   20 1     
    8    3   21 1     
    9    4    5 1     
   10    4   22 1     
   11    4   23 1     
   12    5    6 1     
   13    5   14 1     
   14    5   24 1     
   15    6    7 am    
   16    6   34 1     
   17    7    8 2     
   18    7    9 1     
   19    9   10 1     
   20   10   11 1     
   21   10   12 1     
   22   10   13 1     
   23   11   25 1     
   24   11   26 1     
   25   11   27 1     
   26   12   28 1     
   27   12   29 1     
   28   12   30 1     
   29   13   31 1     
   30   13   32 1     
   31   13   33 1     
   32   14   15 ar    
   33   14   16 ar    
@<TRIPOS>SUBSTRUCTURE
      1 ****           1
@<TRIPOS>SET
DONOR_HYDROGENS      STATIC     ATOMS    <user>   **** ""
1 34
ATOM$RED        STATIC     ATOMS    COLORGROUP SYSTEM
1 34
@<TRIPOS>COMMENT
> <Gold.Version>
2022.2.0

> <Gold.Id.Protein>
3pbl|protein|mol2

> <Gold.Protein.RotatedTorsions>
[ 1303 1298 1297 1294 ] final  -84.98 input  179.99 | X-H torsion
[ 2461 2456 2455 2452 ] final  168.29 input   30.03 | X-H torsion
[ 2515 2510 2509 2506 ] final  118.39 input  -89.99 | X-H torsion
[ 3721 3712 3711 3710 ] final -164.55 input -179.91 | X-H torsion
[ 3841 3832 3831 3830 ] final -150.65 input -179.91 | X-H torsion
[ 3767 3762 3761 3758 ] final   47.87 input  -89.99 | X-H torsion
[ 2472 2467 2466 2463 ] final  -63.76 input  -89.97 | X-H torsion

> <Gold.Protein.ActiveResidues>
 VAL82   VAL86   LEU89   PHE106  VAL107  ASP110  VAL111  MET112  CYS114  THR115 
 CYS181  SER182  ILE183  PHE188  VAL189  ILE190  SER192  SER193  SER196  TRP342 
 PHE345  PHE346  HIS349  VAL350  TYR365  THR369  GLY372  TYR373 

> <Gold.Protein.RotatedAtoms>
    3.7632   -8.6734    3.8441 H   0  0  0  0  0  0  0  0  0  0  0  0  # atno 1303 bound_to 1298
    1.6277   -9.1425    8.3886 H   0  0  0  0  0  0  0  0  0  0  0  0  # atno 2461 bound_to 2456
   -3.7555   -5.2092    9.0107 H   0  0  0  0  0  0  0  0  0  0  0  0  # atno 2472 bound_to 2467
    2.0388   -8.1406    6.0596 H   0  0  0  0  0  0  0  0  0  0  0  0  # atno 2515 bound_to 2510
   -3.3388  -16.5432   13.7699 H   0  0  0  0  0  0  0  0  0  0  0  0  # atno 3721 bound_to 3712
   -4.7383  -23.2090   10.1172 H   0  0  0  0  0  0  0  0  0  0  0  0  # atno 3767 bound_to 3762
    2.6367  -19.7579    8.3486 H   0  0  0  0  0  0  0  0  0  0  0  0  # atno 3841 bound_to 3832
    4.9109   -9.2370    4.8597 LP  0  0  0  0  0  0  0  0  0  0  0  0  # atno 4297 bound_to 1298
    3.6881  -10.2112    4.3880 LP  0  0  0  0  0  0  0  0  0  0  0  0  # atno 4298 bound_to 1298
    1.7755   -7.9663    7.2651 LP  0  0  0  0  0  0  0  0  0  0  0  0  # atno 4299 bound_to 2456
    0.3346   -8.6996    7.4947 LP  0  0  0  0  0  0  0  0  0  0  0  0  # atno 4300 bound_to 2456
    2.5517   -7.6460    4.5905 LP  0  0  0  0  0  0  0  0  0  0  0  0  # atno 4301 bound_to 2510
    2.7064   -9.2126    5.0247 LP  0  0  0  0  0  0  0  0  0  0  0  0  # atno 4302 bound_to 2510
   -2.8318  -17.9466   13.1772 LP  0  0  0  0  0  0  0  0  0  0  0  0  # atno 4306 bound_to 3712
   -2.8411  -17.6803   14.7883 LP  0  0  0  0  0  0  0  0  0  0  0  0  # atno 4307 bound_to 3712
    2.7810  -21.1271    9.1735 LP  0  0  0  0  0  0  0  0  0  0  0  0  # atno 4314 bound_to 3832
    1.4024  -20.2549    9.2462 LP  0  0  0  0  0  0  0  0  0  0  0  0  # atno 4315 bound_to 3832
   -5.3887  -21.9829   10.9776 LP  0  0  0  0  0  0  0  0  0  0  0  0  # atno 4318 bound_to 3762
   -4.0004  -22.6834   11.4759 LP  0  0  0  0  0  0  0  0  0  0  0  0  # atno 4319 bound_to 3762
   -5.3797   -5.3722    8.9693 LP  0  0  0  0  0  0  0  0  0  0  0  0  # atno 4320 bound_to 2467
   -4.5816   -4.8122    7.6593 LP  0  0  0  0  0  0  0  0  0  0  0  0  # atno 4321 bound_to 2467

> <Gold.Score>
     Score     S(PLP)   S(hbond)     S(cho)   S(metal)  DE(clash)   DE(tors)     intcor
     40.60     -35.41       2.00       0.00       0.00       0.26       0.59       0.64

> <Gold.PLP.Fitness>
40.6044

> <Gold.PLP.PLP>
-35.4130

> <Gold.PLP.part.hbond>
-2.0944

> <Gold.PLP.part.metal>
0.0000

> <Gold.PLP.part.buried>
-6.1766

> <Gold.PLP.part.nonpolar>
-27.7155

> <Gold.PLP.part.repulsive>
0.1393

> <Gold.PLP.ligand.clash>
0.2597

> <Gold.PLP.ligand.torsion>
0.5925

> <Gold.PLP.Chemscore.Hbond>
2.0000

> <Gold.PLP.Chemscore.CHOScore>
0.0000

> <Gold.PLP.Chemscore.Metal>
0.0000

> <Gold.Chemscore.Hbonds>
donor molecule, donor type, donor heavy atom, donor atom, acceptor molecule, acceptor atom, score
      L1  H     6    34       P1  3712  1.00
      P1  H  2305  2313       L1    16  1.00

> <Gold.PLP.Chemscore.Internal.Correction>
0.6361

