#       Name:                EN300-29801_i001
#       Creating user name   fsindt
#       Creation time:       Mon Feb 27 19:50:25 2023


#       File generated by GOLD software.
#

@<TRIPOS>MOLECULE
EN300-29801_i001|acide_1|mol2|524|dock16
    34    33     1
SMALL
USER_CHARGES


@<TRIPOS>ATOM
      1 C1          -0.9710  -9.5681  10.9003 C.3            1 <1>                0.0000
      2 S2          -2.5037 -10.3536  10.3306 S.3            1 <1>                0.0000
      3 C3          -1.9064 -11.8212   9.4476 C.3            1 <1>                0.0000
      4 C4          -0.6066 -12.3092  10.0902 C.3            1 <1>                0.0000
      5 C5           0.0816 -13.3061   9.1555 C.3            1 <1>                0.0000
      6 N6           1.0936 -14.0573   9.9025 N.am           1 <1>                0.0000
      7 C7           0.7453 -14.7352  11.0141 C.2            1 <1>                0.0000
      8 O8          -0.4080 -14.7234  11.3967 O.2            1 <1>                0.0000
      9 O9           1.6752 -15.4256  11.7006 O.3            1 <1>                0.0000
     10 C10          1.1950 -16.3893  12.6748 C.3            1 <1>                0.0000
     11 C11          0.5071 -15.6518  13.8253 C.3            1 <1>                0.0000
     12 C12          0.1960 -17.3359  12.0061 C.3            1 <1>                0.0000
     13 C13          2.3757 -17.1957  13.2194 C.3            1 <1>                0.0000
     14 C14          0.7425 -12.5608   8.0248 C.2            1 <1>                0.0000
     15 O15          1.3358 -13.1747   7.1544 O.co2          1 <1>                0.0000
     16 O16          0.6840 -11.3437   7.9804 O.co2          1 <1>               -1.0000
     17 H17         -0.4297 -10.2562  11.5495 H              1 <1>                0.0000
     18 H18         -0.3507  -9.3158  10.0403 H              1 <1>                0.0000
     19 H19         -1.2119  -8.6602  11.4533 H              1 <1>                0.0000
     20 H20         -2.6574 -12.6093   9.5031 H              1 <1>                0.0000
     21 H21         -1.7227 -11.5674   8.4036 H              1 <1>                0.0000
     22 H22          0.0537 -11.4597  10.2649 H              1 <1>                0.0000
     23 H23         -0.8309 -12.7962  11.0393 H              1 <1>                0.0000
     24 H24         -0.6590 -13.9965   8.7518 H              1 <1>                0.0000
     25 H25         -0.3341 -15.0773  13.4373 H              1 <1>                0.0000
     26 H26          0.1466 -16.3752  14.5566 H              1 <1>                0.0000
     27 H27          1.2187 -14.9774  14.3017 H              1 <1>                0.0000
     28 H28          0.6861 -17.8612  11.1864 H              1 <1>                0.0000
     29 H29         -0.1645 -18.0593  12.7374 H              1 <1>                0.0000
     30 H30         -0.6451 -16.7614  11.6181 H              1 <1>                0.0000
     31 H31          3.0874 -16.5214  13.6957 H              1 <1>                0.0000
     32 H32          2.0151 -17.9191  13.9507 H              1 <1>                0.0000
     33 H33          2.8657 -17.7212  12.3997 H              1 <1>                0.0000
     34 H34          2.0142 -14.0667   9.5971 H              1 <1>                0.0000
@<TRIPOS>BOND
    1    1    2 1     
    2    1   17 1     
    3    1   18 1     
    4    1   19 1     
    5    2    3 1     
    6    3    4 1     
    7    3   20 1     
    8    3   21 1     
    9    4    5 1     
   10    4   22 1     
   11    4   23 1     
   12    5    6 1     
   13    5   14 1     
   14    5   24 1     
   15    6    7 am    
   16    6   34 1     
   17    7    8 2     
   18    7    9 1     
   19    9   10 1     
   20   10   11 1     
   21   10   12 1     
   22   10   13 1     
   23   11   25 1     
   24   11   26 1     
   25   11   27 1     
   26   12   28 1     
   27   12   29 1     
   28   12   30 1     
   29   13   31 1     
   30   13   32 1     
   31   13   33 1     
   32   14   15 ar    
   33   14   16 ar    
@<TRIPOS>SUBSTRUCTURE
      1 ****           1
@<TRIPOS>SET
DONOR_HYDROGENS      STATIC     ATOMS    <user>   **** ""
1 34
ATOM$RED        STATIC     ATOMS    COLORGROUP SYSTEM
1 34
@<TRIPOS>COMMENT
> <Gold.Version>
2022.2.0

> <Gold.Id.Protein>
3pbl|protein|mol2

> <Gold.Protein.RotatedTorsions>
[ 1303 1298 1297 1294 ] final -132.78 input  179.99 | X-H torsion
[ 2461 2456 2455 2452 ] final -145.90 input   30.03 | X-H torsion
[ 2515 2510 2509 2506 ] final  146.26 input  -89.99 | X-H torsion
[ 3721 3712 3711 3710 ] final  -14.61 input -179.91 | X-H torsion
[ 3841 3832 3831 3830 ] final   93.30 input -179.91 | X-H torsion
[ 3767 3762 3761 3758 ] final   29.67 input  -89.99 | X-H torsion
[ 2472 2467 2466 2463 ] final  152.50 input  -89.97 | X-H torsion

> <Gold.Protein.ActiveResidues>
 VAL82   VAL86   LEU89   PHE106  VAL107  ASP110  VAL111  MET112  CYS114  THR115 
 CYS181  SER182  ILE183  PHE188  VAL189  ILE190  SER192  SER193  SER196  TRP342 
 PHE345  PHE346  HIS349  VAL350  TYR365  THR369  GLY372  TYR373 

> <Gold.Protein.RotatedAtoms>
    4.4034   -8.4867    4.2165 H   0  0  0  0  0  0  0  0  0  0  0  0  # atno 1303 bound_to 1298
    0.9154   -9.2826    8.2799 H   0  0  0  0  0  0  0  0  0  0  0  0  # atno 2461 bound_to 2456
   -5.5034   -5.2604    8.6191 H   0  0  0  0  0  0  0  0  0  0  0  0  # atno 2472 bound_to 2467
    2.1262   -8.5856    6.0799 H   0  0  0  0  0  0  0  0  0  0  0  0  # atno 2515 bound_to 2510
   -2.5308  -17.8508   14.4305 H   0  0  0  0  0  0  0  0  0  0  0  0  # atno 3721 bound_to 3712
   -4.9872  -23.0535   10.0644 H   0  0  0  0  0  0  0  0  0  0  0  0  # atno 3767 bound_to 3762
    2.8767  -20.9080    9.2299 H   0  0  0  0  0  0  0  0  0  0  0  0  # atno 3841 bound_to 3832
    4.6193   -9.9397    4.9297 LP  0  0  0  0  0  0  0  0  0  0  0  0  # atno 4297 bound_to 1298
    3.3394   -9.6953    3.9454 LP  0  0  0  0  0  0  0  0  0  0  0  0  # atno 4298 bound_to 1298
    2.1504   -8.3424    7.7717 LP  0  0  0  0  0  0  0  0  0  0  0  0  # atno 4299 bound_to 2456
    0.6719   -8.1834    7.0967 LP  0  0  0  0  0  0  0  0  0  0  0  0  # atno 4300 bound_to 2456
    2.3576   -7.4363    4.9436 LP  0  0  0  0  0  0  0  0  0  0  0  0  # atno 4301 bound_to 2510
    2.8131   -8.9770    4.6514 LP  0  0  0  0  0  0  0  0  0  0  0  0  # atno 4302 bound_to 2510
   -3.5121  -16.5944   14.2397 LP  0  0  0  0  0  0  0  0  0  0  0  0  # atno 4306 bound_to 3712
   -3.0937  -17.5228   12.9631 LP  0  0  0  0  0  0  0  0  0  0  0  0  # atno 4307 bound_to 3712
    1.4051  -20.2677    9.2560 LP  0  0  0  0  0  0  0  0  0  0  0  0  # atno 4314 bound_to 3832
    2.5012  -19.7857    8.1457 LP  0  0  0  0  0  0  0  0  0  0  0  0  # atno 4315 bound_to 3832
   -5.2216  -21.9201   11.2165 LP  0  0  0  0  0  0  0  0  0  0  0  0  # atno 4318 bound_to 3762
   -3.9186  -22.9016   11.2899 LP  0  0  0  0  0  0  0  0  0  0  0  0  # atno 4319 bound_to 3762
   -4.2035   -4.8012    7.7440 LP  0  0  0  0  0  0  0  0  0  0  0  0  # atno 4320 bound_to 2467
   -4.0102   -5.3321    9.2761 LP  0  0  0  0  0  0  0  0  0  0  0  0  # atno 4321 bound_to 2467

> <Gold.Score>
     Score     S(PLP)   S(hbond)     S(cho)   S(metal)  DE(clash)   DE(tors)     intcor
     45.79     -43.43       1.00       0.00       0.00       0.01       0.60       0.57

> <Gold.PLP.Fitness>
45.7946

> <Gold.PLP.PLP>
-43.4305

> <Gold.PLP.part.hbond>
-1.0000

> <Gold.PLP.part.metal>
0.0000

> <Gold.PLP.part.buried>
-5.2071

> <Gold.PLP.part.nonpolar>
-38.7441

> <Gold.PLP.part.repulsive>
0.3674

> <Gold.PLP.ligand.clash>
0.0096

> <Gold.PLP.ligand.torsion>
0.5998

> <Gold.PLP.Chemscore.Hbond>
1.0000

> <Gold.PLP.Chemscore.CHOScore>
0.0000

> <Gold.PLP.Chemscore.Metal>
0.0000

> <Gold.Chemscore.Hbonds>
donor molecule, donor type, donor heavy atom, donor atom, acceptor molecule, acceptor atom, score
      P1  H  2456  2461       L1    16  1.00

> <Gold.PLP.Chemscore.Internal.Correction>
0.5732

