#       Name:                plp ligand
#       Creating user name   fsindt
#       Creation time:       Mon Feb 27 19:49:59 2023


#       File generated by GOLD software.
#

@<TRIPOS>MOLECULE
plp ligand
    34    33     1
SMALL
USER_CHARGES


@<TRIPOS>ATOM
      1 C1           5.0075   2.2406  -0.2139 NONPOLAR       1 <1>                0.0000
      2 S2           4.7946   0.5261   0.3392 NONPOLAR       1 <1>                0.0000
      3 C3           3.0903   0.1472  -0.1530 NONPOLAR       1 <1>                0.0000
      4 C4           2.7502  -1.2889   0.2503 NONPOLAR       1 <1>                0.0000
      5 C5           1.3127  -1.6085  -0.1648 NONPOLAR       1 <1>                0.0000
      6 N6           0.3863  -0.7635   0.5929 DONOR          1 <1>                0.0000
      7 C7          -0.8321  -0.4808   0.0909 NONPOLAR       1 <1>                0.0000
      8 O8          -1.1623  -0.9269  -0.9901 ACCEPTOR       1 <1>                0.0000
      9 O9          -1.6835   0.2957   0.7872 ACCEPTOR       1 <1>                0.0000
     10 C10         -2.9785   0.5584   0.1854 NONPOLAR       1 <1>                0.0000
     11 C11         -3.7157  -0.7639  -0.0360 NONPOLAR       1 <1>                0.0000
     12 C12         -3.8016   1.4515   1.1160 NONPOLAR       1 <1>                0.0000
     13 C13         -2.7830   1.2644  -1.1578 NONPOLAR       1 <1>                0.0000
     14 C14          1.0179  -3.0585   0.1207 NONPOLAR       1 <1>                0.0000
     15 O15          0.5620  -3.3863   1.2029 ACCEPTOR       1 <1>                0.0000
     16 O16          1.2354  -3.9039  -0.7306 ACCEPTOR       1 <1>               -1.0000
     17 H17          4.8610   2.2952  -1.2926                1 <1>                0.0000
     18 H18          4.2763   2.8767   0.2848                1 <1>                0.0000
     19 H19          6.0133   2.5800   0.0339                1 <1>                0.0000
     20 H20          2.4070   0.8357   0.3442                1 <1>                0.0000
     21 H21          2.9917   0.2543  -1.2332                1 <1>                0.0000
     22 H22          3.4335  -1.9774  -0.2469                1 <1>                0.0000
     23 H23          2.8488  -1.3960   1.3306                1 <1>                0.0000
     24 H24          1.1910  -1.4160  -1.2308                1 <1>                0.0000
     25 H25         -3.8550  -1.2669   0.9210                1 <1>                0.0000
     26 H26         -4.6878  -0.5667  -0.4877                1 <1>                0.0000
     27 H27         -3.1293  -1.4002  -0.6989                1 <1>                0.0000
     28 H28         -3.2764   2.3935   1.2737                1 <1>                0.0000
     29 H29         -4.7738   1.6487   0.6642                1 <1>                0.0000
     30 H30         -3.9409   0.9485   2.0729                1 <1>                0.0000
     31 H31         -2.1966   0.6282  -1.8207                1 <1>                0.0000
     32 H32         -3.7552   1.4616  -1.6095                1 <1>                0.0000
     33 H33         -2.2579   2.2065  -1.0000                1 <1>                0.0000
     34 H34          0.6499  -0.4074   1.4558                1 <1>                0.0000
@<TRIPOS>BOND
    1    1    2 1     
    2    1   17 1     
    3    1   18 1     
    4    1   19 1     
    5    2    3 1     
    6    3    4 1     
    7    3   20 1     
    8    3   21 1     
    9    4    5 1     
   10    4   22 1     
   11    4   23 1     
   12    5    6 1     
   13    5   14 1     
   14    5   24 1     
   15    6    7 am    
   16    6   34 1     
   17    7    8 2     
   18    7    9 1     
   19    9   10 1     
   20   10   11 1     
   21   10   12 1     
   22   10   13 1     
   23   11   25 1     
   24   11   26 1     
   25   11   27 1     
   26   12   28 1     
   27   12   29 1     
   28   12   30 1     
   29   13   31 1     
   30   13   32 1     
   31   13   33 1     
   32   14   15 ar    
   33   14   16 ar    
@<TRIPOS>SUBSTRUCTURE
      1 ****           1
@<TRIPOS>SET
DONOR_HYDROGENS      STATIC     ATOMS    <user>   **** ""
1 34
ATOM$RED        STATIC     ATOMS    COLORGROUP SYSTEM
1 34
