#       Name:                EN300-89823_i001
#       Creating user name   aseyller
#       Creation time:       Fri Apr 21 17:29:00 2023


#       File generated by GOLD software.
#

@<TRIPOS>MOLECULE
EN300-89823_i001|Sulfonylchlorides|mol2|274|dock7
    19    19     1
SMALL
USER_CHARGES


@<TRIPOS>ATOM
      1 F1          33.2788  35.8495  37.3108 F              1 <1>                0.0000
      2 C2          32.0408  36.1424  37.7655 C.ar           1 <1>                0.0000
      3 C3          31.4194  35.2988  38.6728 C.ar           1 <1>                0.0000
      4 C4          30.1521  35.5921  39.1427 C.ar           1 <1>                0.0000
      5 C5          29.4980  36.7278  38.7114 C.ar           1 <1>                0.0000
      6 C6          28.1174  37.0448  39.2258 C.3            1 <1>                0.0000
      7 S7          27.9046  36.3177  40.8740 S.o2           1 <1>                0.0000
      8 O8          27.7310  34.9104  40.7796 O.2            1 <1>                0.0000
      9 O9          28.8317  36.8816  41.7914 O.2            1 <1>                0.0000
     10 Cl10        26.1087  37.0002  41.4980 Cl             1 <1>                0.0000
     11 C11         30.1172  37.5830  37.7981 C.ar           1 <1>                0.0000
     12 C12         29.4432  38.7633  37.3472 C.1            1 <1>                0.0000
     13 N13         28.9085  39.6996  36.9897 N.1            1 <1>                0.0000
     14 C14         31.3985  37.2854  37.3299 C.ar           1 <1>                0.0000
     15 H15         31.9267  34.4085  39.0139 H              1 <1>                0.0000
     16 H16         29.6732  34.9301  39.8490 H              1 <1>                0.0000
     17 H17         27.9917  38.1258  39.2866 H              1 <1>                0.0000
     18 H18         27.3725  36.6299  38.5467 H              1 <1>                0.0000
     19 H19         31.8831  37.9429  36.6233 H              1 <1>                0.0000
@<TRIPOS>BOND
    1    1    2 1     
    2    2    3 ar    
    3    2   14 ar    
    4    3    4 ar    
    5    3   15 1     
    6    4    5 ar    
    7    4   16 1     
    8    5    6 1     
    9    5   11 ar    
   10    6    7 1     
   11    6   17 1     
   12    6   18 1     
   13    7    8 2     
   14    7    9 2     
   15    7   10 1     
   16   11   12 1     
   17   11   14 ar    
   18   12   13 3     
   19   14   19 1     
@<TRIPOS>SUBSTRUCTURE
      1 ****           1
@<TRIPOS>COMMENT
> <Gold.Version>
2022.2.0

> <Gold.Id.Protein>
1qkm|1qkm_protein|mol2

> <Gold.Protein.RotatedTorsions>
[  496  491  490  487 ] final  114.87 input  -89.99 | X-H torsion

> <Gold.Protein.ActiveResidues>
 MET295  LEU298  THR299  LEU301  ALA302  GLU305  TRP335  MET336  LEU339  MET340 
 GLY342  LEU343  ARG346  PHE356  ILE373  ILE376  PHE377  LEU380  LYS471  GLY472 
 MET473  HIS475  LEU476  LEU477  ASN478  MET479  VAL484  VAL487 

> <Gold.Protein.RotatedAtoms>
   37.0399   32.9395   41.6925 H   0  0  0  0  0  0  0  0  0  0  0  0  # atno 496  bound_to 491 

> <Gold.Score>
     Score     S(PLP)   S(hbond)     S(cho)   S(metal)  DE(clash)   DE(tors)     intcor
     41.34     -42.16       0.00       0.00       0.00       0.00       0.48       0.14

> <Gold.PLP.Fitness>
41.3424

> <Gold.PLP.PLP>
-42.1635

> <Gold.PLP.part.hbond>
0.0000

> <Gold.PLP.part.metal>
0.0000

> <Gold.PLP.part.buried>
-1.8122

> <Gold.PLP.part.nonpolar>
-40.6369

> <Gold.PLP.part.repulsive>
0.2449

> <Gold.PLP.ligand.clash>
0.0000

> <Gold.PLP.ligand.torsion>
0.4782

> <Gold.PLP.Chemscore.Hbond>
0.0000

> <Gold.PLP.Chemscore.CHOScore>
0.0000

> <Gold.PLP.Chemscore.Metal>
0.0000

> <Gold.PLP.Chemscore.Internal.Correction>
0.1352

