#       Name:                EN300-89823_i001
#       Creating user name   aseyller
#       Creation time:       Fri Apr 21 17:28:58 2023


#       File generated by GOLD software.
#

@<TRIPOS>MOLECULE
EN300-89823_i001|Sulfonylchlorides|mol2|274|dock3
    19    19     1
SMALL
USER_CHARGES


@<TRIPOS>ATOM
      1 F1          32.0907  33.0152  38.2635 F              1 <1>                0.0000
      2 C2          31.5841  34.2655  38.3359 C.ar           1 <1>                0.0000
      3 C3          32.1923  35.2998  37.6422 C.ar           1 <1>                0.0000
      4 C4          31.6794  36.5823  37.7114 C.ar           1 <1>                0.0000
      5 C5          30.5575  36.8405  38.4718 C.ar           1 <1>                0.0000
      6 C6          30.0007  38.2390  38.5448 C.3            1 <1>                0.0000
      7 S7          29.4052  38.7390  36.9059 S.o2           1 <1>                0.0000
      8 O8          29.6942  37.7350  35.9427 O.2            1 <1>                0.0000
      9 O9          28.1084  39.3123  37.0000 O.2            1 <1>                0.0000
     10 Cl10        30.5968  40.2852  36.3866 Cl             1 <1>                0.0000
     11 C11         29.9385  35.8042  39.1732 C.ar           1 <1>                0.0000
     12 C12         28.7735  36.0663  39.9637 C.1            1 <1>                0.0000
     13 N13         27.8494  36.2743  40.5907 N.1            1 <1>                0.0000
     14 C14         30.4570  34.5101  39.0966 C.ar           1 <1>                0.0000
     15 H15         33.0708  35.1034  37.0454 H              1 <1>                0.0000
     16 H16         32.1586  37.3839  37.1690 H              1 <1>                0.0000
     17 H17         29.1743  38.2645  39.2550 H              1 <1>                0.0000
     18 H18         30.7824  38.9247  38.8720 H              1 <1>                0.0000
     19 H19         29.9829  33.7040  39.6368 H              1 <1>                0.0000
@<TRIPOS>BOND
    1    1    2 1     
    2    2    3 ar    
    3    2   14 ar    
    4    3    4 ar    
    5    3   15 1     
    6    4    5 ar    
    7    4   16 1     
    8    5    6 1     
    9    5   11 ar    
   10    6    7 1     
   11    6   17 1     
   12    6   18 1     
   13    7    8 2     
   14    7    9 2     
   15    7   10 1     
   16   11   12 1     
   17   11   14 ar    
   18   12   13 3     
   19   14   19 1     
@<TRIPOS>SUBSTRUCTURE
      1 ****           1
@<TRIPOS>COMMENT
> <Gold.Version>
2022.2.0

> <Gold.Id.Protein>
1qkm|1qkm_protein|mol2

> <Gold.Protein.RotatedTorsions>
[  496  491  490  487 ] final -144.01 input  -89.99 | X-H torsion

> <Gold.Protein.ActiveResidues>
 MET295  LEU298  THR299  LEU301  ALA302  GLU305  TRP335  MET336  LEU339  MET340 
 GLY342  LEU343  ARG346  PHE356  ILE373  ILE376  PHE377  LEU380  LYS471  GLY472 
 MET473  HIS475  LEU476  LEU477  ASN478  MET479  VAL484  VAL487 

> <Gold.Protein.RotatedAtoms>
   37.1984   34.0128   40.7204 H   0  0  0  0  0  0  0  0  0  0  0  0  # atno 496  bound_to 491 

> <Gold.Score>
     Score     S(PLP)   S(hbond)     S(cho)   S(metal)  DE(clash)   DE(tors)     intcor
     42.89     -42.97       0.00       0.00       0.00       0.00       0.11       0.14

> <Gold.PLP.Fitness>
42.8861

> <Gold.PLP.PLP>
-42.9735

> <Gold.PLP.part.hbond>
0.0000

> <Gold.PLP.part.metal>
0.0000

> <Gold.PLP.part.buried>
-3.3468

> <Gold.PLP.part.nonpolar>
-39.5720

> <Gold.PLP.part.repulsive>
0.0796

> <Gold.PLP.ligand.clash>
0.0000

> <Gold.PLP.ligand.torsion>
0.1113

> <Gold.PLP.Chemscore.Hbond>
0.0000

> <Gold.PLP.Chemscore.CHOScore>
0.0000

> <Gold.PLP.Chemscore.Metal>
0.0000

> <Gold.PLP.Chemscore.Internal.Correction>
0.1352

