#       Name:                EN300-89823_i001
#       Creating user name   aseyller
#       Creation time:       Fri Apr 21 17:29:02 2023


#       File generated by GOLD software.
#

@<TRIPOS>MOLECULE
EN300-89823_i001|Sulfonylchlorides|mol2|274|dock10
    19    19     1
SMALL
USER_CHARGES


@<TRIPOS>ATOM
      1 F1          31.4326  38.1761  34.7136 F              1 <1>                0.0000
      2 C2          31.0112  37.8854  35.9638 C.ar           1 <1>                0.0000
      3 C3          30.1509  38.7497  36.6224 C.ar           1 <1>                0.0000
      4 C4          29.7152  38.4588  37.9024 C.ar           1 <1>                0.0000
      5 C5          30.1341  37.3049  38.5322 C.ar           1 <1>                0.0000
      6 C6          29.6572  36.9905  39.9268 C.3            1 <1>                0.0000
      7 S7          28.3357  35.7503  39.8486 S.o2           1 <1>                0.0000
      8 O8          28.7565  34.6199  39.0973 O.2            1 <1>                0.0000
      9 O9          27.7198  35.5969  41.1200 O.2            1 <1>                0.0000
     10 Cl10        26.9083  36.6059  38.7037 Cl             1 <1>                0.0000
     11 C11         31.0002  36.4287  37.8755 C.ar           1 <1>                0.0000
     12 C12         31.4380  35.2294  38.5242 C.1            1 <1>                0.0000
     13 N13         31.7852  34.2781  39.0388 N.1            1 <1>                0.0000
     14 C14         31.4338  36.7241  36.5815 C.ar           1 <1>                0.0000
     15 H15         29.8197  39.6543  36.1342 H              1 <1>                0.0000
     16 H16         29.0454  39.1369  38.4104 H              1 <1>                0.0000
     17 H17         30.4874  36.6002  40.5154 H              1 <1>                0.0000
     18 H18         29.2759  37.8987  40.3938 H              1 <1>                0.0000
     19 H19         32.1038  36.0506  36.0680 H              1 <1>                0.0000
@<TRIPOS>BOND
    1    1    2 1     
    2    2    3 ar    
    3    2   14 ar    
    4    3    4 ar    
    5    3   15 1     
    6    4    5 ar    
    7    4   16 1     
    8    5    6 1     
    9    5   11 ar    
   10    6    7 1     
   11    6   17 1     
   12    6   18 1     
   13    7    8 2     
   14    7    9 2     
   15    7   10 1     
   16   11   12 1     
   17   11   14 ar    
   18   12   13 3     
   19   14   19 1     
@<TRIPOS>SUBSTRUCTURE
      1 ****           1
@<TRIPOS>COMMENT
> <Gold.Version>
2022.2.0

> <Gold.Id.Protein>
1qkm|1qkm_protein|mol2

> <Gold.Protein.RotatedTorsions>
[  496  491  490  487 ] final   34.66 input  -89.99 | X-H torsion

> <Gold.Protein.ActiveResidues>
 MET295  LEU298  THR299  LEU301  ALA302  GLU305  TRP335  MET336  LEU339  MET340 
 GLY342  LEU343  ARG346  PHE356  ILE373  ILE376  PHE377  LEU380  LYS471  GLY472 
 MET473  HIS475  LEU476  LEU477  ASN478  MET479  VAL484  VAL487 

> <Gold.Protein.RotatedAtoms>
   36.3715   33.6830   42.3833 H   0  0  0  0  0  0  0  0  0  0  0  0  # atno 496  bound_to 491 

> <Gold.Score>
     Score     S(PLP)   S(hbond)     S(cho)   S(metal)  DE(clash)   DE(tors)     intcor
     40.92     -41.43       0.00       0.00       0.00       0.00       0.32       0.14

> <Gold.PLP.Fitness>
40.9187

> <Gold.PLP.PLP>
-41.4304

> <Gold.PLP.part.hbond>
0.0000

> <Gold.PLP.part.metal>
0.0000

> <Gold.PLP.part.buried>
-4.1206

> <Gold.PLP.part.nonpolar>
-37.6171

> <Gold.PLP.part.repulsive>
0.3056

> <Gold.PLP.ligand.clash>
0.0000

> <Gold.PLP.ligand.torsion>
0.3235

> <Gold.PLP.Chemscore.Hbond>
0.0000

> <Gold.PLP.Chemscore.CHOScore>
0.0000

> <Gold.PLP.Chemscore.Metal>
0.0000

> <Gold.PLP.Chemscore.Internal.Correction>
0.1352

