#       Name:                EN300-89823_i001
#       Creating user name   aseyller
#       Creation time:       Fri Apr 21 17:29:04 2023


#       File generated by GOLD software.
#

@<TRIPOS>MOLECULE
EN300-89823_i001|Sulfonylchlorides|mol2|274|dock13
    19    19     1
SMALL
USER_CHARGES


@<TRIPOS>ATOM
      1 F1          26.1006  36.6861  38.8412 F              1 <1>                0.0000
      2 C2          27.3477  36.9893  38.4194 C.ar           1 <1>                0.0000
      3 C3          27.5598  38.1152  37.6395 C.ar           1 <1>                0.0000
      4 C4          28.8336  38.4321  37.2040 C.ar           1 <1>                0.0000
      5 C5          29.9027  37.6288  37.5440 C.ar           1 <1>                0.0000
      6 C6          31.2896  37.9771  37.0683 C.3            1 <1>                0.0000
      7 S7          31.4470  37.5638  35.3090 S.o2           1 <1>                0.0000
      8 O8          30.3959  36.6972  34.9044 O.2            1 <1>                0.0000
      9 O9          31.7747  38.7210  34.5522 O.2            1 <1>                0.0000
     10 Cl10        33.1060  36.4159  35.2073 Cl             1 <1>                0.0000
     11 C11         29.6977  36.4931  38.3297 C.ar           1 <1>                0.0000
     12 C12         30.8036  35.6560  38.6859 C.1            1 <1>                0.0000
     13 N13         31.6809  34.9919  38.9684 N.1            1 <1>                0.0000
     14 C14         28.4106  36.1798  38.7710 C.ar           1 <1>                0.0000
     15 H15         26.7266  38.7476  37.3704 H              1 <1>                0.0000
     16 H16         28.9919  39.3105  36.5960 H              1 <1>                0.0000
     17 H17         31.4643  39.0439  37.2079 H              1 <1>                0.0000
     18 H18         32.0234  37.4105  37.6416 H              1 <1>                0.0000
     19 H19         28.2453  35.3027  39.3791 H              1 <1>                0.0000
@<TRIPOS>BOND
    1    1    2 1     
    2    2    3 ar    
    3    2   14 ar    
    4    3    4 ar    
    5    3   15 1     
    6    4    5 ar    
    7    4   16 1     
    8    5    6 1     
    9    5   11 ar    
   10    6    7 1     
   11    6   17 1     
   12    6   18 1     
   13    7    8 2     
   14    7    9 2     
   15    7   10 1     
   16   11   12 1     
   17   11   14 ar    
   18   12   13 3     
   19   14   19 1     
@<TRIPOS>SUBSTRUCTURE
      1 ****           1
@<TRIPOS>COMMENT
> <Gold.Version>
2022.2.0

> <Gold.Id.Protein>
1qkm|1qkm_protein|mol2

> <Gold.Protein.RotatedTorsions>
[  496  491  490  487 ] final  -90.57 input  -89.99 | X-H torsion

> <Gold.Protein.ActiveResidues>
 MET295  LEU298  THR299  LEU301  ALA302  GLU305  TRP335  MET336  LEU339  MET340 
 GLY342  LEU343  ARG346  PHE356  ILE373  ILE376  PHE377  LEU380  LYS471  GLY472 
 MET473  HIS475  LEU476  LEU477  ASN478  MET479  VAL484  VAL487 

> <Gold.Protein.RotatedAtoms>
   36.7626   34.6495   41.0725 H   0  0  0  0  0  0  0  0  0  0  0  0  # atno 496  bound_to 491 

> <Gold.Score>
     Score     S(PLP)   S(hbond)     S(cho)   S(metal)  DE(clash)   DE(tors)     intcor
     41.25     -41.77       0.00       0.00       0.00       0.00       0.33       0.14

> <Gold.PLP.Fitness>
41.2492

> <Gold.PLP.PLP>
-41.7709

> <Gold.PLP.part.hbond>
0.0000

> <Gold.PLP.part.metal>
0.0000

> <Gold.PLP.part.buried>
-2.9267

> <Gold.PLP.part.nonpolar>
-39.5338

> <Gold.PLP.part.repulsive>
0.4863

> <Gold.PLP.ligand.clash>
0.0000

> <Gold.PLP.ligand.torsion>
0.3284

> <Gold.PLP.Chemscore.Hbond>
0.0000

> <Gold.PLP.Chemscore.CHOScore>
0.0000

> <Gold.PLP.Chemscore.Metal>
0.0000

> <Gold.PLP.Chemscore.Internal.Correction>
0.1352

