#       Name:                EN300-89823_i001
#       Creating user name   aseyller
#       Creation time:       Fri Apr 21 17:29:00 2023


#       File generated by GOLD software.
#

@<TRIPOS>MOLECULE
EN300-89823_i001|Sulfonylchlorides|mol2|274|dock6
    19    19     1
SMALL
USER_CHARGES


@<TRIPOS>ATOM
      1 F1          26.1050  36.6828  38.8989 F              1 <1>                0.0000
      2 C2          27.3895  36.8694  38.5240 C.ar           1 <1>                0.0000
      3 C3          28.3504  35.9264  38.8533 C.ar           1 <1>                0.0000
      4 C4          29.6672  36.1106  38.4730 C.ar           1 <1>                0.0000
      5 C5          30.0331  37.2350  37.7620 C.ar           1 <1>                0.0000
      6 C6          31.4688  37.4325  37.3486 C.3            1 <1>                0.0000
      7 S7          31.8664  36.3029  35.9860 S.o2           1 <1>                0.0000
      8 O8          32.2318  35.0248  36.4883 O.2            1 <1>                0.0000
      9 O9          30.9173  36.4337  34.9366 O.2            1 <1>                0.0000
     10 Cl10        33.5776  37.0386  35.2044 Cl             1 <1>                0.0000
     11 C11         29.0712  38.1894  37.4258 C.ar           1 <1>                0.0000
     12 C12         29.4452  39.3582  36.6877 C.1            1 <1>                0.0000
     13 N13         29.7419  40.2853  36.1022 N.1            1 <1>                0.0000
     14 C14         27.7421  37.9970  37.8079 C.ar           1 <1>                0.0000
     15 H15         28.0696  35.0444  39.4097 H              1 <1>                0.0000
     16 H16         30.4112  35.3723  38.7334 H              1 <1>                0.0000
     17 H17         31.6143  38.4619  37.0213 H              1 <1>                0.0000
     18 H18         32.1227  37.2245  38.1955 H              1 <1>                0.0000
     19 H19         26.9932  38.7315  37.5509 H              1 <1>                0.0000
@<TRIPOS>BOND
    1    1    2 1     
    2    2    3 ar    
    3    2   14 ar    
    4    3    4 ar    
    5    3   15 1     
    6    4    5 ar    
    7    4   16 1     
    8    5    6 1     
    9    5   11 ar    
   10    6    7 1     
   11    6   17 1     
   12    6   18 1     
   13    7    8 2     
   14    7    9 2     
   15    7   10 1     
   16   11   12 1     
   17   11   14 ar    
   18   12   13 3     
   19   14   19 1     
@<TRIPOS>SUBSTRUCTURE
      1 ****           1
@<TRIPOS>COMMENT
> <Gold.Version>
2022.2.0

> <Gold.Id.Protein>
1qkm|1qkm_protein|mol2

> <Gold.Protein.RotatedTorsions>
[  496  491  490  487 ] final -138.50 input  -89.99 | X-H torsion

> <Gold.Protein.ActiveResidues>
 MET295  LEU298  THR299  LEU301  ALA302  GLU305  TRP335  MET336  LEU339  MET340 
 GLY342  LEU343  ARG346  PHE356  ILE373  ILE376  PHE377  LEU380  LYS471  GLY472 
 MET473  HIS475  LEU476  LEU477  ASN478  MET479  VAL484  VAL487 

> <Gold.Protein.RotatedAtoms>
   37.1642   34.0966   40.7261 H   0  0  0  0  0  0  0  0  0  0  0  0  # atno 496  bound_to 491 

> <Gold.Score>
     Score     S(PLP)   S(hbond)     S(cho)   S(metal)  DE(clash)   DE(tors)     intcor
     39.15     -39.95       0.00       0.00       0.00       0.00       0.46       0.14

> <Gold.PLP.Fitness>
39.1549

> <Gold.PLP.PLP>
-39.9476

> <Gold.PLP.part.hbond>
0.0000

> <Gold.PLP.part.metal>
0.0000

> <Gold.PLP.part.buried>
-3.2150

> <Gold.PLP.part.nonpolar>
-37.3745

> <Gold.PLP.part.repulsive>
0.1117

> <Gold.PLP.ligand.clash>
0.0000

> <Gold.PLP.ligand.torsion>
0.4640

> <Gold.PLP.Chemscore.Hbond>
0.0000

> <Gold.PLP.Chemscore.CHOScore>
0.0000

> <Gold.PLP.Chemscore.Metal>
0.0000

> <Gold.PLP.Chemscore.Internal.Correction>
0.1352

