#       Name:                EN300-89823_i001
#       Creating user name   aseyller
#       Creation time:       Fri Apr 21 17:28:57 2023


#       File generated by GOLD software.
#

@<TRIPOS>MOLECULE
EN300-89823_i001|Sulfonylchlorides|mol2|274|dock2
    19    19     1
SMALL
USER_CHARGES


@<TRIPOS>ATOM
      1 F1          33.2761  35.8318  35.7906 F              1 <1>                0.0000
      2 C2          32.3367  36.1825  36.6959 C.ar           1 <1>                0.0000
      3 C3          32.1735  35.4321  37.8497 C.ar           1 <1>                0.0000
      4 C4          31.2139  35.7849  38.7811 C.ar           1 <1>                0.0000
      5 C5          30.4126  36.8876  38.5677 C.ar           1 <1>                0.0000
      6 C6          29.3682  37.2697  39.5848 C.3            1 <1>                0.0000
      7 S7          28.2986  35.8431  39.9184 S.o2           1 <1>                0.0000
      8 O8          28.6673  34.7413  39.1003 O.2            1 <1>                0.0000
      9 O9          28.1015  35.6837  41.3166 O.2            1 <1>                0.0000
     10 Cl10        26.4862  36.3976  39.2199 Cl             1 <1>                0.0000
     11 C11         30.5709  37.6492  37.4084 C.ar           1 <1>                0.0000
     12 C12         29.7423  38.7949  37.1819 C.1            1 <1>                0.0000
     13 N13         29.0850  39.7038  37.0022 N.1            1 <1>                0.0000
     14 C14         31.5441  37.2919  36.4731 C.ar           1 <1>                0.0000
     15 H15         32.7980  34.5679  38.0219 H              1 <1>                0.0000
     16 H16         31.0914  35.1954  39.6778 H              1 <1>                0.0000
     17 H17         29.8570  37.5811  40.5080 H              1 <1>                0.0000
     18 H18         28.7668  38.0919  39.1969 H              1 <1>                0.0000
     19 H19         31.6717  37.8768  35.5742 H              1 <1>                0.0000
@<TRIPOS>BOND
    1    1    2 1     
    2    2    3 ar    
    3    2   14 ar    
    4    3    4 ar    
    5    3   15 1     
    6    4    5 ar    
    7    4   16 1     
    8    5    6 1     
    9    5   11 ar    
   10    6    7 1     
   11    6   17 1     
   12    6   18 1     
   13    7    8 2     
   14    7    9 2     
   15    7   10 1     
   16   11   12 1     
   17   11   14 ar    
   18   12   13 3     
   19   14   19 1     
@<TRIPOS>SUBSTRUCTURE
      1 ****           1
@<TRIPOS>COMMENT
> <Gold.Version>
2022.2.0

> <Gold.Id.Protein>
1qkm|1qkm_protein|mol2

> <Gold.Protein.RotatedTorsions>
[  496  491  490  487 ] final -122.95 input  -89.99 | X-H torsion

> <Gold.Protein.ActiveResidues>
 MET295  LEU298  THR299  LEU301  ALA302  GLU305  TRP335  MET336  LEU339  MET340 
 GLY342  LEU343  ARG346  PHE356  ILE373  ILE376  PHE377  LEU380  LYS471  GLY472 
 MET473  HIS475  LEU476  LEU477  ASN478  MET479  VAL484  VAL487 

> <Gold.Protein.RotatedAtoms>
   37.0501   34.3177   40.7831 H   0  0  0  0  0  0  0  0  0  0  0  0  # atno 496  bound_to 491 

> <Gold.Score>
     Score     S(PLP)   S(hbond)     S(cho)   S(metal)  DE(clash)   DE(tors)     intcor
     42.78     -42.93       0.00       0.00       0.00       0.00       0.14       0.14

> <Gold.PLP.Fitness>
42.7820

> <Gold.PLP.PLP>
-42.9302

> <Gold.PLP.part.hbond>
0.0000

> <Gold.PLP.part.metal>
0.0000

> <Gold.PLP.part.buried>
-3.9973

> <Gold.PLP.part.nonpolar>
-38.6936

> <Gold.PLP.part.repulsive>
0.1791

> <Gold.PLP.ligand.clash>
0.0000

> <Gold.PLP.ligand.torsion>
0.1417

> <Gold.PLP.Chemscore.Hbond>
0.0000

> <Gold.PLP.Chemscore.CHOScore>
0.0000

> <Gold.PLP.Chemscore.Metal>
0.0000

> <Gold.PLP.Chemscore.Internal.Correction>
0.1352

