#       Name:                EN300-89823_i001
#       Creating user name   aseyller
#       Creation time:       Fri Apr 21 17:29:05 2023


#       File generated by GOLD software.
#

@<TRIPOS>MOLECULE
EN300-89823_i001|Sulfonylchlorides|mol2|274|dock14
    19    19     1
SMALL
USER_CHARGES


@<TRIPOS>ATOM
      1 F1          33.5229  36.3780  35.6366 F              1 <1>                0.0000
      2 C2          32.4031  36.7078  36.3166 C.ar           1 <1>                0.0000
      3 C3          31.9012  35.8486  37.2815 C.ar           1 <1>                0.0000
      4 C4          30.7554  36.1794  37.9817 C.ar           1 <1>                0.0000
      5 C5          30.1042  37.3683  37.7244 C.ar           1 <1>                0.0000
      6 C6          28.8561  37.7261  38.4895 C.3            1 <1>                0.0000
      7 S7          28.5116  36.4389  39.7204 S.o2           1 <1>                0.0000
      8 O8          28.2981  35.1858  39.0851 O.2            1 <1>                0.0000
      9 O9          29.3948  36.5580  40.8272 O.2            1 <1>                0.0000
     10 Cl10        26.7023  36.9311  40.4716 Cl             1 <1>                0.0000
     11 C11         30.6035  38.2396  36.7545 C.ar           1 <1>                0.0000
     12 C12         29.9320  39.4750  36.4836 C.1            1 <1>                0.0000
     13 N13         29.3993  40.4551  36.2686 N.1            1 <1>                0.0000
     14 C14         31.7633  37.9036  36.0533 C.ar           1 <1>                0.0000
     15 H15         32.4069  34.9167  37.4870 H              1 <1>                0.0000
     16 H16         30.3691  35.5051  38.7318 H              1 <1>                0.0000
     17 H17         29.0005  38.6816  38.9938 H              1 <1>                0.0000
     18 H18         28.0161  37.8028  37.7992 H              1 <1>                0.0000
     19 H19         32.1547  38.5732  35.3018 H              1 <1>                0.0000
@<TRIPOS>BOND
    1    1    2 1     
    2    2    3 ar    
    3    2   14 ar    
    4    3    4 ar    
    5    3   15 1     
    6    4    5 ar    
    7    4   16 1     
    8    5    6 1     
    9    5   11 ar    
   10    6    7 1     
   11    6   17 1     
   12    6   18 1     
   13    7    8 2     
   14    7    9 2     
   15    7   10 1     
   16   11   12 1     
   17   11   14 ar    
   18   12   13 3     
   19   14   19 1     
@<TRIPOS>SUBSTRUCTURE
      1 ****           1
@<TRIPOS>COMMENT
> <Gold.Version>
2022.2.0

> <Gold.Id.Protein>
1qkm|1qkm_protein|mol2

> <Gold.Protein.RotatedTorsions>
[  496  491  490  487 ] final  -23.22 input  -89.99 | X-H torsion

> <Gold.Protein.ActiveResidues>
 MET295  LEU298  THR299  LEU301  ALA302  GLU305  TRP335  MET336  LEU339  MET340 
 GLY342  LEU343  ARG346  PHE356  ILE373  ILE376  PHE377  LEU380  LYS471  GLY472 
 MET473  HIS475  LEU476  LEU477  ASN478  MET479  VAL484  VAL487 

> <Gold.Protein.RotatedAtoms>
   36.2902   34.5048   41.9943 H   0  0  0  0  0  0  0  0  0  0  0  0  # atno 496  bound_to 491 

> <Gold.Score>
     Score     S(PLP)   S(hbond)     S(cho)   S(metal)  DE(clash)   DE(tors)     intcor
     38.36     -38.50       0.00       0.00       0.00       0.00       0.14       0.14

> <Gold.PLP.Fitness>
38.3621

> <Gold.PLP.PLP>
-38.4970

> <Gold.PLP.part.hbond>
0.0000

> <Gold.PLP.part.metal>
0.0000

> <Gold.PLP.part.buried>
-4.4556

> <Gold.PLP.part.nonpolar>
-34.2073

> <Gold.PLP.part.repulsive>
0.4352

> <Gold.PLP.ligand.clash>
0.0000

> <Gold.PLP.ligand.torsion>
0.1351

> <Gold.PLP.Chemscore.Hbond>
0.0000

> <Gold.PLP.Chemscore.CHOScore>
0.0000

> <Gold.PLP.Chemscore.Metal>
0.0000

> <Gold.PLP.Chemscore.Internal.Correction>
0.1352

