#       Name:                EN300-89823_i001
#       Creating user name   aseyller
#       Creation time:       Fri Apr 21 17:29:06 2023


#       File generated by GOLD software.
#

@<TRIPOS>MOLECULE
EN300-89823_i001|Sulfonylchlorides|mol2|274|dock15
    19    19     1
SMALL
USER_CHARGES


@<TRIPOS>ATOM
      1 F1          32.0160  32.9945  38.4117 F              1 <1>                0.0000
      2 C2          31.5936  34.2778  38.4011 C.ar           1 <1>                0.0000
      3 C3          32.2990  35.2325  37.6855 C.ar           1 <1>                0.0000
      4 C4          31.8728  36.5481  37.6700 C.ar           1 <1>                0.0000
      5 C5          30.7412  36.9188  38.3669 C.ar           1 <1>                0.0000
      6 C6          30.2791  38.3531  38.3476 C.3            1 <1>                0.0000
      7 S7          29.1922  38.6190  36.9197 S.o2           1 <1>                0.0000
      8 O8          29.1170  40.0017  36.6009 O.2            1 <1>                0.0000
      9 O9          29.4442  37.6478  35.9134 O.2            1 <1>                0.0000
     10 Cl10        27.3456  38.1636  37.6001 Cl             1 <1>                0.0000
     11 C11         30.0247  35.9632  39.0898 C.ar           1 <1>                0.0000
     12 C12         28.8493  36.3423  39.8146 C.1            1 <1>                0.0000
     13 N13         27.9169  36.6430  40.3897 N.1            1 <1>                0.0000
     14 C14         30.4561  34.6353  39.0988 C.ar           1 <1>                0.0000
     15 H15         33.1854  34.9479  37.1381 H              1 <1>                0.0000
     16 H16         32.4274  37.2872  37.1110 H              1 <1>                0.0000
     17 H17         29.7330  38.5713  39.2654 H              1 <1>                0.0000
     18 H18         31.1438  39.0126  38.2736 H              1 <1>                0.0000
     19 H19         29.9063  33.8912  39.6559 H              1 <1>                0.0000
@<TRIPOS>BOND
    1    1    2 1     
    2    2    3 ar    
    3    2   14 ar    
    4    3    4 ar    
    5    3   15 1     
    6    4    5 ar    
    7    4   16 1     
    8    5    6 1     
    9    5   11 ar    
   10    6    7 1     
   11    6   17 1     
   12    6   18 1     
   13    7    8 2     
   14    7    9 2     
   15    7   10 1     
   16   11   12 1     
   17   11   14 ar    
   18   12   13 3     
   19   14   19 1     
@<TRIPOS>SUBSTRUCTURE
      1 ****           1
@<TRIPOS>COMMENT
> <Gold.Version>
2022.2.0

> <Gold.Id.Protein>
1qkm|1qkm_protein|mol2

> <Gold.Protein.RotatedTorsions>
[  496  491  490  487 ] final   71.50 input  -89.99 | X-H torsion

> <Gold.Protein.ActiveResidues>
 MET295  LEU298  THR299  LEU301  ALA302  GLU305  TRP335  MET336  LEU339  MET340 
 GLY342  LEU343  ARG346  PHE356  ILE373  ILE376  PHE377  LEU380  LYS471  GLY472 
 MET473  HIS475  LEU476  LEU477  ASN478  MET479  VAL484  VAL487 

> <Gold.Protein.RotatedAtoms>
   36.6507   33.1834   42.2170 H   0  0  0  0  0  0  0  0  0  0  0  0  # atno 496  bound_to 491 

> <Gold.Score>
     Score     S(PLP)   S(hbond)     S(cho)   S(metal)  DE(clash)   DE(tors)     intcor
     39.24     -40.83       0.00       0.00       0.00       0.00       0.86       0.14

> <Gold.PLP.Fitness>
39.2446

> <Gold.PLP.PLP>
-40.8329

> <Gold.PLP.part.hbond>
0.0000

> <Gold.PLP.part.metal>
0.0000

> <Gold.PLP.part.buried>
-2.6386

> <Gold.PLP.part.nonpolar>
-38.7531

> <Gold.PLP.part.repulsive>
0.0531

> <Gold.PLP.ligand.clash>
0.0000

> <Gold.PLP.ligand.torsion>
0.8618

> <Gold.PLP.Chemscore.Hbond>
0.0000

> <Gold.PLP.Chemscore.CHOScore>
0.0000

> <Gold.PLP.Chemscore.Metal>
0.0000

> <Gold.PLP.Chemscore.Internal.Correction>
0.1352

