#       Name:                EN300-89823_i001
#       Creating user name   aseyller
#       Creation time:       Fri Apr 21 17:29:07 2023


#       File generated by GOLD software.
#

@<TRIPOS>MOLECULE
EN300-89823_i001|Sulfonylchlorides|mol2|274|dock17
    19    19     1
SMALL
USER_CHARGES


@<TRIPOS>ATOM
      1 F1          26.4427  36.6140  38.8225 F              1 <1>                0.0000
      2 C2          27.7320  36.7951  38.4620 C.ar           1 <1>                0.0000
      3 C3          28.0987  37.9252  37.7482 C.ar           1 <1>                0.0000
      4 C4          29.4166  38.1175  37.3756 C.ar           1 <1>                0.0000
      5 C5          30.3759  37.1850  37.7129 C.ar           1 <1>                0.0000
      6 C6          31.8112  37.3977  37.3058 C.3            1 <1>                0.0000
      7 S7          31.9410  37.3446  35.4972 S.o2           1 <1>                0.0000
      8 O8          33.3000  37.4353  35.0920 O.2            1 <1>                0.0000
      9 O9          31.0829  36.3450  34.9647 O.2            1 <1>                0.0000
     10 Cl10        31.1207  39.0849  34.8816 Cl             1 <1>                0.0000
     11 C11         30.0150  36.0442  38.4322 C.ar           1 <1>                0.0000
     12 C12         31.0065  35.0732  38.7854 C.1            1 <1>                0.0000
     13 N13         31.7931  34.3030  39.0655 N.1            1 <1>                0.0000
     14 C14         28.6841  35.8566  38.8103 C.ar           1 <1>                0.0000
     15 H15         27.3519  38.6585  37.4815 H              1 <1>                0.0000
     16 H16         29.6955  39.0000  36.8188 H              1 <1>                0.0000
     17 H17         32.1509  38.3688  37.6660 H              1 <1>                0.0000
     18 H18         32.4317  36.6125  37.7378 H              1 <1>                0.0000
     19 H19         28.3983  34.9763  39.3669 H              1 <1>                0.0000
@<TRIPOS>BOND
    1    1    2 1     
    2    2    3 ar    
    3    2   14 ar    
    4    3    4 ar    
    5    3   15 1     
    6    4    5 ar    
    7    4   16 1     
    8    5    6 1     
    9    5   11 ar    
   10    6    7 1     
   11    6   17 1     
   12    6   18 1     
   13    7    8 2     
   14    7    9 2     
   15    7   10 1     
   16   11   12 1     
   17   11   14 ar    
   18   12   13 3     
   19   14   19 1     
@<TRIPOS>SUBSTRUCTURE
      1 ****           1
@<TRIPOS>COMMENT
> <Gold.Version>
2022.2.0

> <Gold.Id.Protein>
1qkm|1qkm_protein|mol2

> <Gold.Protein.RotatedTorsions>
[  496  491  490  487 ] final  139.79 input  -89.99 | X-H torsion

> <Gold.Protein.ActiveResidues>
 MET295  LEU298  THR299  LEU301  ALA302  GLU305  TRP335  MET336  LEU339  MET340 
 GLY342  LEU343  ARG346  PHE356  ILE373  ILE376  PHE377  LEU380  LYS471  GLY472 
 MET473  HIS475  LEU476  LEU477  ASN478  MET479  VAL484  VAL487 

> <Gold.Protein.RotatedAtoms>
   37.2132   33.0239   41.3341 H   0  0  0  0  0  0  0  0  0  0  0  0  # atno 496  bound_to 491 

> <Gold.Score>
     Score     S(PLP)   S(hbond)     S(cho)   S(metal)  DE(clash)   DE(tors)     intcor
     39.20     -39.60       0.00       0.00       0.00       0.00       0.26       0.14

> <Gold.PLP.Fitness>
39.2016

> <Gold.PLP.PLP>
-39.5960

> <Gold.PLP.part.hbond>
0.0000

> <Gold.PLP.part.metal>
0.0000

> <Gold.PLP.part.buried>
-2.9924

> <Gold.PLP.part.nonpolar>
-36.9013

> <Gold.PLP.part.repulsive>
0.5692

> <Gold.PLP.ligand.clash>
0.0000

> <Gold.PLP.ligand.torsion>
0.2648

> <Gold.PLP.Chemscore.Hbond>
0.0000

> <Gold.PLP.Chemscore.CHOScore>
0.0000

> <Gold.PLP.Chemscore.Metal>
0.0000

> <Gold.PLP.Chemscore.Internal.Correction>
0.1352

