#       Name:                EN300-89823_i001
#       Creating user name   aseyller
#       Creation time:       Fri Apr 21 17:28:58 2023


#       File generated by GOLD software.
#

@<TRIPOS>MOLECULE
EN300-89823_i001|Sulfonylchlorides|mol2|274|dock4
    19    19     1
SMALL
USER_CHARGES


@<TRIPOS>ATOM
      1 F1          32.0424  32.9007  38.4983 F              1 <1>                0.0000
      2 C2          31.5314  34.1484  38.4134 C.ar           1 <1>                0.0000
      3 C3          32.3076  35.1814  37.9119 C.ar           1 <1>                0.0000
      4 C4          31.7913  36.4613  37.8219 C.ar           1 <1>                0.0000
      5 C5          30.4988  36.7181  38.2305 C.ar           1 <1>                0.0000
      6 C6          29.9390  38.1138  38.1306 C.3            1 <1>                0.0000
      7 S7          30.3229  38.8038  36.4975 S.o2           1 <1>                0.0000
      8 O8          31.7050  39.1204  36.4023 O.2            1 <1>                0.0000
      9 O9          29.6692  38.0624  35.4766 O.2            1 <1>                0.0000
     10 Cl10        29.3982  40.5996  36.4789 Cl             1 <1>                0.0000
     11 C11         29.7101  35.6831  38.7363 C.ar           1 <1>                0.0000
     12 C12         28.3678  35.9439  39.1616 C.1            1 <1>                0.0000
     13 N13         27.3029  36.1507  39.4989 N.1            1 <1>                0.0000
     14 C14         30.2339  34.3916  38.8210 C.ar           1 <1>                0.0000
     15 H15         33.3200  34.9861  37.5905 H              1 <1>                0.0000
     16 H16         32.4017  37.2619  37.4308 H              1 <1>                0.0000
     17 H17         28.8580  38.0822  38.2667 H              1 <1>                0.0000
     18 H18         30.3844  38.7402  38.9035 H              1 <1>                0.0000
     19 H19         29.6291  33.5866  39.2113 H              1 <1>                0.0000
@<TRIPOS>BOND
    1    1    2 1     
    2    2    3 ar    
    3    2   14 ar    
    4    3    4 ar    
    5    3   15 1     
    6    4    5 ar    
    7    4   16 1     
    8    5    6 1     
    9    5   11 ar    
   10    6    7 1     
   11    6   17 1     
   12    6   18 1     
   13    7    8 2     
   14    7    9 2     
   15    7   10 1     
   16   11   12 1     
   17   11   14 ar    
   18   12   13 3     
   19   14   19 1     
@<TRIPOS>SUBSTRUCTURE
      1 ****           1
@<TRIPOS>COMMENT
> <Gold.Version>
2022.2.0

> <Gold.Id.Protein>
1qkm|1qkm_protein|mol2

> <Gold.Protein.RotatedTorsions>
[  496  491  490  487 ] final   43.17 input  -89.99 | X-H torsion

> <Gold.Protein.ActiveResidues>
 MET295  LEU298  THR299  LEU301  ALA302  GLU305  TRP335  MET336  LEU339  MET340 
 GLY342  LEU343  ARG346  PHE356  ILE373  ILE376  PHE377  LEU380  LYS471  GLY472 
 MET473  HIS475  LEU476  LEU477  ASN478  MET479  VAL484  VAL487 

> <Gold.Protein.RotatedAtoms>
   36.4244   33.5538   42.3741 H   0  0  0  0  0  0  0  0  0  0  0  0  # atno 496  bound_to 491 

> <Gold.Score>
     Score     S(PLP)   S(hbond)     S(cho)   S(metal)  DE(clash)   DE(tors)     intcor
     39.92     -40.27       0.00       0.00       0.00       0.00       0.24       0.14

> <Gold.PLP.Fitness>
39.9185

> <Gold.PLP.PLP>
-40.2712

> <Gold.PLP.part.hbond>
0.0000

> <Gold.PLP.part.metal>
0.0000

> <Gold.PLP.part.buried>
-0.9103

> <Gold.PLP.part.nonpolar>
-38.9884

> <Gold.PLP.part.repulsive>
0.0201

> <Gold.PLP.ligand.clash>
0.0000

> <Gold.PLP.ligand.torsion>
0.2440

> <Gold.PLP.Chemscore.Hbond>
0.0000

> <Gold.PLP.Chemscore.CHOScore>
0.0000

> <Gold.PLP.Chemscore.Metal>
0.0000

> <Gold.PLP.Chemscore.Internal.Correction>
0.1352

