#       Name:                EN300-89823_i001
#       Creating user name   aseyller
#       Creation time:       Fri Apr 21 17:29:04 2023


#       File generated by GOLD software.
#

@<TRIPOS>MOLECULE
EN300-89823_i001|Sulfonylchlorides|mol2|274|dock12
    19    19     1
SMALL
USER_CHARGES


@<TRIPOS>ATOM
      1 F1          28.2350  36.5708  41.2429 F              1 <1>                0.0000
      2 C2          28.8278  36.5531  40.0291 C.ar           1 <1>                0.0000
      3 C3          28.5027  37.5156  39.0862 C.ar           1 <1>                0.0000
      4 C4          29.1053  37.5038  37.8414 C.ar           1 <1>                0.0000
      5 C5          30.0354  36.5334  37.5302 C.ar           1 <1>                0.0000
      6 C6          30.6906  36.5237  36.1731 C.3            1 <1>                0.0000
      7 S7          31.5281  38.1086  35.8947 S.o2           1 <1>                0.0000
      8 O8          30.5844  39.1700  35.8486 O.2            1 <1>                0.0000
      9 O9          32.6975  38.2024  36.6967 O.2            1 <1>                0.0000
     10 Cl10        32.2293  37.9830  34.0045 Cl             1 <1>                0.0000
     11 C11         30.3689  35.5607  38.4745 C.ar           1 <1>                0.0000
     12 C12         31.3338  34.5513  38.1570 C.1            1 <1>                0.0000
     13 N13         32.0992  33.7505  37.9053 N.1            1 <1>                0.0000
     14 C14         29.7614  35.5792  39.7315 C.ar           1 <1>                0.0000
     15 H15         27.7754  38.2776  39.3244 H              1 <1>                0.0000
     16 H16         28.8470  38.2563  37.1110 H              1 <1>                0.0000
     17 H17         31.4196  35.7147  36.1274 H              1 <1>                0.0000
     18 H18         29.9324  36.3736  35.4045 H              1 <1>                0.0000
     19 H19         30.0149  34.8296  40.4665 H              1 <1>                0.0000
@<TRIPOS>BOND
    1    1    2 1     
    2    2    3 ar    
    3    2   14 ar    
    4    3    4 ar    
    5    3   15 1     
    6    4    5 ar    
    7    4   16 1     
    8    5    6 1     
    9    5   11 ar    
   10    6    7 1     
   11    6   17 1     
   12    6   18 1     
   13    7    8 2     
   14    7    9 2     
   15    7   10 1     
   16   11   12 1     
   17   11   14 ar    
   18   12   13 3     
   19   14   19 1     
@<TRIPOS>SUBSTRUCTURE
      1 ****           1
@<TRIPOS>COMMENT
> <Gold.Version>
2022.2.0

> <Gold.Id.Protein>
1qkm|1qkm_protein|mol2

> <Gold.Protein.RotatedTorsions>
[  496  491  490  487 ] final  121.01 input  -89.99 | X-H torsion

> <Gold.Protein.ActiveResidues>
 MET295  LEU298  THR299  LEU301  ALA302  GLU305  TRP335  MET336  LEU339  MET340 
 GLY342  LEU343  ARG346  PHE356  ILE373  ILE376  PHE377  LEU380  LYS471  GLY472 
 MET473  HIS475  LEU476  LEU477  ASN478  MET479  VAL484  VAL487 

> <Gold.Protein.RotatedAtoms>
   37.0883   32.9448   41.6041 H   0  0  0  0  0  0  0  0  0  0  0  0  # atno 496  bound_to 491 

> <Gold.Score>
     Score     S(PLP)   S(hbond)     S(cho)   S(metal)  DE(clash)   DE(tors)     intcor
     37.17     -37.21       0.00       0.00       0.00       0.00       0.09       0.14

> <Gold.PLP.Fitness>
37.1655

> <Gold.PLP.PLP>
-37.2113

> <Gold.PLP.part.hbond>
0.0000

> <Gold.PLP.part.metal>
0.0000

> <Gold.PLP.part.buried>
-1.5767

> <Gold.PLP.part.nonpolar>
-35.5223

> <Gold.PLP.part.repulsive>
0.0388

> <Gold.PLP.ligand.clash>
0.0000

> <Gold.PLP.ligand.torsion>
0.0905

> <Gold.PLP.Chemscore.Hbond>
0.0000

> <Gold.PLP.Chemscore.CHOScore>
0.0000

> <Gold.PLP.Chemscore.Metal>
0.0000

> <Gold.PLP.Chemscore.Internal.Correction>
0.1352

