#       Name:                EN300-89823_i001
#       Creating user name   aseyller
#       Creation time:       Fri Apr 21 17:29:03 2023


#       File generated by GOLD software.
#

@<TRIPOS>MOLECULE
EN300-89823_i001|Sulfonylchlorides|mol2|274|dock11
    19    19     1
SMALL
USER_CHARGES


@<TRIPOS>ATOM
      1 F1          32.9313  34.9236  37.0004 F              1 <1>                0.0000
      2 C2          31.8984  35.5227  37.6322 C.ar           1 <1>                0.0000
      3 C3          31.3117  34.9135  38.7302 C.ar           1 <1>                0.0000
      4 C4          30.2539  35.5208  39.3821 C.ar           1 <1>                0.0000
      5 C5          29.7758  36.7385  38.9435 C.ar           1 <1>                0.0000
      6 C6          28.6233  37.3978  39.6564 C.3            1 <1>                0.0000
      7 S7          27.2479  36.2235  39.7972 S.o2           1 <1>                0.0000
      8 O8          26.7070  35.9330  38.5157 O.2            1 <1>                0.0000
      9 O9          27.5722  35.1826  40.7086 O.2            1 <1>                0.0000
     10 Cl10        25.7893  37.2649  40.7290 Cl             1 <1>                0.0000
     11 C11         30.3615  37.3591  37.8386 C.ar           1 <1>                0.0000
     12 C12         29.8697  38.6231  37.3793 C.1            1 <1>                0.0000
     13 N13         29.4795  39.6258  37.0150 N.1            1 <1>                0.0000
     14 C14         31.4323  36.7445  37.1864 C.ar           1 <1>                0.0000
     15 H15         31.6819  33.9604  39.0778 H              1 <1>                0.0000
     16 H16         29.8007  35.0403  40.2367 H              1 <1>                0.0000
     17 H17         28.9409  37.7064  40.6524 H              1 <1>                0.0000
     18 H18         28.2986  38.2716  39.0915 H              1 <1>                0.0000
     19 H19         31.8898  37.2193  36.3311 H              1 <1>                0.0000
@<TRIPOS>BOND
    1    1    2 1     
    2    2    3 ar    
    3    2   14 ar    
    4    3    4 ar    
    5    3   15 1     
    6    4    5 ar    
    7    4   16 1     
    8    5    6 1     
    9    5   11 ar    
   10    6    7 1     
   11    6   17 1     
   12    6   18 1     
   13    7    8 2     
   14    7    9 2     
   15    7   10 1     
   16   11   12 1     
   17   11   14 ar    
   18   12   13 3     
   19   14   19 1     
@<TRIPOS>SUBSTRUCTURE
      1 ****           1
@<TRIPOS>COMMENT
> <Gold.Version>
2022.2.0

> <Gold.Id.Protein>
1qkm|1qkm_protein|mol2

> <Gold.Protein.RotatedTorsions>
[  496  491  490  487 ] final  103.16 input  -89.99 | X-H torsion

> <Gold.Protein.ActiveResidues>
 MET295  LEU298  THR299  LEU301  ALA302  GLU305  TRP335  MET336  LEU339  MET340 
 GLY342  LEU343  ARG346  PHE356  ILE373  ILE376  PHE377  LEU380  LYS471  GLY472 
 MET473  HIS475  LEU476  LEU477  ASN478  MET479  VAL484  VAL487 

> <Gold.Protein.RotatedAtoms>
   36.9399   32.9578   41.8560 H   0  0  0  0  0  0  0  0  0  0  0  0  # atno 496  bound_to 491 

> <Gold.Score>
     Score     S(PLP)   S(hbond)     S(cho)   S(metal)  DE(clash)   DE(tors)     intcor
     40.57     -40.69       0.00       0.00       0.00       0.00       0.13       0.14

> <Gold.PLP.Fitness>
40.5741

> <Gold.PLP.PLP>
-40.6928

> <Gold.PLP.part.hbond>
0.0000

> <Gold.PLP.part.metal>
0.0000

> <Gold.PLP.part.buried>
-3.6337

> <Gold.PLP.part.nonpolar>
-37.4575

> <Gold.PLP.part.repulsive>
0.1627

> <Gold.PLP.ligand.clash>
0.0000

> <Gold.PLP.ligand.torsion>
0.1270

> <Gold.PLP.Chemscore.Hbond>
0.0000

> <Gold.PLP.Chemscore.CHOScore>
0.0000

> <Gold.PLP.Chemscore.Metal>
0.0000

> <Gold.PLP.Chemscore.Internal.Correction>
0.1352

