#       Name:                EN300-89823_i001
#       Creating user name   aseyller
#       Creation time:       Fri Apr 21 17:29:01 2023


#       File generated by GOLD software.
#

@<TRIPOS>MOLECULE
EN300-89823_i001|Sulfonylchlorides|mol2|274|dock8
    19    19     1
SMALL
USER_CHARGES


@<TRIPOS>ATOM
      1 F1          31.6538  38.5227  34.7249 F              1 <1>                0.0000
      2 C2          31.0715  38.1414  35.8828 C.ar           1 <1>                0.0000
      3 C3          30.0196  38.8783  36.4038 C.ar           1 <1>                0.0000
      4 C4          29.4185  38.4941  37.5886 C.ar           1 <1>                0.0000
      5 C5          29.8621  37.3732  38.2598 C.ar           1 <1>                0.0000
      6 C6          29.2047  36.9568  39.5504 C.3            1 <1>                0.0000
      7 S7          27.4582  36.5744  39.2433 S.o2           1 <1>                0.0000
      8 O8          26.8438  37.6150  38.4958 O.2            1 <1>                0.0000
      9 O9          27.3046  35.2128  38.8667 O.2            1 <1>                0.0000
     10 Cl10        26.5895  36.6888  41.0634 Cl             1 <1>                0.0000
     11 C11         30.9207  36.6250  37.7414 C.ar           1 <1>                0.0000
     12 C12         31.3851  35.4606  38.4336 C.1            1 <1>                0.0000
     13 N13         31.7533  34.5368  38.9827 N.1            1 <1>                0.0000
     14 C14         31.5215  37.0141  36.5426 C.ar           1 <1>                0.0000
     15 H15         29.6682  39.7565  35.8827 H              1 <1>                0.0000
     16 H16         28.5998  39.0731  37.9897 H              1 <1>                0.0000
     17 H17         29.7061  36.0732  39.9451 H              1 <1>                0.0000
     18 H18         29.2770  37.7691  40.2736 H              1 <1>                0.0000
     19 H19         32.3408  36.4397  36.1362 H              1 <1>                0.0000
@<TRIPOS>BOND
    1    1    2 1     
    2    2    3 ar    
    3    2   14 ar    
    4    3    4 ar    
    5    3   15 1     
    6    4    5 ar    
    7    4   16 1     
    8    5    6 1     
    9    5   11 ar    
   10    6    7 1     
   11    6   17 1     
   12    6   18 1     
   13    7    8 2     
   14    7    9 2     
   15    7   10 1     
   16   11   12 1     
   17   11   14 ar    
   18   12   13 3     
   19   14   19 1     
@<TRIPOS>SUBSTRUCTURE
      1 ****           1
@<TRIPOS>COMMENT
> <Gold.Version>
2022.2.0

> <Gold.Id.Protein>
1qkm|1qkm_protein|mol2

> <Gold.Protein.RotatedTorsions>
[  496  491  490  487 ] final -170.98 input  -89.99 | X-H torsion

> <Gold.Protein.ActiveResidues>
 MET295  LEU298  THR299  LEU301  ALA302  GLU305  TRP335  MET336  LEU339  MET340 
 GLY342  LEU343  ARG346  PHE356  ILE373  ILE376  PHE377  LEU380  LYS471  GLY472 
 MET473  HIS475  LEU476  LEU477  ASN478  MET479  VAL484  VAL487 

> <Gold.Protein.RotatedAtoms>
   37.3064   33.5942   40.8018 H   0  0  0  0  0  0  0  0  0  0  0  0  # atno 496  bound_to 491 

> <Gold.Score>
     Score     S(PLP)   S(hbond)     S(cho)   S(metal)  DE(clash)   DE(tors)     intcor
     40.12     -40.75       0.00       0.00       0.00       0.00       0.38       0.14

> <Gold.PLP.Fitness>
40.1213

> <Gold.PLP.PLP>
-40.7479

> <Gold.PLP.part.hbond>
0.0000

> <Gold.PLP.part.metal>
0.0000

> <Gold.PLP.part.buried>
-3.6303

> <Gold.PLP.part.nonpolar>
-37.7562

> <Gold.PLP.part.repulsive>
0.1552

> <Gold.PLP.ligand.clash>
0.0000

> <Gold.PLP.ligand.torsion>
0.3809

> <Gold.PLP.Chemscore.Hbond>
0.0000

> <Gold.PLP.Chemscore.CHOScore>
0.0000

> <Gold.PLP.Chemscore.Metal>
0.0000

> <Gold.PLP.Chemscore.Internal.Correction>
0.1352

