#       Name:                EN300-89823_i001
#       Creating user name   aseyller
#       Creation time:       Fri Apr 21 17:29:02 2023


#       File generated by GOLD software.
#

@<TRIPOS>MOLECULE
EN300-89823_i001|Sulfonylchlorides|mol2|274|dock9
    19    19     1
SMALL
USER_CHARGES


@<TRIPOS>ATOM
      1 F1          25.8246  36.9832  40.7354 F              1 <1>                0.0000
      2 C2          26.7488  36.9444  39.7508 C.ar           1 <1>                0.0000
      3 C3          26.5775  37.7133  38.6104 C.ar           1 <1>                0.0000
      4 C4          27.5194  37.6788  37.5982 C.ar           1 <1>                0.0000
      5 C5          28.6368  36.8784  37.7175 C.ar           1 <1>                0.0000
      6 C6          29.6615  36.8434  36.6130 C.3            1 <1>                0.0000
      7 S7          30.6816  38.3416  36.6869 S.o2           1 <1>                0.0000
      8 O8          29.9633  39.4043  37.2985 O.2            1 <1>                0.0000
      9 O9          32.0059  38.0238  37.0924 O.2            1 <1>                0.0000
     10 Cl10        30.8749  38.9154  34.7598 Cl             1 <1>                0.0000
     11 C11         28.8171  36.1012  38.8632 C.ar           1 <1>                0.0000
     12 C12         29.9752  35.2689  38.9926 C.1            1 <1>                0.0000
     13 N13         30.8939  34.6087  39.0952 N.1            1 <1>                0.0000
     14 C14         27.8660  36.1428  39.8846 C.ar           1 <1>                0.0000
     15 H15         25.7048  38.3417  38.5116 H              1 <1>                0.0000
     16 H16         27.3795  38.2799  36.7118 H              1 <1>                0.0000
     17 H17         30.2961  35.9655  36.7338 H              1 <1>                0.0000
     18 H18         29.1551  36.7959  35.6489 H              1 <1>                0.0000
     19 H19         27.9995  35.5440  40.7734 H              1 <1>                0.0000
@<TRIPOS>BOND
    1    1    2 1     
    2    2    3 ar    
    3    2   14 ar    
    4    3    4 ar    
    5    3   15 1     
    6    4    5 ar    
    7    4   16 1     
    8    5    6 1     
    9    5   11 ar    
   10    6    7 1     
   11    6   17 1     
   12    6   18 1     
   13    7    8 2     
   14    7    9 2     
   15    7   10 1     
   16   11   12 1     
   17   11   14 ar    
   18   12   13 3     
   19   14   19 1     
@<TRIPOS>SUBSTRUCTURE
      1 ****           1
@<TRIPOS>COMMENT
> <Gold.Version>
2022.2.0

> <Gold.Id.Protein>
1qkm|1qkm_protein|mol2

> <Gold.Protein.RotatedTorsions>
[  496  491  490  487 ] final   27.21 input  -89.99 | X-H torsion

> <Gold.Protein.ActiveResidues>
 MET295  LEU298  THR299  LEU301  ALA302  GLU305  TRP335  MET336  LEU339  MET340 
 GLY342  LEU343  ARG346  PHE356  ILE373  ILE376  PHE377  LEU380  LYS471  GLY472 
 MET473  HIS475  LEU476  LEU477  ASN478  MET479  VAL484  VAL487 

> <Gold.Protein.RotatedAtoms>
   36.3327   33.7990   42.3764 H   0  0  0  0  0  0  0  0  0  0  0  0  # atno 496  bound_to 491 

> <Gold.Score>
     Score     S(PLP)   S(hbond)     S(cho)   S(metal)  DE(clash)   DE(tors)     intcor
     38.08     -39.06       0.00       0.00       0.00       0.00       0.56       0.14

> <Gold.PLP.Fitness>
38.0756

> <Gold.PLP.PLP>
-39.0640

> <Gold.PLP.part.hbond>
0.0000

> <Gold.PLP.part.metal>
0.0000

> <Gold.PLP.part.buried>
-2.0169

> <Gold.PLP.part.nonpolar>
-38.0915

> <Gold.PLP.part.repulsive>
0.0988

> <Gold.PLP.ligand.clash>
0.0000

> <Gold.PLP.ligand.torsion>
0.5618

> <Gold.PLP.Chemscore.Hbond>
0.0000

> <Gold.PLP.Chemscore.CHOScore>
0.0000

> <Gold.PLP.Chemscore.Metal>
0.0000

> <Gold.PLP.Chemscore.Internal.Correction>
0.1352

