#       Name:                EN300-89823_i001
#       Creating user name   aseyller
#       Creation time:       Fri Apr 21 17:28:57 2023


#       File generated by GOLD software.
#

@<TRIPOS>MOLECULE
EN300-89823_i001|Sulfonylchlorides|mol2|274|dock1
    19    19     1
SMALL
USER_CHARGES


@<TRIPOS>ATOM
      1 F1          32.2674  37.7345  34.3017 F              1 <1>                0.0000
      2 C2          31.8143  37.3766  35.5230 C.ar           1 <1>                0.0000
      3 C3          31.0828  38.2774  36.2810 C.ar           1 <1>                0.0000
      4 C4          30.6157  37.9181  37.5322 C.ar           1 <1>                0.0000
      5 C5          30.8746  36.6593  38.0341 C.ar           1 <1>                0.0000
      6 C6          30.3637  36.2707  39.3976 C.3            1 <1>                0.0000
      7 S7          28.5516  36.1931  39.3648 S.o2           1 <1>                0.0000
      8 O8          28.0180  37.2979  38.6478 O.2            1 <1>                0.0000
      9 O9          28.1139  34.8674  39.0996 O.2            1 <1>                0.0000
     10 Cl10        27.9980  36.5270  41.2785 Cl             1 <1>                0.0000
     11 C11         31.6101  35.7458  37.2767 C.ar           1 <1>                0.0000
     12 C12         31.8815  34.4378  37.7925 C.1            1 <1>                0.0000
     13 N13         32.0967  33.4001  38.2016 N.1            1 <1>                0.0000
     14 C14         32.0758  36.1113  36.0122 C.ar           1 <1>                0.0000
     15 H15         30.8772  39.2641  35.8931 H              1 <1>                0.0000
     16 H16         30.0469  38.6251  38.1180 H              1 <1>                0.0000
     17 H17         30.7642  35.2946  39.6711 H              1 <1>                0.0000
     18 H18         30.6823  37.0125  40.1300 H              1 <1>                0.0000
     19 H19         32.6454  35.4094  35.4212 H              1 <1>                0.0000
@<TRIPOS>BOND
    1    1    2 1     
    2    2    3 ar    
    3    2   14 ar    
    4    3    4 ar    
    5    3   15 1     
    6    4    5 ar    
    7    4   16 1     
    8    5    6 1     
    9    5   11 ar    
   10    6    7 1     
   11    6   17 1     
   12    6   18 1     
   13    7    8 2     
   14    7    9 2     
   15    7   10 1     
   16   11   12 1     
   17   11   14 ar    
   18   12   13 3     
   19   14   19 1     
@<TRIPOS>SUBSTRUCTURE
      1 ****           1
@<TRIPOS>COMMENT
> <Gold.Version>
2022.2.0

> <Gold.Id.Protein>
1qkm|1qkm_protein|mol2

> <Gold.Protein.RotatedTorsions>
[  496  491  490  487 ] final -148.55 input  -89.99 | X-H torsion

> <Gold.Protein.ActiveResidues>
 MET295  LEU298  THR299  LEU301  ALA302  GLU305  TRP335  MET336  LEU339  MET340 
 GLY342  LEU343  ARG346  PHE356  ILE373  ILE376  PHE377  LEU380  LYS471  GLY472 
 MET473  HIS475  LEU476  LEU477  ASN478  MET479  VAL484  VAL487 

> <Gold.Protein.RotatedAtoms>
   37.2237   33.9425   40.7214 H   0  0  0  0  0  0  0  0  0  0  0  0  # atno 496  bound_to 491 

> <Gold.Score>
     Score     S(PLP)   S(hbond)     S(cho)   S(metal)  DE(clash)   DE(tors)     intcor
     40.47     -41.36       0.00       0.00       0.00       0.00       0.52       0.14

> <Gold.PLP.Fitness>
40.4681

> <Gold.PLP.PLP>
-41.3589

> <Gold.PLP.part.hbond>
0.0000

> <Gold.PLP.part.metal>
0.0000

> <Gold.PLP.part.buried>
-3.1476

> <Gold.PLP.part.nonpolar>
-37.9975

> <Gold.PLP.part.repulsive>
0.0491

> <Gold.PLP.ligand.clash>
0.0000

> <Gold.PLP.ligand.torsion>
0.5150

> <Gold.PLP.Chemscore.Hbond>
0.0000

> <Gold.PLP.Chemscore.CHOScore>
0.0000

> <Gold.PLP.Chemscore.Metal>
0.0000

> <Gold.PLP.Chemscore.Internal.Correction>
0.1393

