#       Name:                EN300-89823_i001
#       Creating user name   aseyller
#       Creation time:       Fri Apr 21 17:29:08 2023


#       File generated by GOLD software.
#

@<TRIPOS>MOLECULE
EN300-89823_i001|Sulfonylchlorides|mol2|274|dock18
    19    19     1
SMALL
USER_CHARGES


@<TRIPOS>ATOM
      1 F1          33.5456  36.5735  34.9516 F              1 <1>                0.0000
      2 C2          32.6479  36.7985  35.9357 C.ar           1 <1>                0.0000
      3 C3          32.6041  35.9588  37.0375 C.ar           1 <1>                0.0000
      4 C4          31.6879  36.1828  38.0490 C.ar           1 <1>                0.0000
      5 C5          30.8110  37.2450  37.9679 C.ar           1 <1>                0.0000
      6 C6          29.8142  37.4866  39.0720 C.3            1 <1>                0.0000
      7 S7          28.7248  36.0447  39.2292 S.o2           1 <1>                0.0000
      8 O8          27.4198  36.3519  38.7579 O.2            1 <1>                0.0000
      9 O9          29.3960  34.8644  38.8103 O.2            1 <1>                0.0000
     10 Cl10        28.4910  35.8044  41.2212 Cl             1 <1>                0.0000
     11 C11         30.8490  38.0958  36.8617 C.ar           1 <1>                0.0000
     12 C12         29.9415  39.2000  36.7724 C.1            1 <1>                0.0000
     13 N13         29.2217  40.0760  36.7015 N.1            1 <1>                0.0000
     14 C14         31.7788  37.8686  35.8452 C.ar           1 <1>                0.0000
     15 H15         33.2881  35.1259  37.1063 H              1 <1>                0.0000
     16 H16         31.6585  35.5243  38.9045 H              1 <1>                0.0000
     17 H17         30.3438  37.6459  40.0112 H              1 <1>                0.0000
     18 H18         29.2181  38.3684  38.8368 H              1 <1>                0.0000
     19 H19         31.8133  38.5231  34.9868 H              1 <1>                0.0000
@<TRIPOS>BOND
    1    1    2 1     
    2    2    3 ar    
    3    2   14 ar    
    4    3    4 ar    
    5    3   15 1     
    6    4    5 ar    
    7    4   16 1     
    8    5    6 1     
    9    5   11 ar    
   10    6    7 1     
   11    6   17 1     
   12    6   18 1     
   13    7    8 2     
   14    7    9 2     
   15    7   10 1     
   16   11   12 1     
   17   11   14 ar    
   18   12   13 3     
   19   14   19 1     
@<TRIPOS>SUBSTRUCTURE
      1 ****           1
@<TRIPOS>COMMENT
> <Gold.Version>
2022.2.0

> <Gold.Id.Protein>
1qkm|1qkm_protein|mol2

> <Gold.Protein.RotatedTorsions>
[  496  491  490  487 ] final  141.90 input  -89.99 | X-H torsion

> <Gold.Protein.ActiveResidues>
 MET295  LEU298  THR299  LEU301  ALA302  GLU305  TRP335  MET336  LEU339  MET340 
 GLY342  LEU343  ARG346  PHE356  ILE373  ILE376  PHE377  LEU380  LYS471  GLY472 
 MET473  HIS475  LEU476  LEU477  ASN478  MET479  VAL484  VAL487 

> <Gold.Protein.RotatedAtoms>
   37.2245   33.0384   41.3048 H   0  0  0  0  0  0  0  0  0  0  0  0  # atno 496  bound_to 491 

> <Gold.Score>
     Score     S(PLP)   S(hbond)     S(cho)   S(metal)  DE(clash)   DE(tors)     intcor
     43.45     -44.08       0.00       0.00       0.00       0.00       0.38       0.14

> <Gold.PLP.Fitness>
43.4515

> <Gold.PLP.PLP>
-44.0812

> <Gold.PLP.part.hbond>
0.0000

> <Gold.PLP.part.metal>
0.0000

> <Gold.PLP.part.buried>
-4.3895

> <Gold.PLP.part.nonpolar>
-40.2863

> <Gold.PLP.part.repulsive>
0.0475

> <Gold.PLP.ligand.clash>
0.0000

> <Gold.PLP.ligand.torsion>
0.3824

> <Gold.PLP.Chemscore.Hbond>
0.0000

> <Gold.PLP.Chemscore.CHOScore>
0.0000

> <Gold.PLP.Chemscore.Metal>
0.0000

> <Gold.PLP.Chemscore.Internal.Correction>
0.1352

