#       Name:                EN300-89823_i001
#       Creating user name   aseyller
#       Creation time:       Fri Apr 21 17:29:09 2023


#       File generated by GOLD software.
#

@<TRIPOS>MOLECULE
EN300-89823_i001|Sulfonylchlorides|mol2|274|dock20
    19    19     1
SMALL
USER_CHARGES


@<TRIPOS>ATOM
      1 F1          29.7575  40.2024  36.2669 F              1 <1>                0.0000
      2 C2          29.3778  39.0989  36.9475 C.ar           1 <1>                0.0000
      3 C3          28.0392  38.8952  37.2437 C.ar           1 <1>                0.0000
      4 C4          27.6429  37.7680  37.9401 C.ar           1 <1>                0.0000
      5 C5          28.5783  36.8378  38.3444 C.ar           1 <1>                0.0000
      6 C6          28.1432  35.6103  39.1026 C.3            1 <1>                0.0000
      7 S7          27.8449  36.0457  40.8381 S.o2           1 <1>                0.0000
      8 O8          27.6020  34.8779  41.6106 O.2            1 <1>                0.0000
      9 O9          28.7726  37.0309  41.2717 O.2            1 <1>                0.0000
     10 Cl10        26.0691  37.0081  40.8184 Cl             1 <1>                0.0000
     11 C11         29.9286  37.0352  38.0495 C.ar           1 <1>                0.0000
     12 C12         30.9038  36.0729  38.4662 C.1            1 <1>                0.0000
     13 N13         31.6774  35.3096  38.7967 N.1            1 <1>                0.0000
     14 C14         30.3235  38.1724  37.3421 C.ar           1 <1>                0.0000
     15 H15         27.3027  39.6200  36.9297 H              1 <1>                0.0000
     16 H16         26.5983  37.6156  38.1684 H              1 <1>                0.0000
     17 H17         27.2257  35.2183  38.6636 H              1 <1>                0.0000
     18 H18         28.9250  34.8527  39.0473 H              1 <1>                0.0000
     19 H19         31.3665  38.3311  37.1109 H              1 <1>                0.0000
@<TRIPOS>BOND
    1    1    2 1     
    2    2    3 ar    
    3    2   14 ar    
    4    3    4 ar    
    5    3   15 1     
    6    4    5 ar    
    7    4   16 1     
    8    5    6 1     
    9    5   11 ar    
   10    6    7 1     
   11    6   17 1     
   12    6   18 1     
   13    7    8 2     
   14    7    9 2     
   15    7   10 1     
   16   11   12 1     
   17   11   14 ar    
   18   12   13 3     
   19   14   19 1     
@<TRIPOS>SUBSTRUCTURE
      1 ****           1
@<TRIPOS>COMMENT
> <Gold.Version>
2022.2.0

> <Gold.Id.Protein>
1qkm|1qkm_protein|mol2

> <Gold.Protein.RotatedTorsions>
[  496  491  490  487 ] final -120.03 input  -89.99 | X-H torsion

> <Gold.Protein.ActiveResidues>
 MET295  LEU298  THR299  LEU301  ALA302  GLU305  TRP335  MET336  LEU339  MET340 
 GLY342  LEU343  ARG346  PHE356  ILE373  ILE376  PHE377  LEU380  LYS471  GLY472 
 MET473  HIS475  LEU476  LEU477  ASN478  MET479  VAL484  VAL487 

> <Gold.Protein.RotatedAtoms>
   37.0263   34.3557   40.8002 H   0  0  0  0  0  0  0  0  0  0  0  0  # atno 496  bound_to 491 

> <Gold.Score>
     Score     S(PLP)   S(hbond)     S(cho)   S(metal)  DE(clash)   DE(tors)     intcor
     38.49     -39.48       0.00       0.00       0.00       0.00       0.56       0.14

> <Gold.PLP.Fitness>
38.4906

> <Gold.PLP.PLP>
-39.4779

> <Gold.PLP.part.hbond>
0.0000

> <Gold.PLP.part.metal>
0.0000

> <Gold.PLP.part.buried>
-2.7715

> <Gold.PLP.part.nonpolar>
-39.6651

> <Gold.PLP.part.repulsive>
3.2524

> <Gold.PLP.ligand.clash>
0.0000

> <Gold.PLP.ligand.torsion>
0.5612

> <Gold.PLP.Chemscore.Hbond>
0.0000

> <Gold.PLP.Chemscore.CHOScore>
0.0000

> <Gold.PLP.Chemscore.Metal>
0.0000

> <Gold.PLP.Chemscore.Internal.Correction>
0.1352

