#       Name:                EN300-89823_i001
#       Creating user name   aseyller
#       Creation time:       Fri Apr 21 17:29:08 2023


#       File generated by GOLD software.
#

@<TRIPOS>MOLECULE
EN300-89823_i001|Sulfonylchlorides|mol2|274|dock19
    19    19     1
SMALL
USER_CHARGES


@<TRIPOS>ATOM
      1 F1          33.5226  35.5629  36.8175 F              1 <1>                0.0000
      2 C2          32.3795  36.0317  37.3640 C.ar           1 <1>                0.0000
      3 C3          31.8665  35.4409  38.5081 C.ar           1 <1>                0.0000
      4 C4          30.6968  35.9154  39.0733 C.ar           1 <1>                0.0000
      5 C5          30.0327  36.9812  38.5017 C.ar           1 <1>                0.0000
      6 C6          28.7587  37.4961  39.1204 C.3            1 <1>                0.0000
      7 S7          27.7968  36.1030  39.7719 S.o2           1 <1>                0.0000
      8 O8          26.4393  36.4789  39.9601 O.2            1 <1>                0.0000
      9 O9          28.1369  34.9015  39.0935 O.2            1 <1>                0.0000
     10 Cl10        28.5035  35.8345  41.6451 Cl             1 <1>                0.0000
     11 C11         30.5431  37.5822  37.3496 C.ar           1 <1>                0.0000
     12 C12         29.8583  38.6890  36.7523 C.1            1 <1>                0.0000
     13 N13         29.3150  39.5669  36.2785 N.1            1 <1>                0.0000
     14 C14         31.7268  37.1029  36.7851 C.ar           1 <1>                0.0000
     15 H15         32.3821  34.6064  38.9598 H              1 <1>                0.0000
     16 H16         30.3020  35.4501  39.9644 H              1 <1>                0.0000
     17 H17         29.0004  38.1819  39.9324 H              1 <1>                0.0000
     18 H18         28.1734  38.0198  38.3645 H              1 <1>                0.0000
     19 H19         32.1269  37.5634  35.8939 H              1 <1>                0.0000
@<TRIPOS>BOND
    1    1    2 1     
    2    2    3 ar    
    3    2   14 ar    
    4    3    4 ar    
    5    3   15 1     
    6    4    5 ar    
    7    4   16 1     
    8    5    6 1     
    9    5   11 ar    
   10    6    7 1     
   11    6   17 1     
   12    6   18 1     
   13    7    8 2     
   14    7    9 2     
   15    7   10 1     
   16   11   12 1     
   17   11   14 ar    
   18   12   13 3     
   19   14   19 1     
@<TRIPOS>SUBSTRUCTURE
      1 ****           1
@<TRIPOS>COMMENT
> <Gold.Version>
2022.2.0

> <Gold.Id.Protein>
1qkm|1qkm_protein|mol2

> <Gold.Protein.RotatedTorsions>
[  496  491  490  487 ] final  -70.20 input  -89.99 | X-H torsion

> <Gold.Protein.ActiveResidues>
 MET295  LEU298  THR299  LEU301  ALA302  GLU305  TRP335  MET336  LEU339  MET340 
 GLY342  LEU343  ARG346  PHE356  ILE373  ILE376  PHE377  LEU380  LYS471  GLY472 
 MET473  HIS475  LEU476  LEU477  ASN478  MET479  VAL484  VAL487 

> <Gold.Protein.RotatedAtoms>
   36.5800   34.7325   41.3390 H   0  0  0  0  0  0  0  0  0  0  0  0  # atno 496  bound_to 491 

> <Gold.Score>
     Score     S(PLP)   S(hbond)     S(cho)   S(metal)  DE(clash)   DE(tors)     intcor
     39.48     -40.97       0.00       0.00       0.00       0.00       0.82       0.14

> <Gold.PLP.Fitness>
39.4790

> <Gold.PLP.PLP>
-40.9745

> <Gold.PLP.part.hbond>
0.0000

> <Gold.PLP.part.metal>
0.0000

> <Gold.PLP.part.buried>
-3.8025

> <Gold.PLP.part.nonpolar>
-37.5416

> <Gold.PLP.part.repulsive>
0.1005

> <Gold.PLP.ligand.clash>
0.0000

> <Gold.PLP.ligand.torsion>
0.8154

> <Gold.PLP.Chemscore.Hbond>
0.0000

> <Gold.PLP.Chemscore.CHOScore>
0.0000

> <Gold.PLP.Chemscore.Metal>
0.0000

> <Gold.PLP.Chemscore.Internal.Correction>
0.1352

