#       Name:                EN300-89823_i001
#       Creating user name   aseyller
#       Creation time:       Fri Apr 21 17:29:07 2023


#       File generated by GOLD software.
#

@<TRIPOS>MOLECULE
EN300-89823_i001|Sulfonylchlorides|mol2|274|dock16
    19    19     1
SMALL
USER_CHARGES


@<TRIPOS>ATOM
      1 F1          26.7920  35.8730  40.2431 F              1 <1>                0.0000
      2 C2          27.9564  36.0880  39.5926 C.ar           1 <1>                0.0000
      3 C3          28.2041  37.3190  39.0058 C.ar           1 <1>                0.0000
      4 C4          29.3938  37.5465  38.3383 C.ar           1 <1>                0.0000
      5 C5          30.3429  36.5487  38.2527 C.ar           1 <1>                0.0000
      6 C6          31.6385  36.8000  37.5251 C.3            1 <1>                0.0000
      7 S7          31.3013  37.6851  35.9780 S.o2           1 <1>                0.0000
      8 O8          30.3184  36.9988  35.2149 O.2            1 <1>                0.0000
      9 O9          31.2009  39.0826  36.2147 O.2            1 <1>                0.0000
     10 Cl10        32.9984  37.4829  34.9013 Cl             1 <1>                0.0000
     11 C11         30.1015  35.3061  38.8416 C.ar           1 <1>                0.0000
     12 C12         31.0831  34.2670  38.7562 C.1            1 <1>                0.0000
     13 N13         31.8618  33.4427  38.6884 N.1            1 <1>                0.0000
     14 C14         28.9009  35.0825  39.5185 C.ar           1 <1>                0.0000
     15 H15         27.4648  38.1036  39.0697 H              1 <1>                0.0000
     16 H16         29.5803  38.5077  37.8826 H              1 <1>                0.0000
     17 H17         32.2965  37.4018  38.1520 H              1 <1>                0.0000
     18 H18         32.1203  35.8481  37.3015 H              1 <1>                0.0000
     19 H19         28.7079  34.1235  39.9762 H              1 <1>                0.0000
@<TRIPOS>BOND
    1    1    2 1     
    2    2    3 ar    
    3    2   14 ar    
    4    3    4 ar    
    5    3   15 1     
    6    4    5 ar    
    7    4   16 1     
    8    5    6 1     
    9    5   11 ar    
   10    6    7 1     
   11    6   17 1     
   12    6   18 1     
   13    7    8 2     
   14    7    9 2     
   15    7   10 1     
   16   11   12 1     
   17   11   14 ar    
   18   12   13 3     
   19   14   19 1     
@<TRIPOS>SUBSTRUCTURE
      1 ****           1
@<TRIPOS>COMMENT
> <Gold.Version>
2022.2.0

> <Gold.Id.Protein>
1qkm|1qkm_protein|mol2

> <Gold.Protein.RotatedTorsions>
[  496  491  490  487 ] final  -31.44 input  -89.99 | X-H torsion

> <Gold.Protein.ActiveResidues>
 MET295  LEU298  THR299  LEU301  ALA302  GLU305  TRP335  MET336  LEU339  MET340 
 GLY342  LEU343  ARG346  PHE356  ILE373  ILE376  PHE377  LEU380  LYS471  GLY472 
 MET473  HIS475  LEU476  LEU477  ASN478  MET479  VAL484  VAL487 

> <Gold.Protein.RotatedAtoms>
   36.3210   34.5839   41.8891 H   0  0  0  0  0  0  0  0  0  0  0  0  # atno 496  bound_to 491 

> <Gold.Score>
     Score     S(PLP)   S(hbond)     S(cho)   S(metal)  DE(clash)   DE(tors)     intcor
     39.61     -40.50       0.00       0.00       0.00       0.00       0.51       0.14

> <Gold.PLP.Fitness>
39.6079

> <Gold.PLP.PLP>
-40.4995

> <Gold.PLP.part.hbond>
0.0000

> <Gold.PLP.part.metal>
0.0000

> <Gold.PLP.part.buried>
-4.5246

> <Gold.PLP.part.nonpolar>
-36.3953

> <Gold.PLP.part.repulsive>
0.1345

> <Gold.PLP.ligand.clash>
0.0000

> <Gold.PLP.ligand.torsion>
0.5134

> <Gold.PLP.Chemscore.Hbond>
0.0000

> <Gold.PLP.Chemscore.CHOScore>
0.0000

> <Gold.PLP.Chemscore.Metal>
0.0000

> <Gold.PLP.Chemscore.Internal.Correction>
0.1352

