#       Name:                EN300-89823_i001
#       Creating user name   aseyller
#       Creation time:       Fri Apr 21 17:28:59 2023


#       File generated by GOLD software.
#

@<TRIPOS>MOLECULE
EN300-89823_i001|Sulfonylchlorides|mol2|274|dock5
    19    19     1
SMALL
USER_CHARGES


@<TRIPOS>ATOM
      1 F1          33.3850  36.0838  35.6851 F              1 <1>                0.0000
      2 C2          32.4294  36.3516  36.6018 C.ar           1 <1>                0.0000
      3 C3          32.3239  35.5684  37.7404 C.ar           1 <1>                0.0000
      4 C4          31.3483  35.8364  38.6832 C.ar           1 <1>                0.0000
      5 C5          30.4731  36.8867  38.4965 C.ar           1 <1>                0.0000
      6 C6          29.4114  37.1765  39.5260 C.3            1 <1>                0.0000
      7 S7          27.8642  36.3607  39.0451 S.o2           1 <1>                0.0000
      8 O8          27.3012  36.9925  37.9036 O.2            1 <1>                0.0000
      9 O9          28.0056  34.9480  39.1055 O.2            1 <1>                0.0000
     10 Cl10        26.5784  36.7969  40.5407 Cl             1 <1>                0.0000
     11 C11         30.5729  37.6807  37.3525 C.ar           1 <1>                0.0000
     12 C12         29.6676  38.7722  37.1536 C.1            1 <1>                0.0000
     13 N13         28.9494  39.6381  36.9958 N.1            1 <1>                0.0000
     14 C14         31.5625  37.4092  36.4056 C.ar           1 <1>                0.0000
     15 H15         33.0063  34.7451  37.8918 H              1 <1>                0.0000
     16 H16         31.2711  35.2219  39.5680 H              1 <1>                0.0000
     17 H17         29.7342  36.8000  40.4966 H              1 <1>                0.0000
     18 H18         29.2503  38.2527  39.5889 H              1 <1>                0.0000
     19 H19         31.6450  38.0197  35.5185 H              1 <1>                0.0000
@<TRIPOS>BOND
    1    1    2 1     
    2    2    3 ar    
    3    2   14 ar    
    4    3    4 ar    
    5    3   15 1     
    6    4    5 ar    
    7    4   16 1     
    8    5    6 1     
    9    5   11 ar    
   10    6    7 1     
   11    6   17 1     
   12    6   18 1     
   13    7    8 2     
   14    7    9 2     
   15    7   10 1     
   16   11   12 1     
   17   11   14 ar    
   18   12   13 3     
   19   14   19 1     
@<TRIPOS>SUBSTRUCTURE
      1 ****           1
@<TRIPOS>COMMENT
> <Gold.Version>
2022.2.0

> <Gold.Id.Protein>
1qkm|1qkm_protein|mol2

> <Gold.Protein.RotatedTorsions>
[  496  491  490  487 ] final  -89.78 input  -89.99 | X-H torsion

> <Gold.Protein.ActiveResidues>
 MET295  LEU298  THR299  LEU301  ALA302  GLU305  TRP335  MET336  LEU339  MET340 
 GLY342  LEU343  ARG346  PHE356  ILE373  ILE376  PHE377  LEU380  LYS471  GLY472 
 MET473  HIS475  LEU476  LEU477  ASN478  MET479  VAL484  VAL487 

> <Gold.Protein.RotatedAtoms>
   36.7553   34.6548   41.0819 H   0  0  0  0  0  0  0  0  0  0  0  0  # atno 496  bound_to 491 

> <Gold.Score>
     Score     S(PLP)   S(hbond)     S(cho)   S(metal)  DE(clash)   DE(tors)     intcor
     41.38     -42.09       0.00       0.00       0.00       0.00       0.42       0.14

> <Gold.PLP.Fitness>
41.3757

> <Gold.PLP.PLP>
-42.0864

> <Gold.PLP.part.hbond>
0.0000

> <Gold.PLP.part.metal>
0.0000

> <Gold.PLP.part.buried>
-3.7003

> <Gold.PLP.part.nonpolar>
-38.3082

> <Gold.PLP.part.repulsive>
0.0050

> <Gold.PLP.ligand.clash>
0.0000

> <Gold.PLP.ligand.torsion>
0.4230

> <Gold.PLP.Chemscore.Hbond>
0.0000

> <Gold.PLP.Chemscore.CHOScore>
0.0000

> <Gold.PLP.Chemscore.Metal>
0.0000

> <Gold.PLP.Chemscore.Internal.Correction>
0.1352

