#       Name:                plp ligand
#       Creating user name   aseyller
#       Creation time:       Fri Apr 21 17:28:56 2023


#       File generated by GOLD software.
#

@<TRIPOS>MOLECULE
plp ligand
    19    19     1
SMALL
USER_CHARGES


@<TRIPOS>ATOM
      1 F1          -3.9432   0.4549   0.7235 NONPOLAR       1 <1>                0.0000
      2 C2          -2.6495   0.3376   0.3524 NONPOLAR       1 <1>                0.0000
      3 C3          -1.9506   1.4527  -0.0825 NONPOLAR       1 <1>                0.0000
      4 C4          -0.6260   1.3404  -0.4640 NONPOLAR       1 <1>                0.0000
      5 C5           0.0090   0.1165  -0.4135 NONPOLAR       1 <1>                0.0000
      6 C6           1.4526  -0.0024  -0.8294 NONPOLAR       1 <1>                0.0000
      7 S7           2.5212   0.2700   0.6109 NONPOLAR       1 <1>                0.0000
      8 O8           2.4467   1.6232   1.0383 ACCEPTOR       1 <1>                0.0000
      9 O9           2.3911  -0.7992   1.5378 ACCEPTOR       1 <1>                0.0000
     10 Cl10         4.3982   0.0782  -0.1105 NONPOLAR       1 <1>                0.0000
     11 C11         -0.6877  -1.0115   0.0239 NONPOLAR       1 <1>                0.0000
     12 C12         -0.0336  -2.2842   0.0787 NONPOLAR       1 <1>                0.0000
     13 N13          0.4853  -3.2938   0.1221 ACCEPTOR       1 <1>                0.0000
     14 C14         -2.0235  -0.8925   0.4125 NONPOLAR       1 <1>                0.0000
     15 H15         -2.4426   2.4132  -0.1240                1 <1>                0.0000
     16 H16         -0.0873   2.2131  -0.8026                1 <1>                0.0000
     17 H17          1.6336  -0.9987  -1.2328                1 <1>                0.0000
     18 H18          1.6737   0.7442  -1.5922                1 <1>                0.0000
     19 H19         -2.5681  -1.7612   0.7518                1 <1>                0.0000
@<TRIPOS>BOND
    1    1    2 1     
    2    2    3 ar    
    3    2   14 ar    
    4    3    4 ar    
    5    3   15 1     
    6    4    5 ar    
    7    4   16 1     
    8    5    6 1     
    9    5   11 ar    
   10    6    7 1     
   11    6   17 1     
   12    6   18 1     
   13    7    8 2     
   14    7    9 2     
   15    7   10 1     
   16   11   12 1     
   17   11   14 ar    
   18   12   13 3     
   19   14   19 1     
@<TRIPOS>SUBSTRUCTURE
      1 ****           1
@<TRIPOS>SET
DONOR_HYDROGENS      STATIC     ATOMS    <user>   **** ""
0
ATOM$RED        STATIC     ATOMS    COLORGROUP SYSTEM
0
