#       Name:                EN300-11723_i002
#       Creating user name   fsindt
#       Creation time:       Tue Feb 28 08:09:31 2023


#       File generated by GOLD software.
#

@<TRIPOS>MOLECULE
EN300-11723_i002|amine_7|mol2|4345|dock20
    28    29     1
SMALL
USER_CHARGES


@<TRIPOS>ATOM
      1 C1          -1.0022 -18.8189   8.6265 C.3            1 <1>                0.0000
      2 N2          -0.1163 -17.6607   8.4482 N.4            1 <1>                1.0000
      3 C3          -0.5614 -16.5650   9.3195 C.3            1 <1>                0.0000
      4 C4          -0.1033 -16.8413  10.7501 C.3            1 <1>                0.0000
      5 C5          -0.3846 -15.5945  11.5971 C.3            1 <1>                0.0000
      6 C6           0.5752 -14.4894  11.1611 C.3            1 <1>                0.0000
      7 C7           0.5339 -14.3114   9.6658 C.ar           1 <1>                0.0000
      8 C8           1.0442 -13.1315   9.1406 C.ar           1 <1>                0.0000
      9 C9           1.0399 -12.9105   7.7787 C.ar           1 <1>                0.0000
     10 C10          0.5238 -13.8710   6.9292 C.ar           1 <1>                0.0000
     11 C11          0.0143 -15.0431   7.4492 C.ar           1 <1>                0.0000
     12 C12          0.0167 -15.2669   8.8197 C.ar           1 <1>                0.0000
     13 H13         -0.8907 -19.2094   9.6380 H              1 <1>                0.0000
     14 H14         -2.0363 -18.5133   8.4670 H              1 <1>                0.0000
     15 H15         -0.7371 -19.5934   7.9069 H              1 <1>                0.0000
     16 H16         -1.6495 -16.5061   9.2955 H              1 <1>                0.0000
     17 H17         -0.6534 -17.6913  11.1540 H              1 <1>                0.0000
     18 H18          0.9650 -17.0573  10.7583 H              1 <1>                0.0000
     19 H19         -1.4134 -15.2696  11.4417 H              1 <1>                0.0000
     20 H20         -0.2266 -15.8234  12.6510 H              1 <1>                0.0000
     21 H21          0.2891 -13.5542  11.6423 H              1 <1>                0.0000
     22 H22          1.5885 -14.7534  11.4638 H              1 <1>                0.0000
     23 H23          1.4473 -12.3804   9.8037 H              1 <1>                0.0000
     24 H24          1.4380 -11.9902   7.3778 H              1 <1>                0.0000
     25 H25          0.5191 -13.7046   5.8622 H              1 <1>                0.0000
     26 H26         -0.3897 -15.7927   6.7848 H              1 <1>                0.0000
     27 H27          0.8286 -17.9198   8.6895 H              1 <1>                0.0000
     28 H28         -0.1469 -17.3589   7.4859 H              1 <1>                0.0000
@<TRIPOS>BOND
    1    1    2 1     
    2    1   13 1     
    3    1   14 1     
    4    1   15 1     
    5    2    3 1     
    6    2   27 1     
    7    2   28 1     
    8    3    4 1     
    9    3   12 1     
   10    3   16 1     
   11    4    5 1     
   12    4   17 1     
   13    4   18 1     
   14    5    6 1     
   15    5   19 1     
   16    5   20 1     
   17    6    7 1     
   18    6   21 1     
   19    6   22 1     
   20    7    8 ar    
   21    7   12 ar    
   22    8    9 ar    
   23    8   23 1     
   24    9   10 ar    
   25    9   24 1     
   26   10   11 ar    
   27   10   25 1     
   28   11   12 ar    
   29   11   26 1     
@<TRIPOS>SUBSTRUCTURE
      1 ****           1
@<TRIPOS>SET
DONOR_HYDROGENS      STATIC     ATOMS    <user>   **** ""
2 27 28
ATOM$RED        STATIC     ATOMS    COLORGROUP SYSTEM
2 27 28
@<TRIPOS>COMMENT
> <Gold.Version>
2022.2.0

> <Gold.Id.Protein>
3pbl|protein|mol2

> <Gold.Protein.RotatedTorsions>
[ 1303 1298 1297 1294 ] final -127.87 input  179.99 | X-H torsion
[ 2461 2456 2455 2452 ] final  174.82 input   30.03 | X-H torsion
[ 2515 2510 2509 2506 ] final    0.37 input  -89.99 | X-H torsion
[ 3721 3712 3711 3710 ] final  -43.71 input -179.91 | X-H torsion
[ 3841 3832 3831 3830 ] final -164.85 input -179.91 | X-H torsion
[ 3767 3762 3761 3758 ] final -156.86 input  -89.99 | X-H torsion
[ 2472 2467 2466 2463 ] final  -59.98 input  -89.97 | X-H torsion

> <Gold.Protein.ActiveResidues>
 VAL82   VAL86   LEU89   PHE106  VAL107  ASP110  VAL111  MET112  CYS114  THR115 
 CYS181  SER182  ILE183  PHE188  VAL189  ILE190  SER192  SER193  SER196  TRP342 
 PHE345  PHE346  HIS349  VAL350  TYR365  THR369  GLY372  TYR373 

> <Gold.Protein.RotatedAtoms>
    4.3391   -8.4779    4.1684 H   0  0  0  0  0  0  0  0  0  0  0  0  # atno 1303 bound_to 1298
    1.5306   -9.1872    8.3993 H   0  0  0  0  0  0  0  0  0  0  0  0  # atno 2461 bound_to 2456
   -3.7269   -5.1877    8.9598 H   0  0  0  0  0  0  0  0  0  0  0  0  # atno 2472 bound_to 2467
    2.5384   -7.6253    4.6119 H   0  0  0  0  0  0  0  0  0  0  0  0  # atno 2515 bound_to 2510
   -2.6859  -17.5396   14.6922 H   0  0  0  0  0  0  0  0  0  0  0  0  # atno 3721 bound_to 3712
   -4.3468  -22.2631   11.6488 H   0  0  0  0  0  0  0  0  0  0  0  0  # atno 3767 bound_to 3762
    2.8072  -19.8869    8.3586 H   0  0  0  0  0  0  0  0  0  0  0  0  # atno 3841 bound_to 3832
    4.6701   -9.8779    4.9410 LP  0  0  0  0  0  0  0  0  0  0  0  0  # atno 4297 bound_to 1298
    3.3529   -9.7659    3.9823 LP  0  0  0  0  0  0  0  0  0  0  0  0  # atno 4298 bound_to 1298
    1.8570   -7.9995    7.3268 LP  0  0  0  0  0  0  0  0  0  0  0  0  # atno 4299 bound_to 2456
    0.3503   -8.6217    7.4223 LP  0  0  0  0  0  0  0  0  0  0  0  0  # atno 4300 bound_to 2456
    2.7164   -9.2022    4.9956 LP  0  0  0  0  0  0  0  0  0  0  0  0  # atno 4301 bound_to 2510
    2.0418   -8.1720    6.0680 LP  0  0  0  0  0  0  0  0  0  0  0  0  # atno 4302 bound_to 2510
   -3.5674  -16.5720   13.7624 LP  0  0  0  0  0  0  0  0  0  0  0  0  # atno 4306 bound_to 3712
   -2.8593  -17.9046   13.1383 LP  0  0  0  0  0  0  0  0  0  0  0  0  # atno 4307 bound_to 3712
    2.5945  -21.1574    9.3161 LP  0  0  0  0  0  0  0  0  0  0  0  0  # atno 4314 bound_to 3832
    1.3921  -20.0755    9.0920 LP  0  0  0  0  0  0  0  0  0  0  0  0  # atno 4315 bound_to 3832
   -4.2703  -23.3357   10.4198 LP  0  0  0  0  0  0  0  0  0  0  0  0  # atno 4318 bound_to 3762
   -5.5101  -22.2762   10.5027 LP  0  0  0  0  0  0  0  0  0  0  0  0  # atno 4319 bound_to 3762
   -5.3465   -5.3867    9.0198 LP  0  0  0  0  0  0  0  0  0  0  0  0  # atno 4320 bound_to 2467
   -4.6434   -4.8191    7.6596 LP  0  0  0  0  0  0  0  0  0  0  0  0  # atno 4321 bound_to 2467

> <Gold.Score>
     Score     S(PLP)   S(hbond)     S(cho)   S(metal)  DE(clash)   DE(tors)     intcor
     41.07     -35.40       2.00       0.00       0.00       0.00       0.16       0.00

> <Gold.PLP.Fitness>
41.0676

> <Gold.PLP.PLP>
-35.3964

> <Gold.PLP.part.hbond>
-1.0000

> <Gold.PLP.part.metal>
0.0000

> <Gold.PLP.part.buried>
-2.3971

> <Gold.PLP.part.nonpolar>
-32.2046

> <Gold.PLP.part.repulsive>
0.0000

> <Gold.PLP.ligand.clash>
0.0000

> <Gold.PLP.ligand.torsion>
0.1645

> <Gold.PLP.Chemscore.Hbond>
2.0000

> <Gold.PLP.Chemscore.CHOScore>
0.0000

> <Gold.PLP.Chemscore.Metal>
0.0000

> <Gold.Chemscore.Hbonds>
donor molecule, donor type, donor heavy atom, donor atom, acceptor molecule, acceptor atom, score
      L1  H     2    27       P1  1227  2.00

> <Gold.PLP.Chemscore.Internal.Correction>
0.0003

