#       Name:                EN300-11723_i002
#       Creating user name   fsindt
#       Creation time:       Tue Feb 28 08:09:26 2023


#       File generated by GOLD software.
#

@<TRIPOS>MOLECULE
EN300-11723_i002|amine_7|mol2|4345|dock3
    28    29     1
SMALL
USER_CHARGES


@<TRIPOS>ATOM
      1 C1          -1.0074 -18.5200   9.0682 C.3            1 <1>                0.0000
      2 N2          -0.2423 -17.8434  10.1241 N.4            1 <1>                1.0000
      3 C3          -0.4317 -18.5523  11.3967 C.3            1 <1>                0.0000
      4 C4          -0.1092 -20.0323  11.2017 C.3            1 <1>                0.0000
      5 C5          -0.1016 -20.7108  12.5767 C.3            1 <1>                0.0000
      6 C6           1.1184 -20.2162  13.3510 C.3            1 <1>                0.0000
      7 C7           1.1771 -18.7110  13.3421 C.ar           1 <1>                0.0000
      8 C8           1.9839 -18.0896  14.2862 C.ar           1 <1>                0.0000
      9 C9           2.0842 -16.7142  14.3266 C.ar           1 <1>                0.0000
     10 C10          1.3764 -15.9475  13.4202 C.ar           1 <1>                0.0000
     11 C11          0.5724 -16.5629  12.4828 C.ar           1 <1>                0.0000
     12 C12          0.4693 -17.9470  12.4412 C.ar           1 <1>                0.0000
     13 H13         -0.5895 -19.5117   8.8953 H              1 <1>                0.0000
     14 H14         -2.0486 -18.6132   9.3768 H              1 <1>                0.0000
     15 H15         -0.9518 -17.9371   8.1488 H              1 <1>                0.0000
     16 H16         -1.4693 -18.4493  11.7144 H              1 <1>                0.0000
     17 H17         -0.8680 -20.4932  10.5691 H              1 <1>                0.0000
     18 H18          0.8706 -20.1363  10.7356 H              1 <1>                0.0000
     19 H19         -1.0107 -20.4511  13.1192 H              1 <1>                0.0000
     20 H20         -0.0440 -21.7920  12.4523 H              1 <1>                0.0000
     21 H21          1.0570 -20.5674  14.3811 H              1 <1>                0.0000
     22 H22          2.0224 -20.6139  12.8897 H              1 <1>                0.0000
     23 H23          2.5371 -18.6880  14.9950 H              1 <1>                0.0000
     24 H24          2.7134 -16.2382  15.0641 H              1 <1>                0.0000
     25 H25          1.4520 -14.8705  13.4457 H              1 <1>                0.0000
     26 H26          0.0188 -15.9631  11.7755 H              1 <1>                0.0000
     27 H27          0.7372 -17.8429   9.8818 H              1 <1>                0.0000
     28 H28         -0.5662 -16.8924  10.2173 H              1 <1>                0.0000
@<TRIPOS>BOND
    1    1    2 1     
    2    1   13 1     
    3    1   14 1     
    4    1   15 1     
    5    2    3 1     
    6    2   27 1     
    7    2   28 1     
    8    3    4 1     
    9    3   12 1     
   10    3   16 1     
   11    4    5 1     
   12    4   17 1     
   13    4   18 1     
   14    5    6 1     
   15    5   19 1     
   16    5   20 1     
   17    6    7 1     
   18    6   21 1     
   19    6   22 1     
   20    7    8 ar    
   21    7   12 ar    
   22    8    9 ar    
   23    8   23 1     
   24    9   10 ar    
   25    9   24 1     
   26   10   11 ar    
   27   10   25 1     
   28   11   12 ar    
   29   11   26 1     
@<TRIPOS>SUBSTRUCTURE
      1 ****           1
@<TRIPOS>SET
DONOR_HYDROGENS      STATIC     ATOMS    <user>   **** ""
2 27 28
ATOM$RED        STATIC     ATOMS    COLORGROUP SYSTEM
2 27 28
@<TRIPOS>COMMENT
> <Gold.Version>
2022.2.0

> <Gold.Id.Protein>
3pbl|protein|mol2

> <Gold.Protein.RotatedTorsions>
[ 1303 1298 1297 1294 ] final   49.21 input  179.99 | X-H torsion
[ 2461 2456 2455 2452 ] final  -50.13 input   30.03 | X-H torsion
[ 2515 2510 2509 2506 ] final  -82.96 input  -89.99 | X-H torsion
[ 3721 3712 3711 3710 ] final   52.13 input -179.91 | X-H torsion
[ 3841 3832 3831 3830 ] final  -95.53 input -179.91 | X-H torsion
[ 3767 3762 3761 3758 ] final  -42.18 input  -89.99 | X-H torsion
[ 2472 2467 2466 2463 ] final  -84.35 input  -89.97 | X-H torsion

> <Gold.Protein.ActiveResidues>
 VAL82   VAL86   LEU89   PHE106  VAL107  ASP110  VAL111  MET112  CYS114  THR115 
 CYS181  SER182  ILE183  PHE188  VAL189  ILE190  SER192  SER193  SER196  TRP342 
 PHE345  PHE346  HIS349  VAL350  TYR365  THR369  GLY372  TYR373 

> <Gold.Protein.RotatedAtoms>
    3.8634  -10.2650    4.5313 H   0  0  0  0  0  0  0  0  0  0  0  0  # atno 1303 bound_to 1298
    0.4297   -8.4429    7.2715 H   0  0  0  0  0  0  0  0  0  0  0  0  # atno 2461 bound_to 2456
   -3.9697   -5.3179    9.2470 H   0  0  0  0  0  0  0  0  0  0  0  0  # atno 2472 bound_to 2467
    2.8314   -8.8413    4.5391 H   0  0  0  0  0  0  0  0  0  0  0  0  # atno 2515 bound_to 2510
   -2.5529  -17.9591   13.4841 H   0  0  0  0  0  0  0  0  0  0  0  0  # atno 3721 bound_to 3712
   -5.5106  -22.2197   10.5696 H   0  0  0  0  0  0  0  0  0  0  0  0  # atno 3767 bound_to 3762
    1.9133  -19.5971    8.6526 H   0  0  0  0  0  0  0  0  0  0  0  0  # atno 3841 bound_to 3832
    3.6014   -8.8325    3.7927 LP  0  0  0  0  0  0  0  0  0  0  0  0  # atno 4297 bound_to 1298
    4.8975   -9.0235    4.7675 LP  0  0  0  0  0  0  0  0  0  0  0  0  # atno 4298 bound_to 1298
    1.2949   -9.2602    8.3899 LP  0  0  0  0  0  0  0  0  0  0  0  0  # atno 4299 bound_to 2456
    2.0130   -8.1049    7.4865 LP  0  0  0  0  0  0  0  0  0  0  0  0  # atno 4300 bound_to 2456
    2.1805   -8.7477    6.0336 LP  0  0  0  0  0  0  0  0  0  0  0  0  # atno 4301 bound_to 2510
    2.2847   -7.4099    5.1029 LP  0  0  0  0  0  0  0  0  0  0  0  0  # atno 4302 bound_to 2510
   -3.0493  -17.3053   14.8640 LP  0  0  0  0  0  0  0  0  0  0  0  0  # atno 4306 bound_to 3712
   -3.5310  -16.6869   13.4314 LP  0  0  0  0  0  0  0  0  0  0  0  0  # atno 4307 bound_to 3712
    3.1278  -20.6383    8.5211 LP  0  0  0  0  0  0  0  0  0  0  0  0  # atno 4314 bound_to 3832
    1.8914  -20.9294    9.5474 LP  0  0  0  0  0  0  0  0  0  0  0  0  # atno 4315 bound_to 3832
   -4.2826  -22.3219   11.6412 LP  0  0  0  0  0  0  0  0  0  0  0  0  # atno 4318 bound_to 3762
   -4.3345  -23.3333   10.3602 LP  0  0  0  0  0  0  0  0  0  0  0  0  # atno 4319 bound_to 3762
   -5.4959   -5.2763    8.6679 LP  0  0  0  0  0  0  0  0  0  0  0  0  # atno 4320 bound_to 2467
   -4.2513   -4.7994    7.7244 LP  0  0  0  0  0  0  0  0  0  0  0  0  # atno 4321 bound_to 2467

> <Gold.Score>
     Score     S(PLP)   S(hbond)     S(cho)   S(metal)  DE(clash)   DE(tors)     intcor
     41.86     -35.91       2.00       0.00       0.00       0.00       0.02       0.00

> <Gold.PLP.Fitness>
41.8641

> <Gold.PLP.PLP>
-35.9082

> <Gold.PLP.part.hbond>
-1.0000

> <Gold.PLP.part.metal>
0.0000

> <Gold.PLP.part.buried>
-3.9326

> <Gold.PLP.part.nonpolar>
-31.3517

> <Gold.PLP.part.repulsive>
0.0000

> <Gold.PLP.ligand.clash>
0.0000

> <Gold.PLP.ligand.torsion>
0.0222

> <Gold.PLP.Chemscore.Hbond>
2.0000

> <Gold.PLP.Chemscore.CHOScore>
0.0000

> <Gold.PLP.Chemscore.Metal>
0.0000

> <Gold.Chemscore.Hbonds>
donor molecule, donor type, donor heavy atom, donor atom, acceptor molecule, acceptor atom, score
      L1  H     2    27       P1  1227  2.00

> <Gold.PLP.Chemscore.Internal.Correction>
0.0003

