#       Name:                EN300-11723_i002
#       Creating user name   fsindt
#       Creation time:       Tue Feb 28 08:09:28 2023


#       File generated by GOLD software.
#

@<TRIPOS>MOLECULE
EN300-11723_i002|amine_7|mol2|4345|dock11
    28    29     1
SMALL
USER_CHARGES


@<TRIPOS>ATOM
      1 C1          -0.0990 -15.8682   8.0945 C.3            1 <1>                0.0000
      2 N2           1.2106 -15.2515   8.3445 N.4            1 <1>                1.0000
      3 C3           1.0440 -14.0890   9.2270 C.3            1 <1>                0.0000
      4 C4          -0.0022 -13.1497   8.6305 C.3            1 <1>                0.0000
      5 C5          -0.3187 -12.0607   9.6625 C.3            1 <1>                0.0000
      6 C6          -1.0846 -12.7008  10.8185 C.3            1 <1>                0.0000
      7 C7          -0.3576 -13.9187  11.3257 C.ar           1 <1>                0.0000
      8 C8          -0.6993 -14.3991  12.5830 C.ar           1 <1>                0.0000
      9 C9          -0.0735 -15.5139  13.1017 C.ar           1 <1>                0.0000
     10 C10          0.9016 -16.1589  12.3644 C.ar           1 <1>                0.0000
     11 C11          1.2442 -15.6819  11.1159 C.ar           1 <1>                0.0000
     12 C12          0.6163 -14.5594  10.5926 C.ar           1 <1>                0.0000
     13 H13         -0.4889 -16.2825   9.0242 H              1 <1>                0.0000
     14 H14         -0.7890 -15.1146   7.7150 H              1 <1>                0.0000
     15 H15          0.0091 -16.6652   7.3588 H              1 <1>                0.0000
     16 H16          1.9945 -13.5619   9.3103 H              1 <1>                0.0000
     17 H17          0.3905 -12.6919   7.7225 H              1 <1>                0.0000
     18 H18         -0.9081 -13.7094   8.3978 H              1 <1>                0.0000
     19 H19          0.6093 -11.6255  10.0333 H              1 <1>                0.0000
     20 H20         -0.9302 -11.2850   9.2018 H              1 <1>                0.0000
     21 H21         -1.1832 -11.9779  11.6284 H              1 <1>                0.0000
     22 H22         -2.0771 -12.9919  10.4746 H              1 <1>                0.0000
     23 H23         -1.4609 -13.8955  13.1599 H              1 <1>                0.0000
     24 H24         -0.3444 -15.8812  14.0805 H              1 <1>                0.0000
     25 H25          1.3939 -17.0331  12.7643 H              1 <1>                0.0000
     26 H26          2.0070 -16.1859  10.5408 H              1 <1>                0.0000
     27 H27          1.8203 -15.9238   8.7853 H              1 <1>                0.0000
     28 H28          1.6149 -14.9540   7.4691 H              1 <1>                0.0000
@<TRIPOS>BOND
    1    1    2 1     
    2    1   13 1     
    3    1   14 1     
    4    1   15 1     
    5    2    3 1     
    6    2   27 1     
    7    2   28 1     
    8    3    4 1     
    9    3   12 1     
   10    3   16 1     
   11    4    5 1     
   12    4   17 1     
   13    4   18 1     
   14    5    6 1     
   15    5   19 1     
   16    5   20 1     
   17    6    7 1     
   18    6   21 1     
   19    6   22 1     
   20    7    8 ar    
   21    7   12 ar    
   22    8    9 ar    
   23    8   23 1     
   24    9   10 ar    
   25    9   24 1     
   26   10   11 ar    
   27   10   25 1     
   28   11   12 ar    
   29   11   26 1     
@<TRIPOS>SUBSTRUCTURE
      1 ****           1
@<TRIPOS>SET
DONOR_HYDROGENS      STATIC     ATOMS    <user>   **** ""
2 27 28
ATOM$RED        STATIC     ATOMS    COLORGROUP SYSTEM
2 27 28
@<TRIPOS>COMMENT
> <Gold.Version>
2022.2.0

> <Gold.Id.Protein>
3pbl|protein|mol2

> <Gold.Protein.RotatedTorsions>
[ 1303 1298 1297 1294 ] final  -61.01 input  179.99 | X-H torsion
[ 2461 2456 2455 2452 ] final   91.90 input   30.03 | X-H torsion
[ 2515 2510 2509 2506 ] final   14.55 input  -89.99 | X-H torsion
[ 3721 3712 3711 3710 ] final   16.51 input -179.91 | X-H torsion
[ 3841 3832 3831 3830 ] final -159.19 input -179.91 | X-H torsion
[ 3767 3762 3761 3758 ] final  -44.98 input  -89.99 | X-H torsion
[ 2472 2467 2466 2463 ] final    4.18 input  -89.97 | X-H torsion

> <Gold.Protein.ActiveResidues>
 VAL82   VAL86   LEU89   PHE106  VAL107  ASP110  VAL111  MET112  CYS114  THR115 
 CYS181  SER182  ILE183  PHE188  VAL189  ILE190  SER192  SER193  SER196  TRP342 
 PHE345  PHE346  HIS349  VAL350  TYR365  THR369  GLY372  TYR373 

> <Gold.Protein.RotatedAtoms>
    3.5074   -8.9621    3.7783 H   0  0  0  0  0  0  0  0  0  0  0  0  # atno 1303 bound_to 1298
    2.1446   -8.3182    7.7455 H   0  0  0  0  0  0  0  0  0  0  0  0  # atno 2461 bound_to 2456
   -3.8385   -4.8611    8.0197 H   0  0  0  0  0  0  0  0  0  0  0  0  # atno 2472 bound_to 2467
    2.4398   -7.5012    4.7822 H   0  0  0  0  0  0  0  0  0  0  0  0  # atno 2515 bound_to 2510
   -2.4699  -18.0235   14.0034 H   0  0  0  0  0  0  0  0  0  0  0  0  # atno 3721 bound_to 3712
   -5.5081  -22.1916   10.6061 H   0  0  0  0  0  0  0  0  0  0  0  0  # atno 3767 bound_to 3762
    2.7420  -19.8322    8.3500 H   0  0  0  0  0  0  0  0  0  0  0  0  # atno 3841 bound_to 3832
    4.8605   -8.8882    4.6893 LP  0  0  0  0  0  0  0  0  0  0  0  0  # atno 4297 bound_to 1298
    3.9945  -10.2711    4.6242 LP  0  0  0  0  0  0  0  0  0  0  0  0  # atno 4298 bound_to 1298
    0.6450   -8.2045    7.1084 LP  0  0  0  0  0  0  0  0  0  0  0  0  # atno 4299 bound_to 2456
    0.9484   -9.2854    8.2942 LP  0  0  0  0  0  0  0  0  0  0  0  0  # atno 4300 bound_to 2456
    2.7780   -9.0984    4.7966 LP  0  0  0  0  0  0  0  0  0  0  0  0  # atno 4301 bound_to 2510
    2.0789   -8.4000    6.0966 LP  0  0  0  0  0  0  0  0  0  0  0  0  # atno 4302 bound_to 2510
   -3.3352  -16.8386   14.6555 LP  0  0  0  0  0  0  0  0  0  0  0  0  # atno 4306 bound_to 3712
   -3.3410  -17.0792   13.0404 LP  0  0  0  0  0  0  0  0  0  0  0  0  # atno 4307 bound_to 3712
    2.6721  -21.1508    9.2623 LP  0  0  0  0  0  0  0  0  0  0  0  0  # atno 4314 bound_to 3832
    1.3898  -20.1453    9.1559 LP  0  0  0  0  0  0  0  0  0  0  0  0  # atno 4315 bound_to 3832
   -4.2498  -22.3537   11.6343 LP  0  0  0  0  0  0  0  0  0  0  0  0  # atno 4318 bound_to 3762
   -4.3697  -23.3296   10.3305 LP  0  0  0  0  0  0  0  0  0  0  0  0  # atno 4319 bound_to 3762
   -4.4334   -5.4335    9.4285 LP  0  0  0  0  0  0  0  0  0  0  0  0  # atno 4320 bound_to 2467
   -5.4449   -5.0988    8.1909 LP  0  0  0  0  0  0  0  0  0  0  0  0  # atno 4321 bound_to 2467

> <Gold.Score>
     Score     S(PLP)   S(hbond)     S(cho)   S(metal)  DE(clash)   DE(tors)     intcor
     41.01     -35.06       2.00       0.00       0.00       0.00       0.03       0.00

> <Gold.PLP.Fitness>
41.0122

> <Gold.PLP.PLP>
-35.0621

> <Gold.PLP.part.hbond>
-1.0000

> <Gold.PLP.part.metal>
0.0000

> <Gold.PLP.part.buried>
0.1894

> <Gold.PLP.part.nonpolar>
-34.3289

> <Gold.PLP.part.repulsive>
0.0368

> <Gold.PLP.ligand.clash>
0.0000

> <Gold.PLP.ligand.torsion>
0.0251

> <Gold.PLP.Chemscore.Hbond>
2.0000

> <Gold.PLP.Chemscore.CHOScore>
0.0000

> <Gold.PLP.Chemscore.Metal>
0.0000

> <Gold.Chemscore.Hbonds>
donor molecule, donor type, donor heavy atom, donor atom, acceptor molecule, acceptor atom, score
      L1  H     2    27       P1  1227  2.00

> <Gold.PLP.Chemscore.Internal.Correction>
0.0003

