#       Name:                EN300-11723_i002
#       Creating user name   fsindt
#       Creation time:       Tue Feb 28 08:09:27 2023


#       File generated by GOLD software.
#

@<TRIPOS>MOLECULE
EN300-11723_i002|amine_7|mol2|4345|dock7
    28    29     1
SMALL
USER_CHARGES


@<TRIPOS>ATOM
      1 C1           0.4523 -15.8436   7.5714 C.3            1 <1>                0.0000
      2 N2           1.6999 -15.1921   7.9922 N.4            1 <1>                1.0000
      3 C3           1.3973 -13.8642   8.5429 C.3            1 <1>                0.0000
      4 C4           0.5300 -13.0930   7.5500 C.3            1 <1>                0.0000
      5 C5           0.0474 -11.8052   8.2281 C.3            1 <1>                0.0000
      6 C6          -0.9617 -12.1803   9.3114 C.3            1 <1>                0.0000
      7 C7          -0.3982 -13.2466  10.2140 C.ar           1 <1>                0.0000
      8 C8          -1.0076 -13.4387  11.4469 C.ar           1 <1>                0.0000
      9 C9          -0.5417 -14.4030  12.3168 C.ar           1 <1>                0.0000
     10 C10          0.5404 -15.1851  11.9589 C.ar           1 <1>                0.0000
     11 C11          1.1487 -14.9942  10.7353 C.ar           1 <1>                0.0000
     12 C12          0.6819 -14.0234   9.8589 C.ar           1 <1>                0.0000
     13 H13         -0.1664 -16.0432   8.4462 H              1 <1>                0.0000
     14 H14         -0.0867 -15.1885   6.8870 H              1 <1>                0.0000
     15 H15          0.6844 -16.7825   7.0686 H              1 <1>                0.0000
     16 H16          2.3286 -13.3212   8.7040 H              1 <1>                0.0000
     17 H17          1.1167 -12.8446   6.6656 H              1 <1>                0.0000
     18 H18         -0.3283 -13.7006   7.2631 H              1 <1>                0.0000
     19 H19          0.8945 -11.2880   8.6788 H              1 <1>                0.0000
     20 H20         -0.4284 -11.1584   7.4911 H              1 <1>                0.0000
     21 H21         -1.1985 -11.2965   9.9037 H              1 <1>                0.0000
     22 H22         -1.8723 -12.5518   8.8413 H              1 <1>                0.0000
     23 H23         -1.8529 -12.8278  11.7275 H              1 <1>                0.0000
     24 H24         -1.0206 -14.5461  13.2741 H              1 <1>                0.0000
     25 H25          0.9086 -15.9426  12.6348 H              1 <1>                0.0000
     26 H26          1.9948 -15.6050  10.4567 H              1 <1>                0.0000
     27 H27          2.1512 -15.7542   8.6983 H              1 <1>                0.0000
     28 H28          2.3133 -15.0947   7.1970 H              1 <1>                0.0000
@<TRIPOS>BOND
    1    1    2 1     
    2    1   13 1     
    3    1   14 1     
    4    1   15 1     
    5    2    3 1     
    6    2   27 1     
    7    2   28 1     
    8    3    4 1     
    9    3   12 1     
   10    3   16 1     
   11    4    5 1     
   12    4   17 1     
   13    4   18 1     
   14    5    6 1     
   15    5   19 1     
   16    5   20 1     
   17    6    7 1     
   18    6   21 1     
   19    6   22 1     
   20    7    8 ar    
   21    7   12 ar    
   22    8    9 ar    
   23    8   23 1     
   24    9   10 ar    
   25    9   24 1     
   26   10   11 ar    
   27   10   25 1     
   28   11   12 ar    
   29   11   26 1     
@<TRIPOS>SUBSTRUCTURE
      1 ****           1
@<TRIPOS>SET
DONOR_HYDROGENS      STATIC     ATOMS    <user>   **** ""
2 27 28
ATOM$RED        STATIC     ATOMS    COLORGROUP SYSTEM
2 27 28
@<TRIPOS>COMMENT
> <Gold.Version>
2022.2.0

> <Gold.Id.Protein>
3pbl|protein|mol2

> <Gold.Protein.RotatedTorsions>
[ 1303 1298 1297 1294 ] final   13.56 input  179.99 | X-H torsion
[ 2461 2456 2455 2452 ] final   13.52 input   30.03 | X-H torsion
[ 2515 2510 2509 2506 ] final  116.29 input  -89.99 | X-H torsion
[ 3721 3712 3711 3710 ] final -177.14 input -179.91 | X-H torsion
[ 3841 3832 3831 3830 ] final  127.77 input -179.91 | X-H torsion
[ 3767 3762 3761 3758 ] final  177.28 input  -89.99 | X-H torsion
[ 2472 2467 2466 2463 ] final  -67.08 input  -89.97 | X-H torsion

> <Gold.Protein.ActiveResidues>
 VAL82   VAL86   LEU89   PHE106  VAL107  ASP110  VAL111  MET112  CYS114  THR115 
 CYS181  SER182  ILE183  PHE188  VAL189  ILE190  SER192  SER193  SER196  TRP342 
 PHE345  PHE346  HIS349  VAL350  TYR365  THR369  GLY372  TYR373 

> <Gold.Protein.RotatedAtoms>
    3.4756  -10.0337    4.1720 H   0  0  0  0  0  0  0  0  0  0  0  0  # atno 1303 bound_to 1298
    1.2553   -7.9339    7.0512 H   0  0  0  0  0  0  0  0  0  0  0  0  # atno 2461 bound_to 2456
   -3.7835   -5.2277    9.0536 H   0  0  0  0  0  0  0  0  0  0  0  0  # atno 2472 bound_to 2467
    2.0358   -8.1076    6.0498 H   0  0  0  0  0  0  0  0  0  0  0  0  # atno 2515 bound_to 2510
   -3.3273  -16.5918   13.5866 H   0  0  0  0  0  0  0  0  0  0  0  0  # atno 3721 bound_to 3712
   -4.0707  -22.5663   11.5486 H   0  0  0  0  0  0  0  0  0  0  0  0  # atno 3767 bound_to 3762
    3.1126  -20.6511    8.8538 H   0  0  0  0  0  0  0  0  0  0  0  0  # atno 3841 bound_to 3832
    4.0466   -8.5161    3.9793 LP  0  0  0  0  0  0  0  0  0  0  0  0  # atno 4297 bound_to 1298
    4.8402   -9.5713    4.9403 LP  0  0  0  0  0  0  0  0  0  0  0  0  # atno 4298 bound_to 1298
    0.4486   -9.0694    7.9039 LP  0  0  0  0  0  0  0  0  0  0  0  0  # atno 4299 bound_to 2456
    2.0339   -8.8046    8.1928 LP  0  0  0  0  0  0  0  0  0  0  0  0  # atno 4300 bound_to 2456
    2.5658   -7.6692    4.5691 LP  0  0  0  0  0  0  0  0  0  0  0  0  # atno 4301 bound_to 2510
    2.6953   -9.2225    5.0560 LP  0  0  0  0  0  0  0  0  0  0  0  0  # atno 4302 bound_to 2510
   -2.7493  -18.0672   13.3280 LP  0  0  0  0  0  0  0  0  0  0  0  0  # atno 4306 bound_to 3712
   -2.9370  -17.5036   14.8491 LP  0  0  0  0  0  0  0  0  0  0  0  0  # atno 4307 bound_to 3712
    1.6477  -20.7152    9.5065 LP  0  0  0  0  0  0  0  0  0  0  0  0  # atno 4314 bound_to 3832
    1.9861  -19.6349    8.3297 LP  0  0  0  0  0  0  0  0  0  0  0  0  # atno 4315 bound_to 3832
   -4.6072  -23.2677   10.1748 LP  0  0  0  0  0  0  0  0  0  0  0  0  # atno 4318 bound_to 3762
   -5.4492  -22.0411   10.8480 LP  0  0  0  0  0  0  0  0  0  0  0  0  # atno 4319 bound_to 3762
   -5.4059   -5.3585    8.9234 LP  0  0  0  0  0  0  0  0  0  0  0  0  # atno 4320 bound_to 2467
   -4.5273   -4.8073    7.6621 LP  0  0  0  0  0  0  0  0  0  0  0  0  # atno 4321 bound_to 2467

> <Gold.Score>
     Score     S(PLP)   S(hbond)     S(cho)   S(metal)  DE(clash)   DE(tors)     intcor
     47.62     -40.65       2.35       0.00       0.00       0.00       0.04       0.00

> <Gold.PLP.Fitness>
47.6158

> <Gold.PLP.PLP>
-40.6450

> <Gold.PLP.part.hbond>
-1.7166

> <Gold.PLP.part.metal>
0.0000

> <Gold.PLP.part.buried>
-2.4124

> <Gold.PLP.part.nonpolar>
-37.5466

> <Gold.PLP.part.repulsive>
0.0642

> <Gold.PLP.ligand.clash>
0.0000

> <Gold.PLP.ligand.torsion>
0.0420

> <Gold.PLP.Chemscore.Hbond>
2.3515

> <Gold.PLP.Chemscore.CHOScore>
0.0000

> <Gold.PLP.Chemscore.Metal>
0.0000

> <Gold.Chemscore.Hbonds>
donor molecule, donor type, donor heavy atom, donor atom, acceptor molecule, acceptor atom, score
      L1  H     2    27       P1  1227  2.00
      L1  H     2    28       P1  1223  0.35

> <Gold.PLP.Chemscore.Internal.Correction>
0.0003

