#       Name:                EN300-11723_i002
#       Creating user name   fsindt
#       Creation time:       Tue Feb 28 08:09:25 2023


#       File generated by GOLD software.
#

@<TRIPOS>MOLECULE
EN300-11723_i002|amine_7|mol2|4345|dock2
    28    29     1
SMALL
USER_CHARGES


@<TRIPOS>ATOM
      1 C1           0.9533 -16.1610  12.3639 C.3            1 <1>                0.0000
      2 N2           1.2229 -15.5232  11.0682 N.4            1 <1>                1.0000
      3 C3           0.0435 -14.7564  10.6451 C.3            1 <1>                0.0000
      4 C4          -0.3443 -13.7776  11.7516 C.3            1 <1>                0.0000
      5 C5          -1.4329 -12.8431  11.2108 C.3            1 <1>                0.0000
      6 C6          -0.8014 -11.9185  10.1720 C.3            1 <1>                0.0000
      7 C7          -0.0303 -12.7156   9.1525 C.ar           1 <1>                0.0000
      8 C8           0.2886 -12.0942   7.9523 C.ar           1 <1>                0.0000
      9 C9           0.9978 -12.7691   6.9801 C.ar           1 <1>                0.0000
     10 C10          1.3948 -14.0744   7.2017 C.ar           1 <1>                0.0000
     11 C11          1.0770 -14.6943   8.3926 C.ar           1 <1>                0.0000
     12 C12          0.3623 -14.0171   9.3719 C.ar           1 <1>                0.0000
     13 H13          0.8354 -15.3937  13.1290 H              1 <1>                0.0000
     14 H14          0.0386 -16.7497  12.2957 H              1 <1>                0.0000
     15 H15          1.7860 -16.8127  12.6283 H              1 <1>                0.0000
     16 H16         -0.7848 -15.4415  10.4646 H              1 <1>                0.0000
     17 H17         -0.7269 -14.3281  12.6112 H              1 <1>                0.0000
     18 H18          0.5272 -13.1936  12.0473 H              1 <1>                0.0000
     19 H19         -2.2241 -13.4314  10.7459 H              1 <1>                0.0000
     20 H20         -1.8465 -12.2504  12.0266 H              1 <1>                0.0000
     21 H21         -1.5864 -11.3546   9.6682 H              1 <1>                0.0000
     22 H22         -0.1256 -11.2247  10.6719 H              1 <1>                0.0000
     23 H23         -0.0214 -11.0744   7.7782 H              1 <1>                0.0000
     24 H24          1.2417 -12.2793   6.0490 H              1 <1>                0.0000
     25 H25          1.9516 -14.6073   6.4451 H              1 <1>                0.0000
     26 H26          1.3866 -15.7146   8.5647 H              1 <1>                0.0000
     27 H27          2.0136 -14.9028  11.1569 H              1 <1>                0.0000
     28 H28          1.4274 -16.2326  10.3803 H              1 <1>                0.0000
@<TRIPOS>BOND
    1    1    2 1     
    2    1   13 1     
    3    1   14 1     
    4    1   15 1     
    5    2    3 1     
    6    2   27 1     
    7    2   28 1     
    8    3    4 1     
    9    3   12 1     
   10    3   16 1     
   11    4    5 1     
   12    4   17 1     
   13    4   18 1     
   14    5    6 1     
   15    5   19 1     
   16    5   20 1     
   17    6    7 1     
   18    6   21 1     
   19    6   22 1     
   20    7    8 ar    
   21    7   12 ar    
   22    8    9 ar    
   23    8   23 1     
   24    9   10 ar    
   25    9   24 1     
   26   10   11 ar    
   27   10   25 1     
   28   11   12 ar    
   29   11   26 1     
@<TRIPOS>SUBSTRUCTURE
      1 ****           1
@<TRIPOS>SET
DONOR_HYDROGENS      STATIC     ATOMS    <user>   **** ""
2 27 28
ATOM$RED        STATIC     ATOMS    COLORGROUP SYSTEM
2 27 28
@<TRIPOS>COMMENT
> <Gold.Version>
2022.2.0

> <Gold.Id.Protein>
3pbl|protein|mol2

> <Gold.Protein.RotatedTorsions>
[ 1303 1298 1297 1294 ] final   33.77 input  179.99 | X-H torsion
[ 2461 2456 2455 2452 ] final   23.75 input   30.03 | X-H torsion
[ 2515 2510 2509 2506 ] final   78.81 input  -89.99 | X-H torsion
[ 3721 3712 3711 3710 ] final   63.73 input -179.91 | X-H torsion
[ 3841 3832 3831 3830 ] final  -66.03 input -179.91 | X-H torsion
[ 3767 3762 3761 3758 ] final  150.18 input  -89.99 | X-H torsion
[ 2472 2467 2466 2463 ] final  174.02 input  -89.97 | X-H torsion

> <Gold.Protein.ActiveResidues>
 VAL82   VAL86   LEU89   PHE106  VAL107  ASP110  VAL111  MET112  CYS114  THR115 
 CYS181  SER182  ILE183  PHE188  VAL189  ILE190  SER192  SER193  SER196  TRP342 
 PHE345  PHE346  HIS349  VAL350  TYR365  THR369  GLY372  TYR373 

> <Gold.Protein.RotatedAtoms>
    3.6736  -10.2035    4.3755 H   0  0  0  0  0  0  0  0  0  0  0  0  # atno 1303 bound_to 1298
    1.4176   -7.9174    7.0914 H   0  0  0  0  0  0  0  0  0  0  0  0  # atno 2461 bound_to 2456
   -5.3976   -5.3638    8.9385 H   0  0  0  0  0  0  0  0  0  0  0  0  # atno 2472 bound_to 2467
    2.0722   -7.6087    5.7086 H   0  0  0  0  0  0  0  0  0  0  0  0  # atno 2515 bound_to 2510
   -2.6115  -17.8793   13.3397 H   0  0  0  0  0  0  0  0  0  0  0  0  # atno 3721 bound_to 3712
   -3.9193  -22.8953   11.2956 H   0  0  0  0  0  0  0  0  0  0  0  0  # atno 3767 bound_to 3762
    1.6469  -19.7602    8.9636 H   0  0  0  0  0  0  0  0  0  0  0  0  # atno 3841 bound_to 3832
    3.7790   -8.6612    3.8496 LP  0  0  0  0  0  0  0  0  0  0  0  0  # atno 4297 bound_to 1298
    4.9098   -9.2563    4.8664 LP  0  0  0  0  0  0  0  0  0  0  0  0  # atno 4298 bound_to 1298
    0.3815   -8.9728    7.7840 LP  0  0  0  0  0  0  0  0  0  0  0  0  # atno 4299 bound_to 2456
    1.9387   -8.9177    8.2726 LP  0  0  0  0  0  0  0  0  0  0  0  0  # atno 4300 bound_to 2456
    2.7700   -8.1979    4.3553 LP  0  0  0  0  0  0  0  0  0  0  0  0  # atno 4301 bound_to 2510
    2.4547   -9.1929    5.6111 LP  0  0  0  0  0  0  0  0  0  0  0  0  # atno 4302 bound_to 2510
   -2.9538  -17.4734   14.8549 LP  0  0  0  0  0  0  0  0  0  0  0  0  # atno 4306 bound_to 3712
   -3.5589  -16.6110   13.6072 LP  0  0  0  0  0  0  0  0  0  0  0  0  # atno 4307 bound_to 3712
    3.0000  -20.2512    8.2537 LP  0  0  0  0  0  0  0  0  0  0  0  0  # atno 4314 bound_to 3832
    2.3270  -21.1282    9.4556 LP  0  0  0  0  0  0  0  0  0  0  0  0  # atno 4315 bound_to 3832
   -4.9808  -23.0589   10.0654 LP  0  0  0  0  0  0  0  0  0  0  0  0  # atno 4318 bound_to 3762
   -5.2270  -21.9209   11.2103 LP  0  0  0  0  0  0  0  0  0  0  0  0  # atno 4319 bound_to 3762
   -4.5454   -4.8088    7.6609 LP  0  0  0  0  0  0  0  0  0  0  0  0  # atno 4320 bound_to 2467
   -3.7741   -5.2210    9.0399 LP  0  0  0  0  0  0  0  0  0  0  0  0  # atno 4321 bound_to 2467

> <Gold.Score>
     Score     S(PLP)   S(hbond)     S(cho)   S(metal)  DE(clash)   DE(tors)     intcor
     47.17     -41.20       2.00       0.00       0.00       0.00       0.01       0.00

> <Gold.PLP.Fitness>
47.1744

> <Gold.PLP.PLP>
-41.1988

> <Gold.PLP.part.hbond>
-1.0000

> <Gold.PLP.part.metal>
0.0000

> <Gold.PLP.part.buried>
-3.4319

> <Gold.PLP.part.nonpolar>
-37.5164

> <Gold.PLP.part.repulsive>
0.0000

> <Gold.PLP.ligand.clash>
0.0000

> <Gold.PLP.ligand.torsion>
0.0124

> <Gold.PLP.Chemscore.Hbond>
2.0000

> <Gold.PLP.Chemscore.CHOScore>
0.0000

> <Gold.PLP.Chemscore.Metal>
0.0000

> <Gold.Chemscore.Hbonds>
donor molecule, donor type, donor heavy atom, donor atom, acceptor molecule, acceptor atom, score
      L1  H     2    28       P1  1227  2.00

> <Gold.PLP.Chemscore.Internal.Correction>
0.0003

