#       Name:                EN300-11723_i002
#       Creating user name   fsindt
#       Creation time:       Tue Feb 28 08:09:30 2023


#       File generated by GOLD software.
#

@<TRIPOS>MOLECULE
EN300-11723_i002|amine_7|mol2|4345|dock19
    28    29     1
SMALL
USER_CHARGES


@<TRIPOS>ATOM
      1 C1          -0.4506 -17.7321  11.1036 C.3            1 <1>                0.0000
      2 N2           0.4004 -16.5407  10.9832 N.4            1 <1>                1.0000
      3 C3          -0.4338 -15.3727  10.6703 C.3            1 <1>                0.0000
      4 C4          -0.3075 -14.3477  11.7956 C.3            1 <1>                0.0000
      5 C5          -1.0062 -13.0563  11.3538 C.3            1 <1>                0.0000
      6 C6          -0.1768 -12.4160  10.2425 C.3            1 <1>                0.0000
      7 C7           0.1271 -13.4209   9.1623 C.ar           1 <1>                0.0000
      8 C8           0.5375 -12.9381   7.9267 C.ar           1 <1>                0.0000
      9 C9           0.8358 -13.8076   6.8978 C.ar           1 <1>                0.0000
     10 C10          0.7256 -15.1709   7.0977 C.ar           1 <1>                0.0000
     11 C11          0.3158 -15.6526   8.3240 C.ar           1 <1>                0.0000
     12 C12          0.0142 -14.7790   9.3604 C.ar           1 <1>                0.0000
     13 H13         -1.1071 -17.6240  11.9669 H              1 <1>                0.0000
     14 H14         -1.0521 -17.8416  10.2012 H              1 <1>                0.0000
     15 H15          0.1759 -18.6147  11.2319 H              1 <1>                0.0000
     16 H16         -1.4741 -15.6866  10.5850 H              1 <1>                0.0000
     17 H17         -0.7834 -14.7324  12.6977 H              1 <1>                0.0000
     18 H18          0.7454 -14.1466  11.9925 H              1 <1>                0.0000
     19 H19         -2.0037 -13.2878  10.9805 H              1 <1>                0.0000
     20 H20         -1.0795 -12.3713  12.1984 H              1 <1>                0.0000
     21 H21         -0.7338 -11.5836   9.8125 H              1 <1>                0.0000
     22 H22          0.7584 -12.0440  10.6608 H              1 <1>                0.0000
     23 H23          0.6236 -11.8730   7.7696 H              1 <1>                0.0000
     24 H24          1.1539 -13.4245   5.9395 H              1 <1>                0.0000
     25 H25          0.9592 -15.8567   6.2968 H              1 <1>                0.0000
     26 H26          0.2290 -16.7179   8.4791 H              1 <1>                0.0000
     27 H27          0.8852 -16.3843  11.8542 H              1 <1>                0.0000
     28 H28          1.0731 -16.6812  10.2444 H              1 <1>                0.0000
@<TRIPOS>BOND
    1    1    2 1     
    2    1   13 1     
    3    1   14 1     
    4    1   15 1     
    5    2    3 1     
    6    2   27 1     
    7    2   28 1     
    8    3    4 1     
    9    3   12 1     
   10    3   16 1     
   11    4    5 1     
   12    4   17 1     
   13    4   18 1     
   14    5    6 1     
   15    5   19 1     
   16    5   20 1     
   17    6    7 1     
   18    6   21 1     
   19    6   22 1     
   20    7    8 ar    
   21    7   12 ar    
   22    8    9 ar    
   23    8   23 1     
   24    9   10 ar    
   25    9   24 1     
   26   10   11 ar    
   27   10   25 1     
   28   11   12 ar    
   29   11   26 1     
@<TRIPOS>SUBSTRUCTURE
      1 ****           1
@<TRIPOS>SET
DONOR_HYDROGENS      STATIC     ATOMS    <user>   **** ""
2 27 28
ATOM$RED        STATIC     ATOMS    COLORGROUP SYSTEM
2 27 28
@<TRIPOS>COMMENT
> <Gold.Version>
2022.2.0

> <Gold.Id.Protein>
3pbl|protein|mol2

> <Gold.Protein.RotatedTorsions>
[ 1303 1298 1297 1294 ] final   64.22 input  179.99 | X-H torsion
[ 2461 2456 2455 2452 ] final   87.68 input   30.03 | X-H torsion
[ 2515 2510 2509 2506 ] final   14.62 input  -89.99 | X-H torsion
[ 3721 3712 3711 3710 ] final  106.41 input -179.91 | X-H torsion
[ 3841 3832 3831 3830 ] final  139.63 input -179.91 | X-H torsion
[ 3767 3762 3761 3758 ] final  -68.47 input  -89.99 | X-H torsion
[ 2472 2467 2466 2463 ] final   62.78 input  -89.97 | X-H torsion

> <Gold.Protein.ActiveResidues>
 VAL82   VAL86   LEU89   PHE106  VAL107  ASP110  VAL111  MET112  CYS114  THR115 
 CYS181  SER182  ILE183  PHE188  VAL189  ILE190  SER192  SER193  SER196  TRP342 
 PHE345  PHE346  HIS349  VAL350  TYR365  THR369  GLY372  TYR373 

> <Gold.Protein.RotatedAtoms>
    4.0660  -10.2631    4.6714 H   0  0  0  0  0  0  0  0  0  0  0  0  # atno 1303 bound_to 1298
    2.1292   -8.2730    7.6951 H   0  0  0  0  0  0  0  0  0  0  0  0  # atno 2461 bound_to 2456
   -4.6883   -4.8257    7.6620 H   0  0  0  0  0  0  0  0  0  0  0  0  # atno 2472 bound_to 2467
    2.4393   -7.5006    4.7832 H   0  0  0  0  0  0  0  0  0  0  0  0  # atno 2515 bound_to 2510
   -2.9066  -17.4110   13.0380 H   0  0  0  0  0  0  0  0  0  0  0  0  # atno 3721 bound_to 3712
   -5.4143  -22.0029   10.9270 H   0  0  0  0  0  0  0  0  0  0  0  0  # atno 3767 bound_to 3762
    3.1331  -20.5252    8.7283 H   0  0  0  0  0  0  0  0  0  0  0  0  # atno 3841 bound_to 3832
    3.4645   -9.0366    3.7768 LP  0  0  0  0  0  0  0  0  0  0  0  0  # atno 4297 bound_to 1298
    4.8317   -8.8212    4.6433 LP  0  0  0  0  0  0  0  0  0  0  0  0  # atno 4298 bound_to 1298
    0.5959   -8.2466    7.1334 LP  0  0  0  0  0  0  0  0  0  0  0  0  # atno 4299 bound_to 2456
    1.0129   -9.2884    8.3197 LP  0  0  0  0  0  0  0  0  0  0  0  0  # atno 4300 bound_to 2456
    2.7783   -9.0977    4.7956 LP  0  0  0  0  0  0  0  0  0  0  0  0  # atno 4301 bound_to 2510
    2.0792   -8.4012    6.0967 LP  0  0  0  0  0  0  0  0  0  0  0  0  # atno 4302 bound_to 2510
   -2.6764  -18.0111   14.5093 LP  0  0  0  0  0  0  0  0  0  0  0  0  # atno 4306 bound_to 3712
   -3.4955  -16.6138   14.3012 LP  0  0  0  0  0  0  0  0  0  0  0  0  # atno 4307 bound_to 3712
    1.7879  -20.8507    9.5410 LP  0  0  0  0  0  0  0  0  0  0  0  0  # atno 4314 bound_to 3832
    1.8223  -19.6450    8.4402 LP  0  0  0  0  0  0  0  0  0  0  0  0  # atno 4315 bound_to 3832
   -4.0259  -22.6379   11.5065 LP  0  0  0  0  0  0  0  0  0  0  0  0  # atno 4318 bound_to 3762
   -4.6875  -23.2340   10.1377 LP  0  0  0  0  0  0  0  0  0  0  0  0  # atno 4319 bound_to 3762
   -3.7084   -5.1712    8.9218 LP  0  0  0  0  0  0  0  0  0  0  0  0  # atno 4320 bound_to 2467
   -5.3203   -5.3966    9.0552 LP  0  0  0  0  0  0  0  0  0  0  0  0  # atno 4321 bound_to 2467

> <Gold.Score>
     Score     S(PLP)   S(hbond)     S(cho)   S(metal)  DE(clash)   DE(tors)     intcor
     40.34     -35.84       2.00       0.00       0.00       0.00       0.75       0.00

> <Gold.PLP.Fitness>
40.3386

> <Gold.PLP.PLP>
-35.8368

> <Gold.PLP.part.hbond>
-1.0000

> <Gold.PLP.part.metal>
0.0000

> <Gold.PLP.part.buried>
-2.4622

> <Gold.PLP.part.nonpolar>
-32.9734

> <Gold.PLP.part.repulsive>
0.0000

> <Gold.PLP.ligand.clash>
0.0000

> <Gold.PLP.ligand.torsion>
0.7492

> <Gold.PLP.Chemscore.Hbond>
2.0000

> <Gold.PLP.Chemscore.CHOScore>
0.0000

> <Gold.PLP.Chemscore.Metal>
0.0000

> <Gold.Chemscore.Hbonds>
donor molecule, donor type, donor heavy atom, donor atom, acceptor molecule, acceptor atom, score
      L1  H     2    28       P1  1227  2.00

> <Gold.PLP.Chemscore.Internal.Correction>
0.0003

