#       Name:                EN300-11723_i002
#       Creating user name   fsindt
#       Creation time:       Tue Feb 28 08:09:29 2023


#       File generated by GOLD software.
#

@<TRIPOS>MOLECULE
EN300-11723_i002|amine_7|mol2|4345|dock15
    28    29     1
SMALL
USER_CHARGES


@<TRIPOS>ATOM
      1 C1          -0.7022 -18.5178   9.7848 C.3            1 <1>                0.0000
      2 N2           0.4668 -19.1824  10.3764 N.4            1 <1>                1.0000
      3 C3           0.1365 -19.6378  11.7335 C.3            1 <1>                0.0000
      4 C4           0.6165 -21.0766  11.9127 C.3            1 <1>                0.0000
      5 C5           0.4605 -21.4579  13.3896 C.3            1 <1>                0.0000
      6 C6           1.4895 -20.6733  14.2009 C.3            1 <1>                0.0000
      7 C7           1.4149 -19.2050  13.8727 C.ar           1 <1>                0.0000
      8 C8           1.9990 -18.3129  14.7623 C.ar           1 <1>                0.0000
      9 C9           1.9689 -16.9558  14.5159 C.ar           1 <1>                0.0000
     10 C10          1.3527 -16.4791  13.3741 C.ar           1 <1>                0.0000
     11 C11          0.7698 -17.3636  12.4900 C.ar           1 <1>                0.0000
     12 C12          0.7982 -18.7298  12.7369 C.ar           1 <1>                0.0000
     13 H13         -1.5012 -19.2457   9.6437 H              1 <1>                0.0000
     14 H14         -1.0454 -17.7260  10.4505 H              1 <1>                0.0000
     15 H15         -0.4272 -18.0888   8.8213 H              1 <1>                0.0000
     16 H16         -0.9439 -19.5994  11.8724 H              1 <1>                0.0000
     17 H17          0.0148 -21.7440  11.2957 H              1 <1>                0.0000
     18 H18          1.6644 -21.1528  11.6226 H              1 <1>                0.0000
     19 H19         -0.5441 -21.2064  13.7295 H              1 <1>                0.0000
     20 H20          0.6334 -22.5269  13.5130 H              1 <1>                0.0000
     21 H21          1.2927 -20.8144  15.2636 H              1 <1>                0.0000
     22 H22          2.4881 -21.0432  13.9687 H              1 <1>                0.0000
     23 H23          2.4803 -18.6846  15.6549 H              1 <1>                0.0000
     24 H24          2.4248 -16.2682  15.2127 H              1 <1>                0.0000
     25 H25          1.3273 -15.4179  13.1748 H              1 <1>                0.0000
     26 H26          0.2877 -16.9903  11.5986 H              1 <1>                0.0000
     27 H27          0.7256 -19.9757   9.8091 H              1 <1>                0.0000
     28 H28          1.2378 -18.5328  10.4179 H              1 <1>                0.0000
@<TRIPOS>BOND
    1    1    2 1     
    2    1   13 1     
    3    1   14 1     
    4    1   15 1     
    5    2    3 1     
    6    2   27 1     
    7    2   28 1     
    8    3    4 1     
    9    3   12 1     
   10    3   16 1     
   11    4    5 1     
   12    4   17 1     
   13    4   18 1     
   14    5    6 1     
   15    5   19 1     
   16    5   20 1     
   17    6    7 1     
   18    6   21 1     
   19    6   22 1     
   20    7    8 ar    
   21    7   12 ar    
   22    8    9 ar    
   23    8   23 1     
   24    9   10 ar    
   25    9   24 1     
   26   10   11 ar    
   27   10   25 1     
   28   11   12 ar    
   29   11   26 1     
@<TRIPOS>SUBSTRUCTURE
      1 ****           1
@<TRIPOS>SET
DONOR_HYDROGENS      STATIC     ATOMS    <user>   **** ""
2 27 28
ATOM$RED        STATIC     ATOMS    COLORGROUP SYSTEM
2 27 28
@<TRIPOS>COMMENT
> <Gold.Version>
2022.2.0

> <Gold.Id.Protein>
3pbl|protein|mol2

> <Gold.Protein.RotatedTorsions>
[ 1303 1298 1297 1294 ] final  161.14 input  179.99 | X-H torsion
[ 2461 2456 2455 2452 ] final  -98.14 input   30.03 | X-H torsion
[ 2515 2510 2509 2506 ] final -169.04 input  -89.99 | X-H torsion
[ 3721 3712 3711 3710 ] final -148.06 input -179.91 | X-H torsion
[ 3841 3832 3831 3830 ] final -179.16 input -179.91 | X-H torsion
[ 3767 3762 3761 3758 ] final  -61.70 input  -89.99 | X-H torsion
[ 2472 2467 2466 2463 ] final  144.78 input  -89.97 | X-H torsion

> <Gold.Protein.ActiveResidues>
 VAL82   VAL86   LEU89   PHE106  VAL107  ASP110  VAL111  MET112  CYS114  THR115 
 CYS181  SER182  ILE183  PHE188  VAL189  ILE190  SER192  SER193  SER196  TRP342 
 PHE345  PHE346  HIS349  VAL350  TYR365  THR369  GLY372  TYR373 

> <Gold.Protein.RotatedAtoms>
    4.9106   -9.1431    4.8237 H   0  0  0  0  0  0  0  0  0  0  0  0  # atno 1303 bound_to 1298
    0.3916   -8.9918    7.8065 H   0  0  0  0  0  0  0  0  0  0  0  0  # atno 2461 bound_to 2456
   -5.5099   -5.2180    8.4996 H   0  0  0  0  0  0  0  0  0  0  0  0  # atno 2472 bound_to 2467
    2.3996   -9.1380    5.7141 H   0  0  0  0  0  0  0  0  0  0  0  0  # atno 2515 bound_to 2510
   -3.3224  -16.5335   14.0175 H   0  0  0  0  0  0  0  0  0  0  0  0  # atno 3721 bound_to 3712
   -5.4544  -22.0478   10.8334 H   0  0  0  0  0  0  0  0  0  0  0  0  # atno 3767 bound_to 3762
    2.9505  -20.0405    8.4074 H   0  0  0  0  0  0  0  0  0  0  0  0  # atno 3841 bound_to 3832
    3.7611  -10.2410    4.4502 LP  0  0  0  0  0  0  0  0  0  0  0  0  # atno 4297 bound_to 1298
    3.6902   -8.7373    3.8175 LP  0  0  0  0  0  0  0  0  0  0  0  0  # atno 4298 bound_to 1298
    1.9580   -8.8975    8.2591 LP  0  0  0  0  0  0  0  0  0  0  0  0  # atno 4299 bound_to 2456
    1.3879   -7.9190    7.0826 LP  0  0  0  0  0  0  0  0  0  0  0  0  # atno 4300 bound_to 2456
    2.1001   -7.5367    5.6052 LP  0  0  0  0  0  0  0  0  0  0  0  0  # atno 4301 bound_to 2510
    2.7970   -8.3240    4.3557 LP  0  0  0  0  0  0  0  0  0  0  0  0  # atno 4302 bound_to 2510
   -2.9577  -17.7491   13.0340 LP  0  0  0  0  0  0  0  0  0  0  0  0  # atno 4306 bound_to 3712
   -2.7342  -17.8890   14.6456 LP  0  0  0  0  0  0  0  0  0  0  0  0  # atno 4307 bound_to 3712
    2.3859  -21.1408    9.4305 LP  0  0  0  0  0  0  0  0  0  0  0  0  # atno 4314 bound_to 3832
    1.4352  -19.9146    8.9213 LP  0  0  0  0  0  0  0  0  0  0  0  0  # atno 4315 bound_to 3832
   -4.0801  -22.5541   11.5556 LP  0  0  0  0  0  0  0  0  0  0  0  0  # atno 4318 bound_to 3762
   -4.5932  -23.2729   10.1821 LP  0  0  0  0  0  0  0  0  0  0  0  0  # atno 4319 bound_to 3762
   -4.0910   -4.8098    7.8022 LP  0  0  0  0  0  0  0  0  0  0  0  0  # atno 4320 bound_to 2467
   -4.1162   -5.3658    9.3374 LP  0  0  0  0  0  0  0  0  0  0  0  0  # atno 4321 bound_to 2467

> <Gold.Score>
     Score     S(PLP)   S(hbond)     S(cho)   S(metal)  DE(clash)   DE(tors)     intcor
     41.41     -34.26       2.82       0.00       0.00       0.00       0.65       0.00

> <Gold.PLP.Fitness>
41.4060

> <Gold.PLP.PLP>
-34.2592

> <Gold.PLP.part.hbond>
-2.0000

> <Gold.PLP.part.metal>
0.0000

> <Gold.PLP.part.buried>
-3.2874

> <Gold.PLP.part.nonpolar>
-29.4606

> <Gold.PLP.part.repulsive>
0.0000

> <Gold.PLP.ligand.clash>
0.0000

> <Gold.PLP.ligand.torsion>
0.6507

> <Gold.PLP.Chemscore.Hbond>
2.8160

> <Gold.PLP.Chemscore.CHOScore>
0.0000

> <Gold.PLP.Chemscore.Metal>
0.0000

> <Gold.Chemscore.Hbonds>
donor molecule, donor type, donor heavy atom, donor atom, acceptor molecule, acceptor atom, score
      L1  H     2    27       P1  3832  0.82
      L1  H     2    28       P1  1227  2.00

> <Gold.PLP.Chemscore.Internal.Correction>
0.0003

