#       Name:                EN300-11723_i002
#       Creating user name   fsindt
#       Creation time:       Tue Feb 28 08:09:25 2023


#       File generated by GOLD software.
#

@<TRIPOS>MOLECULE
EN300-11723_i002|amine_7|mol2|4345|dock1
    28    29     1
SMALL
USER_CHARGES


@<TRIPOS>ATOM
      1 C1           1.4458 -11.6997   6.0501 C.3            1 <1>                0.0000
      2 N2           1.0588 -11.3367   7.4200 N.4            1 <1>                1.0000
      3 C3           0.2132 -12.3957   7.9869 C.3            1 <1>                0.0000
      4 C4           1.0864 -13.5920   8.3599 C.3            1 <1>                0.0000
      5 C5           0.2274 -14.5922   9.1426 C.3            1 <1>                0.0000
      6 C6          -0.0899 -13.9886  10.5092 C.3            1 <1>                0.0000
      7 C7          -0.6462 -12.5970  10.3573 C.ar           1 <1>                0.0000
      8 C8          -1.3252 -12.0504  11.4383 C.ar           1 <1>                0.0000
      9 C9          -1.8538 -10.7782  11.3638 C.ar           1 <1>                0.0000
     10 C10         -1.7066 -10.0406  10.2041 C.ar           1 <1>                0.0000
     11 C11         -1.0342 -10.5827   9.1282 C.ar           1 <1>                0.0000
     12 C12         -0.5025 -11.8634   9.2008 C.ar           1 <1>                0.0000
     13 H13          2.0877 -12.5803   6.0752 H              1 <1>                0.0000
     14 H14          0.5519 -11.9183   5.4659 H              1 <1>                0.0000
     15 H15          1.9849 -10.8700   5.5929 H              1 <1>                0.0000
     16 H16         -0.5218 -12.7050   7.2438 H              1 <1>                0.0000
     17 H17          1.4675 -14.0648   7.4546 H              1 <1>                0.0000
     18 H18          1.9193 -13.2596   8.9795 H              1 <1>                0.0000
     19 H19         -0.6993 -14.7827   8.6013 H              1 <1>                0.0000
     20 H20          0.7761 -15.5251   9.2717 H              1 <1>                0.0000
     21 H21         -0.8228 -14.6151  11.0175 H              1 <1>                0.0000
     22 H22          0.8221 -13.9481  11.1047 H              1 <1>                0.0000
     23 H23         -1.4409 -12.6262  12.3447 H              1 <1>                0.0000
     24 H24         -2.3810 -10.3601  12.2086 H              1 <1>                0.0000
     25 H25         -2.1168  -9.0436  10.1403 H              1 <1>                0.0000
     26 H26         -0.9205 -10.0062   8.2220 H              1 <1>                0.0000
     27 H27          1.8871 -11.2285   7.9860 H              1 <1>                0.0000
     28 H28          0.5456 -10.4680   7.4055 H              1 <1>                0.0000
@<TRIPOS>BOND
    1    1    2 1     
    2    1   13 1     
    3    1   14 1     
    4    1   15 1     
    5    2    3 1     
    6    2   27 1     
    7    2   28 1     
    8    3    4 1     
    9    3   12 1     
   10    3   16 1     
   11    4    5 1     
   12    4   17 1     
   13    4   18 1     
   14    5    6 1     
   15    5   19 1     
   16    5   20 1     
   17    6    7 1     
   18    6   21 1     
   19    6   22 1     
   20    7    8 ar    
   21    7   12 ar    
   22    8    9 ar    
   23    8   23 1     
   24    9   10 ar    
   25    9   24 1     
   26   10   11 ar    
   27   10   25 1     
   28   11   12 ar    
   29   11   26 1     
@<TRIPOS>SUBSTRUCTURE
      1 ****           1
@<TRIPOS>SET
DONOR_HYDROGENS      STATIC     ATOMS    <user>   **** ""
2 27 28
ATOM$RED        STATIC     ATOMS    COLORGROUP SYSTEM
2 27 28
@<TRIPOS>COMMENT
> <Gold.Version>
2022.2.0

> <Gold.Id.Protein>
3pbl|protein|mol2

> <Gold.Protein.RotatedTorsions>
[ 1303 1298 1297 1294 ] final   20.05 input  179.99 | X-H torsion
[ 2461 2456 2455 2452 ] final   65.29 input   30.03 | X-H torsion
[ 2515 2510 2509 2506 ] final  106.45 input  -89.99 | X-H torsion
[ 3721 3712 3711 3710 ] final  123.33 input -179.91 | X-H torsion
[ 3841 3832 3831 3830 ] final -136.89 input -179.91 | X-H torsion
[ 3767 3762 3761 3758 ] final   68.48 input  -89.99 | X-H torsion
[ 2472 2467 2466 2463 ] final  167.30 input  -89.97 | X-H torsion

> <Gold.Protein.ActiveResidues>
 VAL82   VAL86   LEU89   PHE106  VAL107  ASP110  VAL111  MET112  CYS114  THR115 
 CYS181  SER182  ILE183  PHE188  VAL189  ILE190  SER192  SER193  SER196  TRP342 
 PHE345  PHE346  HIS349  VAL350  TYR365  THR369  GLY372  TYR373 

> <Gold.Protein.RotatedAtoms>
    3.5315  -10.0983    4.2360 H   0  0  0  0  0  0  0  0  0  0  0  0  # atno 1303 bound_to 1298
    1.9709   -8.0687    7.4357 H   0  0  0  0  0  0  0  0  0  0  0  0  # atno 2461 bound_to 2456
   -5.4440   -5.3344    8.8426 H   0  0  0  0  0  0  0  0  0  0  0  0  # atno 2472 bound_to 2467
    2.0289   -7.9577    5.9897 H   0  0  0  0  0  0  0  0  0  0  0  0  # atno 2515 bound_to 2510
   -3.0331  -17.1897   13.0430 H   0  0  0  0  0  0  0  0  0  0  0  0  # atno 3721 bound_to 3712
   -4.4542  -23.3140   10.2659 H   0  0  0  0  0  0  0  0  0  0  0  0  # atno 3767 bound_to 3762
    2.4546  -19.6625    8.3761 H   0  0  0  0  0  0  0  0  0  0  0  0  # atno 3841 bound_to 3832
    3.9580   -8.5518    3.9316 LP  0  0  0  0  0  0  0  0  0  0  0  0  # atno 4297 bound_to 1298
    4.8729   -9.4709    4.9240 LP  0  0  0  0  0  0  0  0  0  0  0  0  # atno 4298 bound_to 1298
    0.3994   -8.4968    7.3147 LP  0  0  0  0  0  0  0  0  0  0  0  0  # atno 4299 bound_to 2456
    1.3677   -9.2426    8.3977 LP  0  0  0  0  0  0  0  0  0  0  0  0  # atno 4300 bound_to 2456
    2.6289   -7.7889    4.4806 LP  0  0  0  0  0  0  0  0  0  0  0  0  # atno 4301 bound_to 2510
    2.6391   -9.2527    5.2046 LP  0  0  0  0  0  0  0  0  0  0  0  0  # atno 4302 bound_to 2510
   -2.6218  -18.1440   14.2669 LP  0  0  0  0  0  0  0  0  0  0  0  0  # atno 4306 bound_to 3712
   -3.4042  -16.7365   14.5379 LP  0  0  0  0  0  0  0  0  0  0  0  0  # atno 4307 bound_to 3712
    2.9314  -21.0551    9.0159 LP  0  0  0  0  0  0  0  0  0  0  0  0  # atno 4314 bound_to 3832
    1.4625  -20.4370    9.3721 LP  0  0  0  0  0  0  0  0  0  0  0  0  # atno 4315 bound_to 3832
   -5.4953  -22.1309   10.6939 LP  0  0  0  0  0  0  0  0  0  0  0  0  # atno 4318 bound_to 3762
   -4.1778  -22.4304   11.6111 LP  0  0  0  0  0  0  0  0  0  0  0  0  # atno 4319 bound_to 3762
   -4.4359   -4.8014    7.6738 LP  0  0  0  0  0  0  0  0  0  0  0  0  # atno 4320 bound_to 2467
   -3.8372   -5.2578    9.1229 LP  0  0  0  0  0  0  0  0  0  0  0  0  # atno 4321 bound_to 2467

> <Gold.Score>
     Score     S(PLP)   S(hbond)     S(cho)   S(metal)  DE(clash)   DE(tors)     intcor
     47.58     -46.64       0.40       0.00       0.00       0.00       0.12       0.00

> <Gold.PLP.Fitness>
47.5771

> <Gold.PLP.PLP>
-46.6361

> <Gold.PLP.part.hbond>
-1.0000

> <Gold.PLP.part.metal>
0.0000

> <Gold.PLP.part.buried>
-3.4442

> <Gold.PLP.part.nonpolar>
-42.8897

> <Gold.PLP.part.repulsive>
0.0000

> <Gold.PLP.ligand.clash>
0.0000

> <Gold.PLP.ligand.torsion>
0.1229

> <Gold.PLP.Chemscore.Hbond>
0.3955

> <Gold.PLP.Chemscore.CHOScore>
0.0000

> <Gold.PLP.Chemscore.Metal>
0.0000

> <Gold.Chemscore.Hbonds>
donor molecule, donor type, donor heavy atom, donor atom, acceptor molecule, acceptor atom, score
      L1  H     2    28       P1  2456  0.40

> <Gold.PLP.Chemscore.Internal.Correction>
0.0005

