#       Name:                EN300-11723_i002
#       Creating user name   fsindt
#       Creation time:       Tue Feb 28 08:09:26 2023


#       File generated by GOLD software.
#

@<TRIPOS>MOLECULE
EN300-11723_i002|amine_7|mol2|4345|dock4
    28    29     1
SMALL
USER_CHARGES


@<TRIPOS>ATOM
      1 C1          -0.1723 -15.8919   7.8032 C.3            1 <1>                0.0000
      2 N2           1.2533 -15.5932   7.9942 N.4            1 <1>                1.0000
      3 C3           1.4194 -14.1626   8.2836 C.3            1 <1>                0.0000
      4 C4           1.0340 -13.3509   7.0486 C.3            1 <1>                0.0000
      5 C5           1.0051 -11.8673   7.4348 C.3            1 <1>                0.0000
      6 C6          -0.1891 -11.6331   8.3577 C.3            1 <1>                0.0000
      7 C7          -0.1845 -12.6245   9.4919 C.ar           1 <1>                0.0000
      8 C8          -0.9595 -12.3350  10.6071 C.ar           1 <1>                0.0000
      9 C9          -1.0017 -13.2054  11.6769 C.ar           1 <1>                0.0000
     10 C10         -0.2670 -14.3755  11.6390 C.ar           1 <1>                0.0000
     11 C11          0.5055 -14.6639  10.5328 C.ar           1 <1>                0.0000
     12 C12          0.5501 -13.7887   9.4556 C.ar           1 <1>                0.0000
     13 H13         -0.7047 -15.7376   8.7417 H              1 <1>                0.0000
     14 H14         -0.5828 -15.2311   7.0398 H              1 <1>                0.0000
     15 H15         -0.2871 -16.9285   7.4866 H              1 <1>                0.0000
     16 H16          2.4621 -13.9650   8.5326 H              1 <1>                0.0000
     17 H17          1.7694 -13.5107   6.2600 H              1 <1>                0.0000
     18 H18          0.0483 -13.6587   6.6998 H              1 <1>                0.0000
     19 H19          1.9270 -11.6050   7.9537 H              1 <1>                0.0000
     20 H20          0.9014 -11.2565   6.5381 H              1 <1>                0.0000
     21 H21         -0.1371 -10.6228   8.7634 H              1 <1>                0.0000
     22 H22         -1.1113 -11.7438   7.7874 H              1 <1>                0.0000
     23 H23         -1.5337 -11.4208  10.6376 H              1 <1>                0.0000
     24 H24         -1.6065 -12.9730  12.5409 H              1 <1>                0.0000
     25 H25         -0.2972 -15.0615  12.4726 H              1 <1>                0.0000
     26 H26          1.0801 -15.5780  10.5044 H              1 <1>                0.0000
     27 H27          1.6102 -16.1363   8.7661 H              1 <1>                0.0000
     28 H28          1.7615 -15.8278   7.1546 H              1 <1>                0.0000
@<TRIPOS>BOND
    1    1    2 1     
    2    1   13 1     
    3    1   14 1     
    4    1   15 1     
    5    2    3 1     
    6    2   27 1     
    7    2   28 1     
    8    3    4 1     
    9    3   12 1     
   10    3   16 1     
   11    4    5 1     
   12    4   17 1     
   13    4   18 1     
   14    5    6 1     
   15    5   19 1     
   16    5   20 1     
   17    6    7 1     
   18    6   21 1     
   19    6   22 1     
   20    7    8 ar    
   21    7   12 ar    
   22    8    9 ar    
   23    8   23 1     
   24    9   10 ar    
   25    9   24 1     
   26   10   11 ar    
   27   10   25 1     
   28   11   12 ar    
   29   11   26 1     
@<TRIPOS>SUBSTRUCTURE
      1 ****           1
@<TRIPOS>SET
DONOR_HYDROGENS      STATIC     ATOMS    <user>   **** ""
2 27 28
ATOM$RED        STATIC     ATOMS    COLORGROUP SYSTEM
2 27 28
@<TRIPOS>COMMENT
> <Gold.Version>
2022.2.0

> <Gold.Id.Protein>
3pbl|protein|mol2

> <Gold.Protein.RotatedTorsions>
[ 1303 1298 1297 1294 ] final  168.94 input  179.99 | X-H torsion
[ 2461 2456 2455 2452 ] final   53.55 input   30.03 | X-H torsion
[ 2515 2510 2509 2506 ] final -135.33 input  -89.99 | X-H torsion
[ 3721 3712 3711 3710 ] final -146.73 input -179.91 | X-H torsion
[ 3841 3832 3831 3830 ] final  -17.73 input -179.91 | X-H torsion
[ 3767 3762 3761 3758 ] final   46.13 input  -89.99 | X-H torsion
[ 2472 2467 2466 2463 ] final  -54.40 input  -89.97 | X-H torsion

> <Gold.Protein.ActiveResidues>
 VAL82   VAL86   LEU89   PHE106  VAL107  ASP110  VAL111  MET112  CYS114  THR115 
 CYS181  SER182  ILE183  PHE188  VAL189  ILE190  SER192  SER193  SER196  TRP342 
 PHE345  PHE346  HIS349  VAL350  TYR365  THR369  GLY372  TYR373 

> <Gold.Protein.RotatedAtoms>
    4.8977   -9.0273    4.7698 H   0  0  0  0  0  0  0  0  0  0  0  0  # atno 1303 bound_to 1298
    1.8419   -7.9922    7.3142 H   0  0  0  0  0  0  0  0  0  0  0  0  # atno 2461 bound_to 2456
   -3.6914   -5.1556    8.8815 H   0  0  0  0  0  0  0  0  0  0  0  0  # atno 2472 bound_to 2467
    2.6284   -9.2548    5.2316 H   0  0  0  0  0  0  0  0  0  0  0  0  # atno 2515 bound_to 2510
   -3.3195  -16.5354   14.0373 H   0  0  0  0  0  0  0  0  0  0  0  0  # atno 3721 bound_to 3712
   -4.7625  -23.1965   10.1089 H   0  0  0  0  0  0  0  0  0  0  0  0  # atno 3767 bound_to 3762
    1.6150  -20.2774    9.4465 H   0  0  0  0  0  0  0  0  0  0  0  0  # atno 3841 bound_to 3832
    3.8601  -10.2648    4.5283 LP  0  0  0  0  0  0  0  0  0  0  0  0  # atno 4297 bound_to 1298
    3.6040   -8.8293    3.7933 LP  0  0  0  0  0  0  0  0  0  0  0  0  # atno 4298 bound_to 1298
    0.3463   -8.6369    7.4361 LP  0  0  0  0  0  0  0  0  0  0  0  0  # atno 4299 bound_to 2456
    1.5498   -9.1789    8.3977 LP  0  0  0  0  0  0  0  0  0  0  0  0  # atno 4300 bound_to 2456
    2.0286   -7.9316    5.9766 LP  0  0  0  0  0  0  0  0  0  0  0  0  # atno 4301 bound_to 2510
    2.6397   -7.8123    4.4670 LP  0  0  0  0  0  0  0  0  0  0  0  0  # atno 4302 bound_to 2510
   -2.9685  -17.7316   13.0255 LP  0  0  0  0  0  0  0  0  0  0  0  0  # atno 4306 bound_to 3712
   -2.7268  -17.9042   14.6313 LP  0  0  0  0  0  0  0  0  0  0  0  0  # atno 4307 bound_to 3712
    2.4125  -19.7413    8.1609 LP  0  0  0  0  0  0  0  0  0  0  0  0  # atno 4314 bound_to 3832
    2.9513  -21.0406    8.9906 LP  0  0  0  0  0  0  0  0  0  0  0  0  # atno 4315 bound_to 3832
   -5.3755  -21.9740   11.0013 LP  0  0  0  0  0  0  0  0  0  0  0  0  # atno 4318 bound_to 3762
   -3.9893  -22.7048   11.4606 LP  0  0  0  0  0  0  0  0  0  0  0  0  # atno 4319 bound_to 3762
   -5.2914   -5.4061    9.0905 LP  0  0  0  0  0  0  0  0  0  0  0  0  # atno 4320 bound_to 2467
   -4.7340   -4.8318    7.6671 LP  0  0  0  0  0  0  0  0  0  0  0  0  # atno 4321 bound_to 2467

> <Gold.Score>
     Score     S(PLP)   S(hbond)     S(cho)   S(metal)  DE(clash)   DE(tors)     intcor
     48.86     -42.90       2.00       0.00       0.00       0.00       0.02       0.00

> <Gold.PLP.Fitness>
48.8591

> <Gold.PLP.PLP>
-42.8969

> <Gold.PLP.part.hbond>
-1.0000

> <Gold.PLP.part.metal>
0.0000

> <Gold.PLP.part.buried>
-3.5396

> <Gold.PLP.part.nonpolar>
-39.2879

> <Gold.PLP.part.repulsive>
0.0343

> <Gold.PLP.ligand.clash>
0.0000

> <Gold.PLP.ligand.torsion>
0.0190

> <Gold.PLP.Chemscore.Hbond>
2.0000

> <Gold.PLP.Chemscore.CHOScore>
0.0000

> <Gold.PLP.Chemscore.Metal>
0.0000

> <Gold.Chemscore.Hbonds>
donor molecule, donor type, donor heavy atom, donor atom, acceptor molecule, acceptor atom, score
      L1  H     2    27       P1  1227  2.00

> <Gold.PLP.Chemscore.Internal.Correction>
0.0003

