#       Name:                EN300-11723_i002
#       Creating user name   fsindt
#       Creation time:       Tue Feb 28 08:09:29 2023


#       File generated by GOLD software.
#

@<TRIPOS>MOLECULE
EN300-11723_i002|amine_7|mol2|4345|dock14
    28    29     1
SMALL
USER_CHARGES


@<TRIPOS>ATOM
      1 C1           1.0268 -14.8246   7.2637 C.3            1 <1>                0.0000
      2 N2           1.0820 -15.2011   8.6826 N.4            1 <1>                1.0000
      3 C3          -0.1003 -16.0039   9.0226 C.3            1 <1>                0.0000
      4 C4          -0.0784 -17.2998   8.2146 C.3            1 <1>                0.0000
      5 C5          -1.1930 -18.2141   8.7369 C.3            1 <1>                0.0000
      6 C6          -0.8039 -18.6994  10.1317 C.3            1 <1>                0.0000
      7 C7          -0.4197 -17.5368  11.0091 C.ar           1 <1>                0.0000
      8 C8          -0.4001 -17.7417  12.3824 C.ar           1 <1>                0.0000
      9 C9          -0.0516 -16.7180  13.2393 C.ar           1 <1>                0.0000
     10 C10          0.2811 -15.4778  12.7275 C.ar           1 <1>                0.0000
     11 C11          0.2600 -15.2716  11.3634 C.ar           1 <1>                0.0000
     12 C12         -0.0915 -16.3003  10.4994 C.ar           1 <1>                0.0000
     13 H13          1.1151 -15.7189   6.6468 H              1 <1>                0.0000
     14 H14          0.0773 -14.3318   7.0552 H              1 <1>                0.0000
     15 H15          1.8471 -14.1439   7.0362 H              1 <1>                0.0000
     16 H16         -1.0002 -15.4410   8.7748 H              1 <1>                0.0000
     17 H17         -0.2487 -17.0785   7.1609 H              1 <1>                0.0000
     18 H18          0.8867 -17.7917   8.3356 H              1 <1>                0.0000
     19 H19         -2.1292 -17.6583   8.7895 H              1 <1>                0.0000
     20 H20         -1.3097 -19.0683   8.0701 H              1 <1>                0.0000
     21 H21         -1.6488 -19.2232  10.5788 H              1 <1>                0.0000
     22 H22          0.0407 -19.3837  10.0515 H              1 <1>                0.0000
     23 H23         -0.6602 -18.7103  12.7832 H              1 <1>                0.0000
     24 H24         -0.0392 -16.8849  14.3062 H              1 <1>                0.0000
     25 H25          0.5562 -14.6730  13.3930 H              1 <1>                0.0000
     26 H26          0.5191 -14.3020  10.9643 H              1 <1>                0.0000
     27 H27          1.9165 -15.7415   8.8549 H              1 <1>                0.0000
     28 H28          1.0976 -14.3677   9.2513 H              1 <1>                0.0000
@<TRIPOS>BOND
    1    1    2 1     
    2    1   13 1     
    3    1   14 1     
    4    1   15 1     
    5    2    3 1     
    6    2   27 1     
    7    2   28 1     
    8    3    4 1     
    9    3   12 1     
   10    3   16 1     
   11    4    5 1     
   12    4   17 1     
   13    4   18 1     
   14    5    6 1     
   15    5   19 1     
   16    5   20 1     
   17    6    7 1     
   18    6   21 1     
   19    6   22 1     
   20    7    8 ar    
   21    7   12 ar    
   22    8    9 ar    
   23    8   23 1     
   24    9   10 ar    
   25    9   24 1     
   26   10   11 ar    
   27   10   25 1     
   28   11   12 ar    
   29   11   26 1     
@<TRIPOS>SUBSTRUCTURE
      1 ****           1
@<TRIPOS>SET
DONOR_HYDROGENS      STATIC     ATOMS    <user>   **** ""
2 27 28
ATOM$RED        STATIC     ATOMS    COLORGROUP SYSTEM
2 27 28
@<TRIPOS>COMMENT
> <Gold.Version>
2022.2.0

> <Gold.Id.Protein>
3pbl|protein|mol2

> <Gold.Protein.RotatedTorsions>
[ 1303 1298 1297 1294 ] final -142.25 input  179.99 | X-H torsion
[ 2461 2456 2455 2452 ] final  -90.88 input   30.03 | X-H torsion
[ 2515 2510 2509 2506 ] final  106.52 input  -89.99 | X-H torsion
[ 3721 3712 3711 3710 ] final -112.26 input -179.91 | X-H torsion
[ 3841 3832 3831 3830 ] final  166.88 input -179.91 | X-H torsion
[ 3767 3762 3761 3758 ] final -113.91 input  -89.99 | X-H torsion
[ 2472 2467 2466 2463 ] final   21.49 input  -89.97 | X-H torsion

> <Gold.Protein.ActiveResidues>
 VAL82   VAL86   LEU89   PHE106  VAL107  ASP110  VAL111  MET112  CYS114  THR115 
 CYS181  SER182  ILE183  PHE188  VAL189  ILE190  SER192  SER193  SER196  TRP342 
 PHE345  PHE346  HIS349  VAL350  TYR365  THR369  GLY372  TYR373 

> <Gold.Protein.RotatedAtoms>
    4.5211   -8.5220    4.3120 H   0  0  0  0  0  0  0  0  0  0  0  0  # atno 1303 bound_to 1298
    0.3568   -8.9172    7.7199 H   0  0  0  0  0  0  0  0  0  0  0  0  # atno 2461 bound_to 2456
   -4.0454   -4.8159    7.8309 H   0  0  0  0  0  0  0  0  0  0  0  0  # atno 2472 bound_to 2467
    2.0289   -7.9588    5.9902 H   0  0  0  0  0  0  0  0  0  0  0  0  # atno 2515 bound_to 2510
   -3.1741  -16.7183   14.4943 H   0  0  0  0  0  0  0  0  0  0  0  0  # atno 3721 bound_to 3712
   -4.9316  -21.9432   11.4692 H   0  0  0  0  0  0  0  0  0  0  0  0  # atno 3767 bound_to 3762
    3.0542  -20.2040    8.4896 H   0  0  0  0  0  0  0  0  0  0  0  0  # atno 3841 bound_to 3832
    4.5113  -10.0468    4.8963 LP  0  0  0  0  0  0  0  0  0  0  0  0  # atno 4297 bound_to 1298
    3.3295   -9.5529    3.8833 LP  0  0  0  0  0  0  0  0  0  0  0  0  # atno 4298 bound_to 1298
    1.8796   -8.9734    8.3076 LP  0  0  0  0  0  0  0  0  0  0  0  0  # atno 4299 bound_to 2456
    1.5011   -7.9176    7.1207 LP  0  0  0  0  0  0  0  0  0  0  0  0  # atno 4300 bound_to 2456
    2.6285   -7.7880    4.4812 LP  0  0  0  0  0  0  0  0  0  0  0  0  # atno 4301 bound_to 2510
    2.6396   -9.2525    5.2034 LP  0  0  0  0  0  0  0  0  0  0  0  0  # atno 4302 bound_to 2510
   -3.2527  -17.2428   12.9788 LP  0  0  0  0  0  0  0  0  0  0  0  0  # atno 4306 bound_to 3712
   -2.6105  -18.1819   14.1503 LP  0  0  0  0  0  0  0  0  0  0  0  0  # atno 4307 bound_to 3712
    2.1747  -21.0801    9.5069 LP  0  0  0  0  0  0  0  0  0  0  0  0  # atno 4314 bound_to 3832
    1.5265  -19.7865    8.7500 LP  0  0  0  0  0  0  0  0  0  0  0  0  # atno 4315 bound_to 3832
   -3.9306  -23.1403   10.9879 LP  0  0  0  0  0  0  0  0  0  0  0  0  # atno 4318 bound_to 3762
   -5.2653  -22.7913   10.1142 LP  0  0  0  0  0  0  0  0  0  0  0  0  # atno 4319 bound_to 3762
   -4.1638   -5.3789    9.3591 LP  0  0  0  0  0  0  0  0  0  0  0  0  # atno 4320 bound_to 2467
   -5.5076   -5.1987    8.4489 LP  0  0  0  0  0  0  0  0  0  0  0  0  # atno 4321 bound_to 2467

> <Gold.Score>
     Score     S(PLP)   S(hbond)     S(cho)   S(metal)  DE(clash)   DE(tors)     intcor
     39.25     -33.69       1.86       0.00       0.00       0.00       0.01       0.00

> <Gold.PLP.Fitness>
39.2457

> <Gold.PLP.PLP>
-33.6918

> <Gold.PLP.part.hbond>
-1.0000

> <Gold.PLP.part.metal>
0.0000

> <Gold.PLP.part.buried>
0.1168

> <Gold.PLP.part.nonpolar>
-33.6249

> <Gold.PLP.part.repulsive>
0.0288

> <Gold.PLP.ligand.clash>
0.0000

> <Gold.PLP.ligand.torsion>
0.0072

> <Gold.PLP.Chemscore.Hbond>
1.8560

> <Gold.PLP.Chemscore.CHOScore>
0.0000

> <Gold.PLP.Chemscore.Metal>
0.0000

> <Gold.Chemscore.Hbonds>
donor molecule, donor type, donor heavy atom, donor atom, acceptor molecule, acceptor atom, score
      L1  H     2    27       P1  1227  1.86

> <Gold.PLP.Chemscore.Internal.Correction>
0.0003

