#       Name:                EN300-11723_i002
#       Creating user name   fsindt
#       Creation time:       Tue Feb 28 08:09:29 2023


#       File generated by GOLD software.
#

@<TRIPOS>MOLECULE
EN300-11723_i002|amine_7|mol2|4345|dock13
    28    29     1
SMALL
USER_CHARGES


@<TRIPOS>ATOM
      1 C1           1.3910 -11.6975   5.6593 C.3            1 <1>                0.0000
      2 N2           1.1053 -11.6185   7.0982 N.4            1 <1>                1.0000
      3 C3           0.2953 -12.7760   7.5009 C.3            1 <1>                0.0000
      4 C4           1.1644 -14.0317   7.4766 C.3            1 <1>                0.0000
      5 C5           0.3683 -15.1828   8.1029 C.3            1 <1>                0.0000
      6 C6           0.2328 -14.9157   9.6006 C.3            1 <1>                0.0000
      7 C7          -0.2893 -13.5241   9.8454 C.ar           1 <1>                0.0000
      8 C8          -0.8190 -13.2431  11.0979 C.ar           1 <1>                0.0000
      9 C9          -1.3086 -11.9858  11.3862 C.ar           1 <1>                0.0000
     10 C10         -1.2719 -10.9970  10.4211 C.ar           1 <1>                0.0000
     11 C11         -0.7481 -11.2748   9.1753 C.ar           1 <1>                0.0000
     12 C12         -0.2558 -12.5399   8.8828 C.ar           1 <1>                0.0000
     13 H13          2.0272 -12.5602   5.4621 H              1 <1>                0.0000
     14 H14          0.4562 -11.8020   5.1085 H              1 <1>                0.0000
     15 H15          1.9014 -10.7890   5.3398 H              1 <1>                0.0000
     16 H16         -0.5312 -12.8972   6.8008 H              1 <1>                0.0000
     17 H17          1.4212 -14.2806   6.4469 H              1 <1>                0.0000
     18 H18          2.0745 -13.8595   8.0511 H              1 <1>                0.0000
     19 H19         -0.6210 -15.2349   7.6484 H              1 <1>                0.0000
     20 H20          0.8959 -16.1231   7.9439 H              1 <1>                0.0000
     21 H21         -0.4572 -15.6398  10.0338 H              1 <1>                0.0000
     22 H22          1.2086 -15.0220  10.0744 H              1 <1>                0.0000
     23 H23         -0.8483 -14.0152  11.8525 H              1 <1>                0.0000
     24 H24         -1.7195 -11.7750  12.3625 H              1 <1>                0.0000
     25 H25         -1.6522 -10.0105  10.6413 H              1 <1>                0.0000
     26 H26         -0.7206 -10.5020   8.4213 H              1 <1>                0.0000
     27 H27          1.9726 -11.6190   7.6138 H              1 <1>                0.0000
     28 H28          0.5981 -10.7685   7.2941 H              1 <1>                0.0000
@<TRIPOS>BOND
    1    1    2 1     
    2    1   13 1     
    3    1   14 1     
    4    1   15 1     
    5    2    3 1     
    6    2   27 1     
    7    2   28 1     
    8    3    4 1     
    9    3   12 1     
   10    3   16 1     
   11    4    5 1     
   12    4   17 1     
   13    4   18 1     
   14    5    6 1     
   15    5   19 1     
   16    5   20 1     
   17    6    7 1     
   18    6   21 1     
   19    6   22 1     
   20    7    8 ar    
   21    7   12 ar    
   22    8    9 ar    
   23    8   23 1     
   24    9   10 ar    
   25    9   24 1     
   26   10   11 ar    
   27   10   25 1     
   28   11   12 ar    
   29   11   26 1     
@<TRIPOS>SUBSTRUCTURE
      1 ****           1
@<TRIPOS>SET
DONOR_HYDROGENS      STATIC     ATOMS    <user>   **** ""
2 27 28
ATOM$RED        STATIC     ATOMS    COLORGROUP SYSTEM
2 27 28
@<TRIPOS>COMMENT
> <Gold.Version>
2022.2.0

> <Gold.Id.Protein>
3pbl|protein|mol2

> <Gold.Protein.RotatedTorsions>
[ 1303 1298 1297 1294 ] final   52.05 input  179.99 | X-H torsion
[ 2461 2456 2455 2452 ] final  165.58 input   30.03 | X-H torsion
[ 2515 2510 2509 2506 ] final -172.12 input  -89.99 | X-H torsion
[ 3721 3712 3711 3710 ] final  -25.60 input -179.91 | X-H torsion
[ 3841 3832 3831 3830 ] final -121.16 input -179.91 | X-H torsion
[ 3767 3762 3761 3758 ] final  -61.62 input  -89.99 | X-H torsion
[ 2472 2467 2466 2463 ] final   63.27 input  -89.97 | X-H torsion

> <Gold.Protein.ActiveResidues>
 VAL82   VAL86   LEU89   PHE106  VAL107  ASP110  VAL111  MET112  CYS114  THR115 
 CYS181  SER182  ILE183  PHE188  VAL189  ILE190  SER192  SER193  SER196  TRP342 
 PHE345  PHE346  HIS349  VAL350  TYR365  THR369  GLY372  TYR373 

> <Gold.Protein.RotatedAtoms>
    3.9009  -10.2694    4.5590 H   0  0  0  0  0  0  0  0  0  0  0  0  # atno 1303 bound_to 1298
    1.6666   -9.1219    8.3816 H   0  0  0  0  0  0  0  0  0  0  0  0  # atno 2461 bound_to 2456
   -4.6963   -4.8269    7.6627 H   0  0  0  0  0  0  0  0  0  0  0  0  # atno 2472 bound_to 2467
    2.3781   -9.1125    5.7521 H   0  0  0  0  0  0  0  0  0  0  0  0  # atno 2515 bound_to 2510
   -2.5800  -17.7466   14.5497 H   0  0  0  0  0  0  0  0  0  0  0  0  # atno 3721 bound_to 3712
   -5.4548  -22.0484   10.8322 H   0  0  0  0  0  0  0  0  0  0  0  0  # atno 3767 bound_to 3762
    2.2395  -19.5964    8.4500 H   0  0  0  0  0  0  0  0  0  0  0  0  # atno 3841 bound_to 3832
    3.5724   -8.8687    3.7866 LP  0  0  0  0  0  0  0  0  0  0  0  0  # atno 4297 bound_to 1298
    4.8890   -8.9829    4.7458 LP  0  0  0  0  0  0  0  0  0  0  0  0  # atno 4298 bound_to 1298
    1.7397   -7.9549    7.2413 LP  0  0  0  0  0  0  0  0  0  0  0  0  # atno 4299 bound_to 2456
    0.3316   -8.7315    7.5255 LP  0  0  0  0  0  0  0  0  0  0  0  0  # atno 4300 bound_to 2456
    2.1129   -7.5126    5.5625 LP  0  0  0  0  0  0  0  0  0  0  0  0  # atno 4301 bound_to 2510
    2.8058   -8.3737    4.3604 LP  0  0  0  0  0  0  0  0  0  0  0  0  # atno 4302 bound_to 2510
   -3.5470  -16.5610   14.0629 LP  0  0  0  0  0  0  0  0  0  0  0  0  # atno 4306 bound_to 3712
   -3.0021  -17.6766   13.0022 LP  0  0  0  0  0  0  0  0  0  0  0  0  # atno 4307 bound_to 3712
    3.0556  -20.9269    8.8242 LP  0  0  0  0  0  0  0  0  0  0  0  0  # atno 4314 bound_to 3832
    1.5868  -20.6416    9.4784 LP  0  0  0  0  0  0  0  0  0  0  0  0  # atno 4315 bound_to 3832
   -4.0808  -22.5531   11.5562 LP  0  0  0  0  0  0  0  0  0  0  0  0  # atno 4318 bound_to 3762
   -4.5920  -23.2733   10.1827 LP  0  0  0  0  0  0  0  0  0  0  0  0  # atno 4319 bound_to 3762
   -3.7053   -5.1683    8.9148 LP  0  0  0  0  0  0  0  0  0  0  0  0  # atno 4320 bound_to 2467
   -5.3153   -5.3983    9.0615 LP  0  0  0  0  0  0  0  0  0  0  0  0  # atno 4321 bound_to 2467

> <Gold.Score>
     Score     S(PLP)   S(hbond)     S(cho)   S(metal)  DE(clash)   DE(tors)     intcor
     44.34     -44.49       0.00       0.00       0.00       0.00       0.07       0.00

> <Gold.PLP.Fitness>
44.3439

> <Gold.PLP.PLP>
-44.4920

> <Gold.PLP.part.hbond>
-0.1543

> <Gold.PLP.part.metal>
0.0000

> <Gold.PLP.part.buried>
-3.7571

> <Gold.PLP.part.nonpolar>
-40.5700

> <Gold.PLP.part.repulsive>
0.0000

> <Gold.PLP.ligand.clash>
0.0000

> <Gold.PLP.ligand.torsion>
0.0742

> <Gold.PLP.Chemscore.Hbond>
0.0000

> <Gold.PLP.Chemscore.CHOScore>
0.0000

> <Gold.PLP.Chemscore.Metal>
0.0000

> <Gold.PLP.Chemscore.Internal.Correction>
0.0003

