#       Name:                EN300-11723_i002
#       Creating user name   fsindt
#       Creation time:       Tue Feb 28 08:09:28 2023


#       File generated by GOLD software.
#

@<TRIPOS>MOLECULE
EN300-11723_i002|amine_7|mol2|4345|dock12
    28    29     1
SMALL
USER_CHARGES


@<TRIPOS>ATOM
      1 C1          -0.4000 -14.9772  12.3981 C.3            1 <1>                0.0000
      2 N2           0.2634 -14.4939  11.1797 N.4            1 <1>                1.0000
      3 C3          -0.6601 -13.6338  10.4277 C.3            1 <1>                0.0000
      4 C4          -0.9778 -12.3905  11.2559 C.3            1 <1>                0.0000
      5 C5          -1.7622 -11.4105  10.3754 C.3            1 <1>                0.0000
      6 C6          -0.8164 -10.8547   9.3128 C.3            1 <1>                0.0000
      7 C7          -0.1010 -11.9740   8.6027 C.ar           1 <1>                0.0000
      8 C8           0.4999 -11.6873   7.3841 C.ar           1 <1>                0.0000
      9 C9           1.1748 -12.6681   6.6869 C.ar           1 <1>                0.0000
     10 C10          1.2542 -13.9471   7.2050 C.ar           1 <1>                0.0000
     11 C11          0.6559 -14.2346   8.4146 C.ar           1 <1>                0.0000
     12 C12         -0.0247 -13.2491   9.1172 C.ar           1 <1>                0.0000
     13 H13         -0.5957 -14.1362  13.0633 H              1 <1>                0.0000
     14 H14         -1.3418 -15.4575  12.1329 H              1 <1>                0.0000
     15 H15          0.2454 -15.6966  12.9022 H              1 <1>                0.0000
     16 H16         -1.5823 -14.1810  10.2325 H              1 <1>                0.0000
     17 H17         -1.5796 -12.6695  12.1209 H              1 <1>                0.0000
     18 H18         -0.0505 -11.9240  11.5884 H              1 <1>                0.0000
     19 H19         -2.5899 -11.9312   9.8940 H              1 <1>                0.0000
     20 H20         -2.1472 -10.5948  10.9872 H              1 <1>                0.0000
     21 H21         -1.3900 -10.2776   8.5876 H              1 <1>                0.0000
     22 H22         -0.0828 -10.2044   9.7893 H              1 <1>                0.0000
     23 H23          0.4380 -10.6882   6.9784 H              1 <1>                0.0000
     24 H24          1.6391 -12.4375   5.7395 H              1 <1>                0.0000
     25 H25          1.7825 -14.7188   6.6648 H              1 <1>                0.0000
     26 H26          0.7176 -15.2345   8.8183 H              1 <1>                0.0000
     27 H27          1.0855 -13.9658  11.4313 H              1 <1>                0.0000
     28 H28          0.5312 -15.2809  10.6078 H              1 <1>                0.0000
@<TRIPOS>BOND
    1    1    2 1     
    2    1   13 1     
    3    1   14 1     
    4    1   15 1     
    5    2    3 1     
    6    2   27 1     
    7    2   28 1     
    8    3    4 1     
    9    3   12 1     
   10    3   16 1     
   11    4    5 1     
   12    4   17 1     
   13    4   18 1     
   14    5    6 1     
   15    5   19 1     
   16    5   20 1     
   17    6    7 1     
   18    6   21 1     
   19    6   22 1     
   20    7    8 ar    
   21    7   12 ar    
   22    8    9 ar    
   23    8   23 1     
   24    9   10 ar    
   25    9   24 1     
   26   10   11 ar    
   27   10   25 1     
   28   11   12 ar    
   29   11   26 1     
@<TRIPOS>SUBSTRUCTURE
      1 ****           1
@<TRIPOS>SET
DONOR_HYDROGENS      STATIC     ATOMS    <user>   **** ""
2 27 28
ATOM$RED        STATIC     ATOMS    COLORGROUP SYSTEM
2 27 28
@<TRIPOS>COMMENT
> <Gold.Version>
2022.2.0

> <Gold.Id.Protein>
3pbl|protein|mol2

> <Gold.Protein.RotatedTorsions>
[ 1303 1298 1297 1294 ] final  -97.96 input  179.99 | X-H torsion
[ 2461 2456 2455 2452 ] final  -23.92 input   30.03 | X-H torsion
[ 2515 2510 2509 2506 ] final  -73.37 input  -89.99 | X-H torsion
[ 3721 3712 3711 3710 ] final   19.53 input -179.91 | X-H torsion
[ 3841 3832 3831 3830 ] final  123.32 input -179.91 | X-H torsion
[ 3767 3762 3761 3758 ] final   91.65 input  -89.99 | X-H torsion
[ 2472 2467 2466 2463 ] final  -26.53 input  -89.97 | X-H torsion

> <Gold.Protein.ActiveResidues>
 VAL82   VAL86   LEU89   PHE106  VAL107  ASP110  VAL111  MET112  CYS114  THR115 
 CYS181  SER182  ILE183  PHE188  VAL189  ILE190  SER192  SER193  SER196  TRP342 
 PHE345  PHE346  HIS349  VAL350  TYR365  THR369  GLY372  TYR373 

> <Gold.Protein.RotatedAtoms>
    3.9310   -8.5649    3.9186 H   0  0  0  0  0  0  0  0  0  0  0  0  # atno 1303 bound_to 1298
    0.6968   -8.1647    7.0868 H   0  0  0  0  0  0  0  0  0  0  0  0  # atno 2461 bound_to 2456
   -3.6431   -4.9978    8.4585 H   0  0  0  0  0  0  0  0  0  0  0  0  # atno 2472 bound_to 2467
    2.8358   -8.7056    4.4592 H   0  0  0  0  0  0  0  0  0  0  0  0  # atno 2515 bound_to 2510
   -2.4706  -18.0292   13.9581 H   0  0  0  0  0  0  0  0  0  0  0  0  # atno 3721 bound_to 3712
   -4.1754  -23.3265   10.5219 H   0  0  0  0  0  0  0  0  0  0  0  0  # atno 3767 bound_to 3762
    3.0964  -20.6943    8.9025 H   0  0  0  0  0  0  0  0  0  0  0  0  # atno 3841 bound_to 3832
    4.8809   -9.4400    4.9176 LP  0  0  0  0  0  0  0  0  0  0  0  0  # atno 4297 bound_to 1298
    3.5503  -10.1167    4.2556 LP  0  0  0  0  0  0  0  0  0  0  0  0  # atno 4298 bound_to 1298
    0.8861   -9.2788    8.2658 LP  0  0  0  0  0  0  0  0  0  0  0  0  # atno 4299 bound_to 2456
    2.1547   -8.3645    7.7953 LP  0  0  0  0  0  0  0  0  0  0  0  0  # atno 4300 bound_to 2456
    2.2366   -8.8796    5.9680 LP  0  0  0  0  0  0  0  0  0  0  0  0  # atno 4301 bound_to 2510
    2.2241   -7.4138    5.2484 LP  0  0  0  0  0  0  0  0  0  0  0  0  # atno 4302 bound_to 2510
   -3.3132  -16.8723   14.6859 LP  0  0  0  0  0  0  0  0  0  0  0  0  # atno 4306 bound_to 3712
   -3.3621  -17.0390   13.0622 LP  0  0  0  0  0  0  0  0  0  0  0  0  # atno 4307 bound_to 3712
    1.6016  -20.6607    9.4862 LP  0  0  0  0  0  0  0  0  0  0  0  0  # atno 4314 bound_to 3832
    2.0509  -19.6395    8.2937 LP  0  0  0  0  0  0  0  0  0  0  0  0  # atno 4315 bound_to 3832
   -5.4947  -22.3716   10.4016 LP  0  0  0  0  0  0  0  0  0  0  0  0  # atno 4318 bound_to 3762
   -4.4571  -22.1772   11.6474 LP  0  0  0  0  0  0  0  0  0  0  0  0  # atno 4319 bound_to 3762
   -4.9266   -5.4614    9.3552 LP  0  0  0  0  0  0  0  0  0  0  0  0  # atno 4320 bound_to 2467
   -5.1470   -4.9343    7.8254 LP  0  0  0  0  0  0  0  0  0  0  0  0  # atno 4321 bound_to 2467

> <Gold.Score>
     Score     S(PLP)   S(hbond)     S(cho)   S(metal)  DE(clash)   DE(tors)     intcor
     42.87     -42.90       0.00       0.00       0.00       0.00       0.01       0.00

> <Gold.PLP.Fitness>
42.8733

> <Gold.PLP.PLP>
-42.8979

> <Gold.PLP.part.hbond>
0.0000

> <Gold.PLP.part.metal>
0.0000

> <Gold.PLP.part.buried>
-3.6393

> <Gold.PLP.part.nonpolar>
-39.5226

> <Gold.PLP.part.repulsive>
0.0061

> <Gold.PLP.ligand.clash>
0.0000

> <Gold.PLP.ligand.torsion>
0.0125

> <Gold.PLP.Chemscore.Hbond>
0.0000

> <Gold.PLP.Chemscore.CHOScore>
0.0000

> <Gold.PLP.Chemscore.Metal>
0.0000

> <Gold.PLP.Chemscore.Internal.Correction>
0.0003

