#       Name:                EN300-11723_i002
#       Creating user name   fsindt
#       Creation time:       Tue Feb 28 08:09:27 2023


#       File generated by GOLD software.
#

@<TRIPOS>MOLECULE
EN300-11723_i002|amine_7|mol2|4345|dock6
    28    29     1
SMALL
USER_CHARGES


@<TRIPOS>ATOM
      1 C1           1.0653 -15.5216  11.8017 C.3            1 <1>                0.0000
      2 N2           0.6139 -15.5713  10.4046 N.4            1 <1>                1.0000
      3 C3           1.0315 -14.3454   9.7112 C.3            1 <1>                0.0000
      4 C4           1.2817 -14.6605   8.2379 C.3            1 <1>                0.0000
      5 C5           1.5034 -13.3394   7.4918 C.3            1 <1>                0.0000
      6 C6           0.1748 -12.5881   7.4377 C.3            1 <1>                0.0000
      7 C7          -0.4356 -12.4918   8.8114 C.ar           1 <1>                0.0000
      8 C8          -1.4299 -11.5433   9.0123 C.ar           1 <1>                0.0000
      9 C9          -2.0319 -11.4091  10.2465 C.ar           1 <1>                0.0000
     10 C10         -1.6430 -12.2250  11.2922 C.ar           1 <1>                0.0000
     11 C11         -0.6537 -13.1664  11.0953 C.ar           1 <1>                0.0000
     12 C12         -0.0459 -13.3024   9.8542 C.ar           1 <1>                0.0000
     13 H13          2.1545 -15.5458  11.8327 H              1 <1>                0.0000
     14 H14          0.7089 -14.6022  12.2662 H              1 <1>                0.0000
     15 H15          0.6674 -16.3800  12.3429 H              1 <1>                0.0000
     16 H16          1.9524 -13.9742  10.1608 H              1 <1>                0.0000
     17 H17          2.1671 -15.2893   8.1421 H              1 <1>                0.0000
     18 H18          0.4172 -15.1770   7.8209 H              1 <1>                0.0000
     19 H19          2.2435 -12.7389   8.0206 H              1 <1>                0.0000
     20 H20          1.8512 -13.5436   6.4792 H              1 <1>                0.0000
     21 H21          0.3451 -11.5841   7.0489 H              1 <1>                0.0000
     22 H22         -0.5108 -13.1175   6.7760 H              1 <1>                0.0000
     23 H23         -1.7341 -10.9052   8.1959 H              1 <1>                0.0000
     24 H24         -2.8040 -10.6688  10.3951 H              1 <1>                0.0000
     25 H25         -2.1116 -12.1258  12.2602 H              1 <1>                0.0000
     26 H26         -0.3497 -13.8029  11.9132 H              1 <1>                0.0000
     27 H27          1.0229 -16.3724   9.9474 H              1 <1>                0.0000
     28 H28         -0.3920 -15.6464  10.3787 H              1 <1>                0.0000
@<TRIPOS>BOND
    1    1    2 1     
    2    1   13 1     
    3    1   14 1     
    4    1   15 1     
    5    2    3 1     
    6    2   27 1     
    7    2   28 1     
    8    3    4 1     
    9    3   12 1     
   10    3   16 1     
   11    4    5 1     
   12    4   17 1     
   13    4   18 1     
   14    5    6 1     
   15    5   19 1     
   16    5   20 1     
   17    6    7 1     
   18    6   21 1     
   19    6   22 1     
   20    7    8 ar    
   21    7   12 ar    
   22    8    9 ar    
   23    8   23 1     
   24    9   10 ar    
   25    9   24 1     
   26   10   11 ar    
   27   10   25 1     
   28   11   12 ar    
   29   11   26 1     
@<TRIPOS>SUBSTRUCTURE
      1 ****           1
@<TRIPOS>SET
DONOR_HYDROGENS      STATIC     ATOMS    <user>   **** ""
2 27 28
ATOM$RED        STATIC     ATOMS    COLORGROUP SYSTEM
2 27 28
@<TRIPOS>COMMENT
> <Gold.Version>
2022.2.0

> <Gold.Id.Protein>
3pbl|protein|mol2

> <Gold.Protein.RotatedTorsions>
[ 1303 1298 1297 1294 ] final  -25.16 input  179.99 | X-H torsion
[ 2461 2456 2455 2452 ] final  -71.85 input   30.03 | X-H torsion
[ 2515 2510 2509 2506 ] final  -93.83 input  -89.99 | X-H torsion
[ 3721 3712 3711 3710 ] final   10.10 input -179.91 | X-H torsion
[ 3841 3832 3831 3830 ] final -152.12 input -179.91 | X-H torsion
[ 3767 3762 3761 3758 ] final  -38.39 input  -89.99 | X-H torsion
[ 2472 2467 2466 2463 ] final   45.35 input  -89.97 | X-H torsion

> <Gold.Protein.ActiveResidues>
 VAL82   VAL86   LEU89   PHE106  VAL107  ASP110  VAL111  MET112  CYS114  THR115 
 CYS181  SER182  ILE183  PHE188  VAL189  ILE190  SER192  SER193  SER196  TRP342 
 PHE345  PHE346  HIS349  VAL350  TYR365  THR369  GLY372  TYR373 

> <Gold.Protein.RotatedAtoms>
    3.3308   -9.5076    3.8673 H   0  0  0  0  0  0  0  0  0  0  0  0  # atno 1303 bound_to 1298
    0.3341   -8.7012    7.4962 H   0  0  0  0  0  0  0  0  0  0  0  0  # atno 2461 bound_to 2456
   -4.4043   -4.8008    7.6795 H   0  0  0  0  0  0  0  0  0  0  0  0  # atno 2472 bound_to 2467
    2.8129   -8.9778    4.6527 H   0  0  0  0  0  0  0  0  0  0  0  0  # atno 2515 bound_to 2510
   -2.4722  -18.0046   14.0983 H   0  0  0  0  0  0  0  0  0  0  0  0  # atno 3721 bound_to 3712
   -5.5108  -22.2592   10.5214 H   0  0  0  0  0  0  0  0  0  0  0  0  # atno 3767 bound_to 3762
    2.6554  -19.7699    8.3479 H   0  0  0  0  0  0  0  0  0  0  0  0  # atno 3841 bound_to 3832
    4.5557   -8.5376    4.3414 LP  0  0  0  0  0  0  0  0  0  0  0  0  # atno 4297 bound_to 1298
    4.4760  -10.0761    4.8830 LP  0  0  0  0  0  0  0  0  0  0  0  0  # atno 4298 bound_to 1298
    1.6297   -9.1413    8.3880 LP  0  0  0  0  0  0  0  0  0  0  0  0  # atno 4299 bound_to 2456
    1.7737   -7.9657    7.2639 LP  0  0  0  0  0  0  0  0  0  0  0  0  # atno 4300 bound_to 2456
    2.1255   -8.5844    6.0805 LP  0  0  0  0  0  0  0  0  0  0  0  0  # atno 4301 bound_to 2510
    2.3582   -7.4367    4.9424 LP  0  0  0  0  0  0  0  0  0  0  0  0  # atno 4302 bound_to 2510
   -3.3795  -16.7723   14.5843 LP  0  0  0  0  0  0  0  0  0  0  0  0  # atno 4306 bound_to 3712
   -3.2939  -17.1673   13.0021 LP  0  0  0  0  0  0  0  0  0  0  0  0  # atno 4307 bound_to 3712
    2.7630  -21.1324    9.1894 LP  0  0  0  0  0  0  0  0  0  0  0  0  # atno 4314 bound_to 3832
    1.3989  -20.2357    9.2312 LP  0  0  0  0  0  0  0  0  0  0  0  0  # atno 4315 bound_to 3832
   -4.3283  -22.2801   11.6475 LP  0  0  0  0  0  0  0  0  0  0  0  0  # atno 4318 bound_to 3762
   -4.2885  -23.3356   10.4021 LP  0  0  0  0  0  0  0  0  0  0  0  0  # atno 4319 bound_to 3762
   -3.8573   -5.2681    9.1454 LP  0  0  0  0  0  0  0  0  0  0  0  0  # atno 4320 bound_to 2467
   -5.4553   -5.3246    8.8141 LP  0  0  0  0  0  0  0  0  0  0  0  0  # atno 4321 bound_to 2467

> <Gold.Score>
     Score     S(PLP)   S(hbond)     S(cho)   S(metal)  DE(clash)   DE(tors)     intcor
     46.45     -41.26       1.98       0.00       0.00       0.00       0.38       0.00

> <Gold.PLP.Fitness>
46.4469

> <Gold.PLP.PLP>
-41.2558

> <Gold.PLP.part.hbond>
-1.0000

> <Gold.PLP.part.metal>
0.0000

> <Gold.PLP.part.buried>
-2.8413

> <Gold.PLP.part.nonpolar>
-38.3853

> <Gold.PLP.part.repulsive>
0.0000

> <Gold.PLP.ligand.clash>
0.0000

> <Gold.PLP.ligand.torsion>
0.3806

> <Gold.PLP.Chemscore.Hbond>
1.9840

> <Gold.PLP.Chemscore.CHOScore>
0.0000

> <Gold.PLP.Chemscore.Metal>
0.0000

> <Gold.Chemscore.Hbonds>
donor molecule, donor type, donor heavy atom, donor atom, acceptor molecule, acceptor atom, score
      L1  H     2    27       P1  1227  1.98

> <Gold.PLP.Chemscore.Internal.Correction>
0.0003

