#       Name:                EN300-11723_i002
#       Creating user name   fsindt
#       Creation time:       Tue Feb 28 08:09:27 2023


#       File generated by GOLD software.
#

@<TRIPOS>MOLECULE
EN300-11723_i002|amine_7|mol2|4345|dock8
    28    29     1
SMALL
USER_CHARGES


@<TRIPOS>ATOM
      1 C1          -2.4975 -10.4697  10.7657 C.3            1 <1>                0.0000
      2 N2          -1.7527 -11.1768   9.7153 N.4            1 <1>                1.0000
      3 C3          -0.6897 -11.9847  10.3279 C.3            1 <1>                0.0000
      4 C4          -1.3088 -12.9497  11.3370 C.3            1 <1>                0.0000
      5 C5          -0.2214 -13.9252  11.8029 C.3            1 <1>                0.0000
      6 C6           0.1224 -14.8541  10.6404 C.3            1 <1>                0.0000
      7 C7           0.4194 -14.0583   9.3964 C.ar           1 <1>                0.0000
      8 C8           1.0996 -14.6963   8.3675 C.ar           1 <1>                0.0000
      9 C9           1.3971 -14.0234   7.2004 C.ar           1 <1>                0.0000
     10 C10          1.0151 -12.7032   7.0529 C.ar           1 <1>                0.0000
     11 C11          0.3412 -12.0668   8.0749 C.ar           1 <1>                0.0000
     12 C12          0.0418 -12.7421   9.2508 C.ar           1 <1>                0.0000
     13 H13         -3.0255 -11.1935  11.3866 H              1 <1>                0.0000
     14 H14         -1.8029  -9.9000  11.3828 H              1 <1>                0.0000
     15 H15         -3.2168  -9.7912  10.3072 H              1 <1>                0.0000
     16 H16          0.0103 -11.3266  10.8426 H              1 <1>                0.0000
     17 H17         -1.6919 -12.3915  12.1915 H              1 <1>                0.0000
     18 H18         -2.1208 -13.5030  10.8654 H              1 <1>                0.0000
     19 H19          0.6665 -13.3690  12.1033 H              1 <1>                0.0000
     20 H20         -0.5903 -14.5113  12.6446 H              1 <1>                0.0000
     21 H21          0.9964 -15.4502  10.9029 H              1 <1>                0.0000
     22 H22         -0.7206 -15.5182  10.4496 H              1 <1>                0.0000
     23 H23          1.3988 -15.7278   8.4820 H              1 <1>                0.0000
     24 H24          1.9269 -14.5262   6.4049 H              1 <1>                0.0000
     25 H25          1.2437 -12.1715   6.1411 H              1 <1>                0.0000
     26 H26          0.0439 -11.0349   7.9594 H              1 <1>                0.0000
     27 H27         -2.3811 -11.7790   9.2048 H              1 <1>                0.0000
     28 H28         -1.3430 -10.5052   9.0834 H              1 <1>                0.0000
@<TRIPOS>BOND
    1    1    2 1     
    2    1   13 1     
    3    1   14 1     
    4    1   15 1     
    5    2    3 1     
    6    2   27 1     
    7    2   28 1     
    8    3    4 1     
    9    3   12 1     
   10    3   16 1     
   11    4    5 1     
   12    4   17 1     
   13    4   18 1     
   14    5    6 1     
   15    5   19 1     
   16    5   20 1     
   17    6    7 1     
   18    6   21 1     
   19    6   22 1     
   20    7    8 ar    
   21    7   12 ar    
   22    8    9 ar    
   23    8   23 1     
   24    9   10 ar    
   25    9   24 1     
   26   10   11 ar    
   27   10   25 1     
   28   11   12 ar    
   29   11   26 1     
@<TRIPOS>SUBSTRUCTURE
      1 ****           1
@<TRIPOS>SET
DONOR_HYDROGENS      STATIC     ATOMS    <user>   **** ""
2 27 28
ATOM$RED        STATIC     ATOMS    COLORGROUP SYSTEM
2 27 28
@<TRIPOS>COMMENT
> <Gold.Version>
2022.2.0

> <Gold.Id.Protein>
3pbl|protein|mol2

> <Gold.Protein.RotatedTorsions>
[ 1303 1298 1297 1294 ] final  113.14 input  179.99 | X-H torsion
[ 2461 2456 2455 2452 ] final  -32.00 input   30.03 | X-H torsion
[ 2515 2510 2509 2506 ] final    3.42 input  -89.99 | X-H torsion
[ 3721 3712 3711 3710 ] final   52.67 input -179.91 | X-H torsion
[ 3841 3832 3831 3830 ] final   73.00 input -179.91 | X-H torsion
[ 3767 3762 3761 3758 ] final  106.96 input  -89.99 | X-H torsion
[ 2472 2467 2466 2463 ] final -141.15 input  -89.97 | X-H torsion

> <Gold.Protein.ActiveResidues>
 VAL82   VAL86   LEU89   PHE106  VAL107  ASP110  VAL111  MET112  CYS114  THR115 
 CYS181  SER182  ILE183  PHE188  VAL189  ILE190  SER192  SER193  SER196  TRP342 
 PHE345  PHE346  HIS349  VAL350  TYR365  THR369  GLY372  TYR373 

> <Gold.Protein.RotatedAtoms>
    4.6796   -9.8643    4.9431 H   0  0  0  0  0  0  0  0  0  0  0  0  # atno 1303 bound_to 1298
    0.5992   -8.2433    7.1313 H   0  0  0  0  0  0  0  0  0  0  0  0  # atno 2461 bound_to 2456
   -4.8436   -5.4641    9.3857 H   0  0  0  0  0  0  0  0  0  0  0  0  # atno 2472 bound_to 2467
    2.5175   -7.5946    4.6458 H   0  0  0  0  0  0  0  0  0  0  0  0  # atno 2515 bound_to 2510
   -2.5554  -17.9560   13.4769 H   0  0  0  0  0  0  0  0  0  0  0  0  # atno 3721 bound_to 3712
   -4.0361  -23.2719   10.7238 H   0  0  0  0  0  0  0  0  0  0  0  0  # atno 3767 bound_to 3762
    2.6423  -20.9569    9.4188 H   0  0  0  0  0  0  0  0  0  0  0  0  # atno 3841 bound_to 3832
    3.3564   -9.7800    3.9901 LP  0  0  0  0  0  0  0  0  0  0  0  0  # atno 4297 bound_to 1298
    4.3259   -8.4768    4.1582 LP  0  0  0  0  0  0  0  0  0  0  0  0  # atno 4298 bound_to 1298
    1.0081   -9.2883    8.3179 LP  0  0  0  0  0  0  0  0  0  0  0  0  # atno 4299 bound_to 2456
    2.1303   -8.2764    7.6988 LP  0  0  0  0  0  0  0  0  0  0  0  0  # atno 4300 bound_to 2456
    2.7313   -9.1842    4.9511 LP  0  0  0  0  0  0  0  0  0  0  0  0  # atno 4301 bound_to 2510
    2.0479   -8.2208    6.0786 LP  0  0  0  0  0  0  0  0  0  0  0  0  # atno 4302 bound_to 2510
   -3.0447  -17.3131   14.8644 LP  0  0  0  0  0  0  0  0  0  0  0  0  # atno 4306 bound_to 3712
   -3.5327  -16.6827   13.4393 LP  0  0  0  0  0  0  0  0  0  0  0  0  # atno 4307 bound_to 3712
    1.4013  -20.0153    9.0323 LP  0  0  0  0  0  0  0  0  0  0  0  0  # atno 4314 bound_to 3832
    2.7757  -19.9816    8.1511 LP  0  0  0  0  0  0  0  0  0  0  0  0  # atno 4315 bound_to 3832
   -5.4239  -22.5559   10.2462 LP  0  0  0  0  0  0  0  0  0  0  0  0  # atno 4318 bound_to 3762
   -4.6671  -22.0475   11.6010 LP  0  0  0  0  0  0  0  0  0  0  0  0  # atno 4319 bound_to 3762
   -5.2141   -4.9604    7.8772 LP  0  0  0  0  0  0  0  0  0  0  0  0  # atno 4320 bound_to 2467
   -3.6593   -4.9692    8.3764 LP  0  0  0  0  0  0  0  0  0  0  0  0  # atno 4321 bound_to 2467

> <Gold.Score>
     Score     S(PLP)   S(hbond)     S(cho)   S(metal)  DE(clash)   DE(tors)     intcor
     43.24     -43.25       0.00       0.00       0.00       0.00       0.00       0.00

> <Gold.PLP.Fitness>
43.2434

> <Gold.PLP.PLP>
-43.2488

> <Gold.PLP.part.hbond>
0.0000

> <Gold.PLP.part.metal>
0.0000

> <Gold.PLP.part.buried>
-3.7921

> <Gold.PLP.part.nonpolar>
-40.0547

> <Gold.PLP.part.repulsive>
0.0020

> <Gold.PLP.ligand.clash>
0.0000

> <Gold.PLP.ligand.torsion>
0.0028

> <Gold.PLP.Chemscore.Hbond>
0.0000

> <Gold.PLP.Chemscore.CHOScore>
0.0000

> <Gold.PLP.Chemscore.Metal>
0.0000

> <Gold.PLP.Chemscore.Internal.Correction>
0.0003

