#       Name:                EN300-11723_i002
#       Creating user name   fsindt
#       Creation time:       Tue Feb 28 08:09:26 2023


#       File generated by GOLD software.
#

@<TRIPOS>MOLECULE
EN300-11723_i002|amine_7|mol2|4345|dock5
    28    29     1
SMALL
USER_CHARGES


@<TRIPOS>ATOM
      1 C1          -0.3973 -15.9443   8.3175 C.3            1 <1>                0.0000
      2 N2           0.7609 -15.5994   9.1527 N.4            1 <1>                1.0000
      3 C3           1.2008 -14.2332   8.8397 C.3            1 <1>                0.0000
      4 C4           1.3866 -14.0974   7.3298 C.3            1 <1>                0.0000
      5 C5           1.6327 -12.6195   7.0039 C.3            1 <1>                0.0000
      6 C6           0.3330 -11.8520   7.2372 C.3            1 <1>                0.0000
      7 C7          -0.2245 -12.1570   8.6029 C.ar           1 <1>                0.0000
      8 C8          -1.1737 -11.2870   9.1231 C.ar           1 <1>                0.0000
      9 C9          -1.7262 -11.5141  10.3668 C.ar           1 <1>                0.0000
     10 C10         -1.3325 -12.6165  11.1018 C.ar           1 <1>                0.0000
     11 C11         -0.3878 -13.4808  10.5877 C.ar           1 <1>                0.0000
     12 C12          0.1702 -13.2534   9.3367 C.ar           1 <1>                0.0000
     13 H13         -1.2433 -15.3137   8.5910 H              1 <1>                0.0000
     14 H14         -0.1492 -15.7844   7.2683 H              1 <1>                0.0000
     15 H15         -0.6590 -16.9909   8.4735 H              1 <1>                0.0000
     16 H16          2.1506 -14.0385   9.3377 H              1 <1>                0.0000
     17 H17          2.2431 -14.6913   7.0104 H              1 <1>                0.0000
     18 H18          0.4886 -14.4419   6.8169 H              1 <1>                0.0000
     19 H19          2.4135 -12.2253   7.6542 H              1 <1>                0.0000
     20 H20          1.9365 -12.5190   5.9620 H              1 <1>                0.0000
     21 H21          0.5282 -10.7825   7.1593 H              1 <1>                0.0000
     22 H22         -0.3954 -12.1400   6.4791 H              1 <1>                0.0000
     23 H23         -1.4816 -10.4253   8.5495 H              1 <1>                0.0000
     24 H24         -2.4635 -10.8327  10.7648 H              1 <1>                0.0000
     25 H25         -1.7625 -12.8005  12.0753 H              1 <1>                0.0000
     26 H26         -0.0800 -14.3414  11.1631 H              1 <1>                0.0000
     27 H27          0.5018 -15.6546  10.1263 H              1 <1>                0.0000
     28 H28          1.5133 -16.2457   8.9678 H              1 <1>                0.0000
@<TRIPOS>BOND
    1    1    2 1     
    2    1   13 1     
    3    1   14 1     
    4    1   15 1     
    5    2    3 1     
    6    2   27 1     
    7    2   28 1     
    8    3    4 1     
    9    3   12 1     
   10    3   16 1     
   11    4    5 1     
   12    4   17 1     
   13    4   18 1     
   14    5    6 1     
   15    5   19 1     
   16    5   20 1     
   17    6    7 1     
   18    6   21 1     
   19    6   22 1     
   20    7    8 ar    
   21    7   12 ar    
   22    8    9 ar    
   23    8   23 1     
   24    9   10 ar    
   25    9   24 1     
   26   10   11 ar    
   27   10   25 1     
   28   11   12 ar    
   29   11   26 1     
@<TRIPOS>SUBSTRUCTURE
      1 ****           1
@<TRIPOS>SET
DONOR_HYDROGENS      STATIC     ATOMS    <user>   **** ""
2 27 28
ATOM$RED        STATIC     ATOMS    COLORGROUP SYSTEM
2 27 28
@<TRIPOS>COMMENT
> <Gold.Version>
2022.2.0

> <Gold.Id.Protein>
3pbl|protein|mol2

> <Gold.Protein.RotatedTorsions>
[ 1303 1298 1297 1294 ] final -176.79 input  179.99 | X-H torsion
[ 2461 2456 2455 2452 ] final -152.73 input   30.03 | X-H torsion
[ 2515 2510 2509 2506 ] final  -75.21 input  -89.99 | X-H torsion
[ 3721 3712 3711 3710 ] final  105.83 input -179.91 | X-H torsion
[ 3841 3832 3831 3830 ] final  112.03 input -179.91 | X-H torsion
[ 3767 3762 3761 3758 ] final -147.75 input  -89.99 | X-H torsion
[ 2472 2467 2466 2463 ] final  -26.83 input  -89.97 | X-H torsion

> <Gold.Protein.ActiveResidues>
 VAL82   VAL86   LEU89   PHE106  VAL107  ASP110  VAL111  MET112  CYS114  THR115 
 CYS181  SER182  ILE183  PHE188  VAL189  ILE190  SER192  SER193  SER196  TRP342 
 PHE345  PHE346  HIS349  VAL350  TYR365  THR369  GLY372  TYR373 

> <Gold.Protein.RotatedAtoms>
    4.8373   -8.8338    4.6527 H   0  0  0  0  0  0  0  0  0  0  0  0  # atno 1303 bound_to 1298
    1.0193   -9.2887    8.3222 H   0  0  0  0  0  0  0  0  0  0  0  0  # atno 2461 bound_to 2456
   -3.6425   -4.9994    8.4631 H   0  0  0  0  0  0  0  0  0  0  0  0  # atno 2472 bound_to 2467
    2.8358   -8.7326    4.4729 H   0  0  0  0  0  0  0  0  0  0  0  0  # atno 2515 bound_to 2510
   -2.9023  -17.4184   13.0391 H   0  0  0  0  0  0  0  0  0  0  0  0  # atno 3721 bound_to 3712
   -4.4647  -22.1708   11.6464 H   0  0  0  0  0  0  0  0  0  0  0  0  # atno 3767 bound_to 3762
    3.0352  -20.7921    9.0279 H   0  0  0  0  0  0  0  0  0  0  0  0  # atno 3841 bound_to 3832
    4.0523  -10.2656    4.6622 LP  0  0  0  0  0  0  0  0  0  0  0  0  # atno 4297 bound_to 1298
    3.4723   -9.0222    3.7766 LP  0  0  0  0  0  0  0  0  0  0  0  0  # atno 4298 bound_to 1298
    2.1272   -8.2688    7.6901 LP  0  0  0  0  0  0  0  0  0  0  0  0  # atno 4299 bound_to 2456
    0.5912   -8.2509    7.1360 LP  0  0  0  0  0  0  0  0  0  0  0  0  # atno 4300 bound_to 2456
    2.2254   -8.8554    5.9823 LP  0  0  0  0  0  0  0  0  0  0  0  0  # atno 4301 bound_to 2510
    2.2353   -7.4110    5.2204 LP  0  0  0  0  0  0  0  0  0  0  0  0  # atno 4302 bound_to 2510
   -2.6789  -18.0056   14.5167 LP  0  0  0  0  0  0  0  0  0  0  0  0  # atno 4306 bound_to 3712
   -3.4980  -16.6108   14.2924 LP  0  0  0  0  0  0  0  0  0  0  0  0  # atno 4307 bound_to 3712
    1.5029  -20.5157    9.4175 LP  0  0  0  0  0  0  0  0  0  0  0  0  # atno 4314 bound_to 3832
    2.2202  -19.6716    8.2176 LP  0  0  0  0  0  0  0  0  0  0  0  0  # atno 4315 bound_to 3832
   -4.1696  -23.3256   10.5301 LP  0  0  0  0  0  0  0  0  0  0  0  0  # atno 4318 bound_to 3762
   -5.4930  -22.3785   10.3949 LP  0  0  0  0  0  0  0  0  0  0  0  0  # atno 4319 bound_to 3762
   -4.9312   -5.4612    9.3533 LP  0  0  0  0  0  0  0  0  0  0  0  0  # atno 4320 bound_to 2467
   -5.1431   -4.9329    7.8227 LP  0  0  0  0  0  0  0  0  0  0  0  0  # atno 4321 bound_to 2467

> <Gold.Score>
     Score     S(PLP)   S(hbond)     S(cho)   S(metal)  DE(clash)   DE(tors)     intcor
     49.29     -43.38       2.00       0.00       0.00       0.00       0.04       0.00

> <Gold.PLP.Fitness>
49.2923

> <Gold.PLP.PLP>
-43.3778

> <Gold.PLP.part.hbond>
-1.0000

> <Gold.PLP.part.metal>
0.0000

> <Gold.PLP.part.buried>
-3.6133

> <Gold.PLP.part.nonpolar>
-38.6504

> <Gold.PLP.part.repulsive>
0.0022

> <Gold.PLP.ligand.clash>
0.0000

> <Gold.PLP.ligand.torsion>
0.0429

> <Gold.PLP.Chemscore.Hbond>
2.0000

> <Gold.PLP.Chemscore.CHOScore>
0.0000

> <Gold.PLP.Chemscore.Metal>
0.0000

> <Gold.Chemscore.Hbonds>
donor molecule, donor type, donor heavy atom, donor atom, acceptor molecule, acceptor atom, score
      L1  H     2    28       P1  1227  2.00

> <Gold.PLP.Chemscore.Internal.Correction>
0.0003

