#       Name:                EN300-11723_i002
#       Creating user name   fsindt
#       Creation time:       Tue Feb 28 08:09:30 2023


#       File generated by GOLD software.
#

@<TRIPOS>MOLECULE
EN300-11723_i002|amine_7|mol2|4345|dock18
    28    29     1
SMALL
USER_CHARGES


@<TRIPOS>ATOM
      1 C1          -0.7571 -18.4032   8.5881 C.3            1 <1>                0.0000
      2 N2          -0.3614 -17.8459   9.8884 N.4            1 <1>                1.0000
      3 C3          -0.8222 -18.7352  10.9630 C.3            1 <1>                0.0000
      4 C4          -0.3077 -20.1494  10.7017 C.3            1 <1>                0.0000
      5 C5          -0.6118 -21.0098  11.9339 C.3            1 <1>                0.0000
      6 C6           0.2881 -20.5476  13.0781 C.3            1 <1>                0.0000
      7 C7           0.1917 -19.0552  13.2581 C.ar           1 <1>                0.0000
      8 C8           0.6367 -18.5186  14.4591 C.ar           1 <1>                0.0000
      9 C9           0.5798 -17.1584  14.6833 C.ar           1 <1>                0.0000
     10 C10          0.0760 -16.3220  13.7049 C.ar           1 <1>                0.0000
     11 C11         -0.3688 -16.8535  12.5118 C.ar           1 <1>                0.0000
     12 C12         -0.3134 -18.2223  12.2847 C.ar           1 <1>                0.0000
     13 H13         -0.2256 -19.3393   8.4170 H              1 <1>                0.0000
     14 H14         -1.8311 -18.5892   8.5842 H              1 <1>                0.0000
     15 H15         -0.5082 -17.6945   7.7981 H              1 <1>                0.0000
     16 H16         -1.9120 -18.7462  10.9777 H              1 <1>                0.0000
     17 H17         -0.8098 -20.5673   9.8291 H              1 <1>                0.0000
     18 H18          0.7682 -20.1226  10.5291 H              1 <1>                0.0000
     19 H19         -1.6574 -20.8887  12.2172 H              1 <1>                0.0000
     20 H20         -0.4110 -22.0572  11.7088 H              1 <1>                0.0000
     21 H21         -0.0200 -21.0415  13.9996 H              1 <1>                0.0000
     22 H22          1.3204 -20.8168  12.8546 H              1 <1>                0.0000
     23 H23          1.0302 -19.1714  15.2242 H              1 <1>                0.0000
     24 H24          0.9274 -16.7486  15.6201 H              1 <1>                0.0000
     25 H25          0.0303 -15.2563  13.8738 H              1 <1>                0.0000
     26 H26         -0.7633 -16.1994  11.7482 H              1 <1>                0.0000
     27 H27          0.6436 -17.7639   9.9273 H              1 <1>                0.0000
     28 H28         -0.7780 -16.9342  10.0044 H              1 <1>                0.0000
@<TRIPOS>BOND
    1    1    2 1     
    2    1   13 1     
    3    1   14 1     
    4    1   15 1     
    5    2    3 1     
    6    2   27 1     
    7    2   28 1     
    8    3    4 1     
    9    3   12 1     
   10    3   16 1     
   11    4    5 1     
   12    4   17 1     
   13    4   18 1     
   14    5    6 1     
   15    5   19 1     
   16    5   20 1     
   17    6    7 1     
   18    6   21 1     
   19    6   22 1     
   20    7    8 ar    
   21    7   12 ar    
   22    8    9 ar    
   23    8   23 1     
   24    9   10 ar    
   25    9   24 1     
   26   10   11 ar    
   27   10   25 1     
   28   11   12 ar    
   29   11   26 1     
@<TRIPOS>SUBSTRUCTURE
      1 ****           1
@<TRIPOS>SET
DONOR_HYDROGENS      STATIC     ATOMS    <user>   **** ""
2 27 28
ATOM$RED        STATIC     ATOMS    COLORGROUP SYSTEM
2 27 28
@<TRIPOS>COMMENT
> <Gold.Version>
2022.2.0

> <Gold.Id.Protein>
3pbl|protein|mol2

> <Gold.Protein.RotatedTorsions>
[ 1303 1298 1297 1294 ] final    3.93 input  179.99 | X-H torsion
[ 2461 2456 2455 2452 ] final  -93.30 input   30.03 | X-H torsion
[ 2515 2510 2509 2506 ] final   12.94 input  -89.99 | X-H torsion
[ 3721 3712 3711 3710 ] final  -12.76 input -179.91 | X-H torsion
[ 3841 3832 3831 3830 ] final  -55.51 input -179.91 | X-H torsion
[ 3767 3762 3761 3758 ] final   55.80 input  -89.99 | X-H torsion
[ 2472 2467 2466 2463 ] final  152.69 input  -89.97 | X-H torsion

> <Gold.Protein.ActiveResidues>
 VAL82   VAL86   LEU89   PHE106  VAL107  ASP110  VAL111  MET112  CYS114  THR115 
 CYS181  SER182  ILE183  PHE188  VAL189  ILE190  SER192  SER193  SER196  TRP342 
 PHE345  PHE346  HIS349  VAL350  TYR365  THR369  GLY372  TYR373 

> <Gold.Protein.RotatedAtoms>
    3.4080   -9.9225    4.0820 H   0  0  0  0  0  0  0  0  0  0  0  0  # atno 1303 bound_to 1298
    0.3669   -8.9427    7.7488 H   0  0  0  0  0  0  0  0  0  0  0  0  # atno 2461 bound_to 2456
   -5.5030   -5.2613    8.6219 H   0  0  0  0  0  0  0  0  0  0  0  0  # atno 2472 bound_to 2467
    2.4511   -7.5128    4.7613 H   0  0  0  0  0  0  0  0  0  0  0  0  # atno 2515 bound_to 2510
   -2.5238  -17.8665   14.4083 H   0  0  0  0  0  0  0  0  0  0  0  0  # atno 3721 bound_to 3712
   -4.6274  -23.2592   10.1640 H   0  0  0  0  0  0  0  0  0  0  0  0  # atno 3767 bound_to 3762
    1.5935  -19.8536    9.0803 H   0  0  0  0  0  0  0  0  0  0  0  0  # atno 3841 bound_to 3832
    4.1794   -8.4835    4.0590 LP  0  0  0  0  0  0  0  0  0  0  0  0  # atno 4297 bound_to 1298
    4.7750   -9.7151    4.9507 LP  0  0  0  0  0  0  0  0  0  0  0  0  # atno 4298 bound_to 1298
    1.9070   -8.9487    8.2924 LP  0  0  0  0  0  0  0  0  0  0  0  0  # atno 4299 bound_to 2456
    1.4637   -7.9169    7.1069 LP  0  0  0  0  0  0  0  0  0  0  0  0  # atno 4300 bound_to 2456
    2.7720   -9.1127    4.8181 LP  0  0  0  0  0  0  0  0  0  0  0  0  # atno 4301 bound_to 2510
    2.0736   -8.3740    6.0961 LP  0  0  0  0  0  0  0  0  0  0  0  0  # atno 4302 bound_to 2510
   -3.5046  -16.6030   14.2685 LP  0  0  0  0  0  0  0  0  0  0  0  0  # atno 4306 bound_to 3712
   -3.1092  -17.4962   12.9599 LP  0  0  0  0  0  0  0  0  0  0  0  0  # atno 4307 bound_to 3712
    2.9045  -20.1171    8.1927 LP  0  0  0  0  0  0  0  0  0  0  0  0  # atno 4314 bound_to 3832
    2.4841  -21.1543    9.3818 LP  0  0  0  0  0  0  0  0  0  0  0  0  # atno 4315 bound_to 3832
   -5.4410  -22.0309   10.8683 LP  0  0  0  0  0  0  0  0  0  0  0  0  # atno 4318 bound_to 3762
   -4.0589  -22.5851   11.5385 LP  0  0  0  0  0  0  0  0  0  0  0  0  # atno 4319 bound_to 3762
   -4.2062   -4.8010    7.7428 LP  0  0  0  0  0  0  0  0  0  0  0  0  # atno 4320 bound_to 2467
   -4.0078   -5.3312    9.2745 LP  0  0  0  0  0  0  0  0  0  0  0  0  # atno 4321 bound_to 2467

> <Gold.Score>
     Score     S(PLP)   S(hbond)     S(cho)   S(metal)  DE(clash)   DE(tors)     intcor
     37.57     -31.60       2.00       0.00       0.00       0.00       0.01       0.00

> <Gold.PLP.Fitness>
37.5711

> <Gold.PLP.PLP>
-31.5997

> <Gold.PLP.part.hbond>
-1.0000

> <Gold.PLP.part.metal>
0.0000

> <Gold.PLP.part.buried>
-2.9896

> <Gold.PLP.part.nonpolar>
-28.1221

> <Gold.PLP.part.repulsive>
0.0000

> <Gold.PLP.ligand.clash>
0.0000

> <Gold.PLP.ligand.torsion>
0.0144

> <Gold.PLP.Chemscore.Hbond>
2.0000

> <Gold.PLP.Chemscore.CHOScore>
0.0000

> <Gold.PLP.Chemscore.Metal>
0.0000

> <Gold.Chemscore.Hbonds>
donor molecule, donor type, donor heavy atom, donor atom, acceptor molecule, acceptor atom, score
      L1  H     2    27       P1  1227  2.00

> <Gold.PLP.Chemscore.Internal.Correction>
0.0003

