#       Name:                EN300-11723_i002
#       Creating user name   fsindt
#       Creation time:       Tue Feb 28 08:09:28 2023


#       File generated by GOLD software.
#

@<TRIPOS>MOLECULE
EN300-11723_i002|amine_7|mol2|4345|dock10
    28    29     1
SMALL
USER_CHARGES


@<TRIPOS>ATOM
      1 C1          -1.6798 -10.1118   9.6206 C.3            1 <1>                0.0000
      2 N2          -0.3699 -10.6030   9.1722 N.4            1 <1>                1.0000
      3 C3          -0.5202 -11.9489   8.6031 C.3            1 <1>                0.0000
      4 C4           0.5202 -12.1497   7.5031 C.3            1 <1>                0.0000
      5 C5           0.4920 -13.6213   7.0737 C.3            1 <1>                0.0000
      6 C6           1.0615 -14.4661   8.2116 C.3            1 <1>                0.0000
      7 C7           0.3802 -14.1307   9.5125 C.ar           1 <1>                0.0000
      8 C8           0.4990 -15.0376  10.5574 C.ar           1 <1>                0.0000
      9 C9          -0.0976 -14.7858  11.7757 C.ar           1 <1>                0.0000
     10 C10         -0.8195 -13.6214  11.9589 C.ar           1 <1>                0.0000
     11 C11         -0.9405 -12.7201  10.9213 C.ar           1 <1>                0.0000
     12 C12         -0.3418 -12.9722   9.6940 C.ar           1 <1>                0.0000
     13 H13         -2.3311  -9.9742   8.7576 H              1 <1>                0.0000
     14 H14         -2.1263 -10.8371  10.3008 H              1 <1>                0.0000
     15 H15         -1.5538  -9.1598  10.1362 H              1 <1>                0.0000
     16 H16         -1.5182 -12.0493   8.1765 H              1 <1>                0.0000
     17 H17          0.2807 -11.5138   6.6507 H              1 <1>                0.0000
     18 H18          1.5100 -11.8972   7.8834 H              1 <1>                0.0000
     19 H19         -0.5349 -13.9246   6.8698 H              1 <1>                0.0000
     20 H20          1.0992 -13.7542   6.1784 H              1 <1>                0.0000
     21 H21          0.9080 -15.5216   7.9872 H              1 <1>                0.0000
     22 H22          2.1298 -14.2706   8.3044 H              1 <1>                0.0000
     23 H23          1.0626 -15.9478  10.4150 H              1 <1>                0.0000
     24 H24         -0.0012 -15.4962  12.5834 H              1 <1>                0.0000
     25 H25         -1.2874 -13.4179  12.9107 H              1 <1>                0.0000
     26 H26         -1.5056 -11.8109  11.0648 H              1 <1>                0.0000
     27 H27          0.0003  -9.9802   8.4699 H              1 <1>                0.0000
     28 H28          0.2628 -10.6385   9.9574 H              1 <1>                0.0000
@<TRIPOS>BOND
    1    1    2 1     
    2    1   13 1     
    3    1   14 1     
    4    1   15 1     
    5    2    3 1     
    6    2   27 1     
    7    2   28 1     
    8    3    4 1     
    9    3   12 1     
   10    3   16 1     
   11    4    5 1     
   12    4   17 1     
   13    4   18 1     
   14    5    6 1     
   15    5   19 1     
   16    5   20 1     
   17    6    7 1     
   18    6   21 1     
   19    6   22 1     
   20    7    8 ar    
   21    7   12 ar    
   22    8    9 ar    
   23    8   23 1     
   24    9   10 ar    
   25    9   24 1     
   26   10   11 ar    
   27   10   25 1     
   28   11   12 ar    
   29   11   26 1     
@<TRIPOS>SUBSTRUCTURE
      1 ****           1
@<TRIPOS>SET
DONOR_HYDROGENS      STATIC     ATOMS    <user>   **** ""
2 27 28
ATOM$RED        STATIC     ATOMS    COLORGROUP SYSTEM
2 27 28
@<TRIPOS>COMMENT
> <Gold.Version>
2022.2.0

> <Gold.Id.Protein>
3pbl|protein|mol2

> <Gold.Protein.RotatedTorsions>
[ 1303 1298 1297 1294 ] final -102.45 input  179.99 | X-H torsion
[ 2461 2456 2455 2452 ] final  101.10 input   30.03 | X-H torsion
[ 2515 2510 2509 2506 ] final  -30.25 input  -89.99 | X-H torsion
[ 3721 3712 3711 3710 ] final  171.46 input -179.91 | X-H torsion
[ 3841 3832 3831 3830 ] final  170.89 input -179.91 | X-H torsion
[ 3767 3762 3761 3758 ] final -123.27 input  -89.99 | X-H torsion
[ 2472 2467 2466 2463 ] final -127.62 input  -89.97 | X-H torsion

> <Gold.Protein.ActiveResidues>
 VAL82   VAL86   LEU89   PHE106  VAL107  ASP110  VAL111  MET112  CYS114  THR115 
 CYS181  SER182  ILE183  PHE188  VAL189  ILE190  SER192  SER193  SER196  TRP342 
 PHE345  PHE346  HIS349  VAL350  TYR365  THR369  GLY372  TYR373 

> <Gold.Protein.RotatedAtoms>
    3.9917   -8.5368    3.9498 H   0  0  0  0  0  0  0  0  0  0  0  0  # atno 1303 bound_to 1298
    2.1610   -8.4216    7.8546 H   0  0  0  0  0  0  0  0  0  0  0  0  # atno 2461 bound_to 2456
   -4.6260   -5.4560    9.4298 H   0  0  0  0  0  0  0  0  0  0  0  0  # atno 2472 bound_to 2467
    2.7219   -8.0268    4.3822 H   0  0  0  0  0  0  0  0  0  0  0  0  # atno 2515 bound_to 2510
   -3.2993  -16.6645   13.4331 H   0  0  0  0  0  0  0  0  0  0  0  0  # atno 3721 bound_to 3712
   -4.8033  -21.9850   11.5431 H   0  0  0  0  0  0  0  0  0  0  0  0  # atno 3767 bound_to 3762
    3.0285  -20.1562    8.4627 H   0  0  0  0  0  0  0  0  0  0  0  0  # atno 3841 bound_to 3832
    4.8614   -9.5100    4.9312 LP  0  0  0  0  0  0  0  0  0  0  0  0  # atno 4297 bound_to 1298
    3.5092  -10.0748    4.2107 LP  0  0  0  0  0  0  0  0  0  0  0  0  # atno 4298 bound_to 1298
    0.7632   -8.1203    7.0656 LP  0  0  0  0  0  0  0  0  0  0  0  0  # atno 4299 bound_to 2456
    0.8139   -9.2662    8.2280 LP  0  0  0  0  0  0  0  0  0  0  0  0  # atno 4300 bound_to 2456
    2.5308   -9.2419    5.4558 LP  0  0  0  0  0  0  0  0  0  0  0  0  # atno 4301 bound_to 2510
    2.0439   -7.7307    5.8376 LP  0  0  0  0  0  0  0  0  0  0  0  0  # atno 4302 bound_to 2510
   -2.6885  -18.1483   13.4890 LP  0  0  0  0  0  0  0  0  0  0  0  0  # atno 4306 bound_to 3712
   -3.0301  -17.3385   14.8653 LP  0  0  0  0  0  0  0  0  0  0  0  0  # atno 4307 bound_to 3712
    2.2354  -21.1019    9.4888 LP  0  0  0  0  0  0  0  0  0  0  0  0  # atno 4314 bound_to 3832
    1.4956  -19.8199    8.7991 LP  0  0  0  0  0  0  0  0  0  0  0  0  # atno 4315 bound_to 3832
   -3.9722  -23.2130   10.8589 LP  0  0  0  0  0  0  0  0  0  0  0  0  # atno 4318 bound_to 3762
   -5.3519  -22.6768   10.1693 LP  0  0  0  0  0  0  0  0  0  0  0  0  # atno 4319 bound_to 3762
   -5.3563   -5.0319    8.0323 LP  0  0  0  0  0  0  0  0  0  0  0  0  # atno 4320 bound_to 2467
   -3.7346   -4.9057    8.1772 LP  0  0  0  0  0  0  0  0  0  0  0  0  # atno 4321 bound_to 2467

> <Gold.Score>
     Score     S(PLP)   S(hbond)     S(cho)   S(metal)  DE(clash)   DE(tors)     intcor
     44.87     -42.64       1.00       0.00       0.00       0.00       0.39       0.00

> <Gold.PLP.Fitness>
44.8692

> <Gold.PLP.PLP>
-42.6419

> <Gold.PLP.part.hbond>
-1.0000

> <Gold.PLP.part.metal>
0.0000

> <Gold.PLP.part.buried>
-3.1157

> <Gold.PLP.part.nonpolar>
-40.1232

> <Gold.PLP.part.repulsive>
0.0264

> <Gold.PLP.ligand.clash>
0.0000

> <Gold.PLP.ligand.torsion>
0.3865

> <Gold.PLP.Chemscore.Hbond>
1.0000

> <Gold.PLP.Chemscore.CHOScore>
0.0000

> <Gold.PLP.Chemscore.Metal>
0.0000

> <Gold.Chemscore.Hbonds>
donor molecule, donor type, donor heavy atom, donor atom, acceptor molecule, acceptor atom, score
      L1  H     2    27       P1  2456  1.00

> <Gold.PLP.Chemscore.Internal.Correction>
0.0003

