#       Name:                EN300-11723_i002
#       Creating user name   fsindt
#       Creation time:       Tue Feb 28 08:09:30 2023


#       File generated by GOLD software.
#

@<TRIPOS>MOLECULE
EN300-11723_i002|amine_7|mol2|4345|dock17
    28    29     1
SMALL
USER_CHARGES


@<TRIPOS>ATOM
      1 C1           0.0588 -15.9379  12.2170 C.3            1 <1>                0.0000
      2 N2          -0.6158 -14.6515  11.9979 N.4            1 <1>                1.0000
      3 C3           0.0651 -13.9184  10.9223 C.3            1 <1>                0.0000
      4 C4           0.1990 -14.8255   9.7010 C.3            1 <1>                0.0000
      5 C5           0.7110 -13.9830   8.5267 C.3            1 <1>                0.0000
      6 C6          -0.4017 -13.0291   8.0970 C.3            1 <1>                0.0000
      7 C7          -0.9397 -12.2738   9.2841 C.ar           1 <1>                0.0000
      8 C8          -1.6750 -11.1216   9.0385 C.ar           1 <1>                0.0000
      9 C9          -2.1990 -10.3881  10.0830 C.ar           1 <1>                0.0000
     10 C10         -1.9911 -10.8028  11.3851 C.ar           1 <1>                0.0000
     11 C11         -1.2589 -11.9461  11.6313 C.ar           1 <1>                0.0000
     12 C12         -0.7298 -12.6850  10.5815 C.ar           1 <1>                0.0000
     13 H13         -0.0635 -16.5671  11.3353 H              1 <1>                0.0000
     14 H14          1.1201 -15.7658  12.3961 H              1 <1>                0.0000
     15 H15         -0.3797 -16.4355  13.0820 H              1 <1>                0.0000
     16 H16          1.0580 -13.6231  11.2614 H              1 <1>                0.0000
     17 H17          0.9069 -15.6265   9.9143 H              1 <1>                0.0000
     18 H18         -0.7730 -15.2509   9.4512 H              1 <1>                0.0000
     19 H19          1.5847 -13.4109   8.8388 H              1 <1>                0.0000
     20 H20          0.9768 -14.6355   7.6951 H              1 <1>                0.0000
     21 H21         -0.0066 -12.3205   7.3692 H              1 <1>                0.0000
     22 H22         -1.2087 -13.6012   7.6393 H              1 <1>                0.0000
     23 H23         -1.8376 -10.7967   8.0214 H              1 <1>                0.0000
     24 H24         -2.7693  -9.4929   9.8841 H              1 <1>                0.0000
     25 H25         -2.4001 -10.2338  12.2069 H              1 <1>                0.0000
     26 H26         -1.0960 -12.2689  12.6491 H              1 <1>                0.0000
     27 H27         -1.5767 -14.8157  11.7372 H              1 <1>                0.0000
     28 H28         -0.5861 -14.1073  12.8471 H              1 <1>                0.0000
@<TRIPOS>BOND
    1    1    2 1     
    2    1   13 1     
    3    1   14 1     
    4    1   15 1     
    5    2    3 1     
    6    2   27 1     
    7    2   28 1     
    8    3    4 1     
    9    3   12 1     
   10    3   16 1     
   11    4    5 1     
   12    4   17 1     
   13    4   18 1     
   14    5    6 1     
   15    5   19 1     
   16    5   20 1     
   17    6    7 1     
   18    6   21 1     
   19    6   22 1     
   20    7    8 ar    
   21    7   12 ar    
   22    8    9 ar    
   23    8   23 1     
   24    9   10 ar    
   25    9   24 1     
   26   10   11 ar    
   27   10   25 1     
   28   11   12 ar    
   29   11   26 1     
@<TRIPOS>SUBSTRUCTURE
      1 ****           1
@<TRIPOS>SET
DONOR_HYDROGENS      STATIC     ATOMS    <user>   **** ""
2 27 28
ATOM$RED        STATIC     ATOMS    COLORGROUP SYSTEM
2 27 28
@<TRIPOS>COMMENT
> <Gold.Version>
2022.2.0

> <Gold.Id.Protein>
3pbl|protein|mol2

> <Gold.Protein.RotatedTorsions>
[ 1303 1298 1297 1294 ] final   40.09 input  179.99 | X-H torsion
[ 2461 2456 2455 2452 ] final -169.21 input   30.03 | X-H torsion
[ 2515 2510 2509 2506 ] final   19.87 input  -89.99 | X-H torsion
[ 3721 3712 3711 3710 ] final   39.75 input -179.91 | X-H torsion
[ 3841 3832 3831 3830 ] final  120.86 input -179.91 | X-H torsion
[ 3767 3762 3761 3758 ] final   50.96 input  -89.99 | X-H torsion
[ 2472 2467 2466 2463 ] final  107.98 input  -89.97 | X-H torsion

> <Gold.Protein.ActiveResidues>
 VAL82   VAL86   LEU89   PHE106  VAL107  ASP110  VAL111  MET112  CYS114  THR115 
 CYS181  SER182  ILE183  PHE188  VAL189  ILE190  SER192  SER193  SER196  TRP342 
 PHE345  PHE346  HIS349  VAL350  TYR365  THR369  GLY372  TYR373 

> <Gold.Protein.RotatedAtoms>
    3.7481  -10.2362    4.4400 H   0  0  0  0  0  0  0  0  0  0  0  0  # atno 1303 bound_to 1298
    1.2802   -9.2635    8.3881 H   0  0  0  0  0  0  0  0  0  0  0  0  # atno 2461 bound_to 2456
   -5.3143   -5.0084    7.9778 H   0  0  0  0  0  0  0  0  0  0  0  0  # atno 2472 bound_to 2467
    2.4024   -7.4674    4.8537 H   0  0  0  0  0  0  0  0  0  0  0  0  # atno 2515 bound_to 2510
   -2.5063  -18.0137   13.6565 H   0  0  0  0  0  0  0  0  0  0  0  0  # atno 3721 bound_to 3712
   -4.6950  -23.2300   10.1338 H   0  0  0  0  0  0  0  0  0  0  0  0  # atno 3767 bound_to 3762
    3.0854  -20.7172    8.9297 H   0  0  0  0  0  0  0  0  0  0  0  0  # atno 3841 bound_to 3832
    3.7025   -8.7257    3.8216 LP  0  0  0  0  0  0  0  0  0  0  0  0  # atno 4297 bound_to 1298
    4.9117   -9.1590    4.8300 LP  0  0  0  0  0  0  0  0  0  0  0  0  # atno 4298 bound_to 1298
    2.0209   -8.1126    7.4969 LP  0  0  0  0  0  0  0  0  0  0  0  0  # atno 4299 bound_to 2456
    0.4367   -8.4323    7.2633 LP  0  0  0  0  0  0  0  0  0  0  0  0  # atno 4300 bound_to 2456
    2.7958   -9.0470    4.7281 LP  0  0  0  0  0  0  0  0  0  0  0  0  # atno 4301 bound_to 2510
    2.0986   -8.4852    6.0937 LP  0  0  0  0  0  0  0  0  0  0  0  0  # atno 4302 bound_to 2510
   -3.1528  -17.1298   14.8307 LP  0  0  0  0  0  0  0  0  0  0  0  0  # atno 4306 bound_to 3712
   -3.4813  -16.7994   13.2656 LP  0  0  0  0  0  0  0  0  0  0  0  0  # atno 4307 bound_to 3712
    1.5778  -20.6297    9.4733 LP  0  0  0  0  0  0  0  0  0  0  0  0  # atno 4314 bound_to 3832
    2.0874  -19.6441    8.2752 LP  0  0  0  0  0  0  0  0  0  0  0  0  # atno 4315 bound_to 3832
   -5.4107  -22.0002   10.9352 LP  0  0  0  0  0  0  0  0  0  0  0  0  # atno 4318 bound_to 3762
   -4.0216  -22.6451   11.5018 LP  0  0  0  0  0  0  0  0  0  0  0  0  # atno 4319 bound_to 3762
   -3.7048   -4.9251    8.2402 LP  0  0  0  0  0  0  0  0  0  0  0  0  # atno 4320 bound_to 2467
   -4.6980   -5.4599    9.4210 LP  0  0  0  0  0  0  0  0  0  0  0  0  # atno 4321 bound_to 2467

> <Gold.Score>
     Score     S(PLP)   S(hbond)     S(cho)   S(metal)  DE(clash)   DE(tors)     intcor
     40.63     -40.69       0.00       0.00       0.00       0.00       0.03       0.00

> <Gold.PLP.Fitness>
40.6331

> <Gold.PLP.PLP>
-40.6930

> <Gold.PLP.part.hbond>
0.0000

> <Gold.PLP.part.metal>
0.0000

> <Gold.PLP.part.buried>
-2.6292

> <Gold.PLP.part.nonpolar>
-38.1390

> <Gold.PLP.part.repulsive>
0.0648

> <Gold.PLP.ligand.clash>
0.0000

> <Gold.PLP.ligand.torsion>
0.0301

> <Gold.PLP.Chemscore.Hbond>
0.0000

> <Gold.PLP.Chemscore.CHOScore>
0.0000

> <Gold.PLP.Chemscore.Metal>
0.0000

> <Gold.PLP.Chemscore.Internal.Correction>
0.0003

