#       Name:                EN300-11723_i002
#       Creating user name   fsindt
#       Creation time:       Tue Feb 28 08:09:28 2023


#       File generated by GOLD software.
#

@<TRIPOS>MOLECULE
EN300-11723_i002|amine_7|mol2|4345|dock9
    28    29     1
SMALL
USER_CHARGES


@<TRIPOS>ATOM
      1 C1          -0.9700 -18.6119   9.3450 C.3            1 <1>                0.0000
      2 N2           0.3053 -18.9476   9.9922 N.4            1 <1>                1.0000
      3 C3           0.0760 -19.2103  11.4192 C.3            1 <1>                0.0000
      4 C4           0.9856 -20.3499  11.8740 C.3            1 <1>                0.0000
      5 C5           0.8915 -20.4639  13.4002 C.3            1 <1>                0.0000
      6 C6           1.5729 -19.2442  14.0172 C.3            1 <1>                0.0000
      7 C7           1.0442 -17.9746  13.4026 C.ar           1 <1>                0.0000
      8 C8           1.2666 -16.7849  14.0835 C.ar           1 <1>                0.0000
      9 C9           0.8119 -15.5877  13.5704 C.ar           1 <1>                0.0000
     10 C10          0.1294 -15.5710  12.3685 C.ar           1 <1>                0.0000
     11 C11         -0.0946 -16.7522  11.6915 C.ar           1 <1>                0.0000
     12 C12          0.3613 -17.9584  12.2069 C.ar           1 <1>                0.0000
     13 H13         -1.6264 -19.4819   9.3623 H              1 <1>                0.0000
     14 H14         -1.4435 -17.7888   9.8803 H              1 <1>                0.0000
     15 H15         -0.7865 -18.3158   8.3122 H              1 <1>                0.0000
     16 H16         -0.9643 -19.4992  11.5688 H              1 <1>                0.0000
     17 H17          0.6611 -21.2840  11.4154 H              1 <1>                0.0000
     18 H18          2.0145 -20.1362  11.5846 H              1 <1>                0.0000
     19 H19         -0.1554 -20.4915  13.7024 H              1 <1>                0.0000
     20 H20          1.3940 -21.3723  13.7321 H              1 <1>                0.0000
     21 H21          1.3823 -19.2304  15.0903 H              1 <1>                0.0000
     22 H22          2.6472 -19.3069  13.8444 H              1 <1>                0.0000
     23 H23          1.7995 -16.7971  15.0228 H              1 <1>                0.0000
     24 H24          0.9882 -14.6666  14.1061 H              1 <1>                0.0000
     25 H25         -0.2276 -14.6368  11.9609 H              1 <1>                0.0000
     26 H26         -0.6288 -16.7385  10.7529 H              1 <1>                0.0000
     27 H27          0.6969 -19.7697   9.5575 H              1 <1>                0.0000
     28 H28          0.9472 -18.1756   9.8912 H              1 <1>                0.0000
@<TRIPOS>BOND
    1    1    2 1     
    2    1   13 1     
    3    1   14 1     
    4    1   15 1     
    5    2    3 1     
    6    2   27 1     
    7    2   28 1     
    8    3    4 1     
    9    3   12 1     
   10    3   16 1     
   11    4    5 1     
   12    4   17 1     
   13    4   18 1     
   14    5    6 1     
   15    5   19 1     
   16    5   20 1     
   17    6    7 1     
   18    6   21 1     
   19    6   22 1     
   20    7    8 ar    
   21    7   12 ar    
   22    8    9 ar    
   23    8   23 1     
   24    9   10 ar    
   25    9   24 1     
   26   10   11 ar    
   27   10   25 1     
   28   11   12 ar    
   29   11   26 1     
@<TRIPOS>SUBSTRUCTURE
      1 ****           1
@<TRIPOS>SET
DONOR_HYDROGENS      STATIC     ATOMS    <user>   **** ""
2 27 28
ATOM$RED        STATIC     ATOMS    COLORGROUP SYSTEM
2 27 28
@<TRIPOS>COMMENT
> <Gold.Version>
2022.2.0

> <Gold.Id.Protein>
3pbl|protein|mol2

> <Gold.Protein.RotatedTorsions>
[ 1303 1298 1297 1294 ] final -101.07 input  179.99 | X-H torsion
[ 2461 2456 2455 2452 ] final   41.87 input   30.03 | X-H torsion
[ 2515 2510 2509 2506 ] final  -69.83 input  -89.99 | X-H torsion
[ 3721 3712 3711 3710 ] final  -23.90 input -179.91 | X-H torsion
[ 3841 3832 3831 3830 ] final  145.53 input -179.91 | X-H torsion
[ 3767 3762 3761 3758 ] final  -51.39 input  -89.99 | X-H torsion
[ 2472 2467 2466 2463 ] final   98.68 input  -89.97 | X-H torsion

> <Gold.Protein.ActiveResidues>
 VAL82   VAL86   LEU89   PHE106  VAL107  ASP110  VAL111  MET112  CYS114  THR115 
 CYS181  SER182  ILE183  PHE188  VAL189  ILE190  SER192  SER193  SER196  TRP342 
 PHE345  PHE346  HIS349  VAL350  TYR365  THR369  GLY372  TYR373 

> <Gold.Protein.RotatedAtoms>
    3.9729   -8.5449    3.9399 H   0  0  0  0  0  0  0  0  0  0  0  0  # atno 1303 bound_to 1298
    1.6889   -7.9415    7.2101 H   0  0  0  0  0  0  0  0  0  0  0  0  # atno 2461 bound_to 2456
   -5.2119   -4.9602    7.8752 H   0  0  0  0  0  0  0  0  0  0  0  0  # atno 2472 bound_to 2467
    2.8346   -8.6527    4.4351 H   0  0  0  0  0  0  0  0  0  0  0  0  # atno 2515 bound_to 2510
   -2.5715  -17.7639   14.5327 H   0  0  0  0  0  0  0  0  0  0  0  0  # atno 3721 bound_to 3712
   -5.4954  -22.1314   10.6917 H   0  0  0  0  0  0  0  0  0  0  0  0  # atno 3767 bound_to 3762
    3.1308  -20.4582    8.6697 H   0  0  0  0  0  0  0  0  0  0  0  0  # atno 3841 bound_to 3832
    4.8679   -9.4885    4.9274 LP  0  0  0  0  0  0  0  0  0  0  0  0  # atno 4297 bound_to 1298
    3.5214  -10.0882    4.2244 LP  0  0  0  0  0  0  0  0  0  0  0  0  # atno 4298 bound_to 1298
    0.3308   -8.7749    7.5685 LP  0  0  0  0  0  0  0  0  0  0  0  0  # atno 4299 bound_to 2456
    1.7182   -9.0916    8.3693 LP  0  0  0  0  0  0  0  0  0  0  0  0  # atno 4300 bound_to 2456
    2.2587   -8.9245    5.9385 LP  0  0  0  0  0  0  0  0  0  0  0  0  # atno 4301 bound_to 2510
    2.2032   -7.4217    5.3021 LP  0  0  0  0  0  0  0  0  0  0  0  0  # atno 4302 bound_to 2510
   -3.5427  -16.5642   14.0908 LP  0  0  0  0  0  0  0  0  0  0  0  0  # atno 4306 bound_to 3712
   -3.0161  -17.6533   12.9939 LP  0  0  0  0  0  0  0  0  0  0  0  0  # atno 4307 bound_to 3712
    1.8654  -20.9110    9.5470 LP  0  0  0  0  0  0  0  0  0  0  0  0  # atno 4314 bound_to 3832
    1.7473  -19.6620    8.5018 LP  0  0  0  0  0  0  0  0  0  0  0  0  # atno 4315 bound_to 3832
   -4.1793  -22.4287   11.6117 LP  0  0  0  0  0  0  0  0  0  0  0  0  # atno 4318 bound_to 3762
   -4.4529  -23.3147   10.2676 LP  0  0  0  0  0  0  0  0  0  0  0  0  # atno 4319 bound_to 3762
   -3.6587   -4.9700    8.3788 LP  0  0  0  0  0  0  0  0  0  0  0  0  # atno 4320 bound_to 2467
   -4.8465   -5.4633    9.3850 LP  0  0  0  0  0  0  0  0  0  0  0  0  # atno 4321 bound_to 2467

> <Gold.Score>
     Score     S(PLP)   S(hbond)     S(cho)   S(metal)  DE(clash)   DE(tors)     intcor
     42.57     -34.70       2.96       0.00       0.00       0.00       0.50       0.00

> <Gold.PLP.Fitness>
42.5734

> <Gold.PLP.PLP>
-34.6965

> <Gold.PLP.part.hbond>
-2.0000

> <Gold.PLP.part.metal>
0.0000

> <Gold.PLP.part.buried>
-3.9719

> <Gold.PLP.part.nonpolar>
-29.9709

> <Gold.PLP.part.repulsive>
0.0000

> <Gold.PLP.ligand.clash>
0.0000

> <Gold.PLP.ligand.torsion>
0.5017

> <Gold.PLP.Chemscore.Hbond>
2.9600

> <Gold.PLP.Chemscore.CHOScore>
0.0000

> <Gold.PLP.Chemscore.Metal>
0.0000

> <Gold.Chemscore.Hbonds>
donor molecule, donor type, donor heavy atom, donor atom, acceptor molecule, acceptor atom, score
      L1  H     2    27       P1  3832  0.98
      L1  H     2    28       P1  1227  1.98

> <Gold.PLP.Chemscore.Internal.Correction>
0.0003

