#       Name:                EN300-11723_i002
#       Creating user name   fsindt
#       Creation time:       Tue Feb 28 08:09:29 2023


#       File generated by GOLD software.
#

@<TRIPOS>MOLECULE
EN300-11723_i002|amine_7|mol2|4345|dock16
    28    29     1
SMALL
USER_CHARGES


@<TRIPOS>ATOM
      1 C1          -1.0111 -18.5883   8.3989 C.3            1 <1>                0.0000
      2 N2          -0.3694 -17.7939   9.4550 N.4            1 <1>                1.0000
      3 C3          -0.7785 -18.3057  10.7698 C.3            1 <1>                0.0000
      4 C4          -0.3782 -19.7751  10.8850 C.3            1 <1>                0.0000
      5 C5          -0.6148 -20.2287  12.3304 C.3            1 <1>                0.0000
      6 C6           0.4169 -19.5444  13.2249 C.3            1 <1>                0.0000
      7 C7           0.4289 -18.0584  12.9786 C.ar           1 <1>                0.0000
      8 C8           1.0186 -17.2482  13.9400 C.ar           1 <1>                0.0000
      9 C9           1.0661 -15.8798  13.7706 C.ar           1 <1>                0.0000
     10 C10          0.5227 -15.3095  12.6348 C.ar           1 <1>                0.0000
     11 C11         -0.0656 -16.1126  11.6794 C.ar           1 <1>                0.0000
     12 C12         -0.1154 -17.4899  11.8486 C.ar           1 <1>                0.0000
     13 H13         -0.6281 -19.6084   8.4281 H              1 <1>                0.0000
     14 H14         -2.0893 -18.6004   8.5578 H              1 <1>                0.0000
     15 H15         -0.7919 -18.1457   7.4273 H              1 <1>                0.0000
     16 H16         -1.8606 -18.2191  10.8683 H              1 <1>                0.0000
     17 H17         -0.9858 -20.3754  10.2077 H              1 <1>                0.0000
     18 H18          0.6759 -19.8894  10.6322 H              1 <1>                0.0000
     19 H19         -1.6191 -19.9446  12.6446 H              1 <1>                0.0000
     20 H20         -0.5003 -21.3104  12.3991 H              1 <1>                0.0000
     21 H21          0.1689 -19.7336  14.2693 H              1 <1>                0.0000
     22 H22          1.4048 -19.9522  13.0112 H              1 <1>                0.0000
     23 H23          1.4431 -17.6929  14.8280 H              1 <1>                0.0000
     24 H24          1.5259 -15.2562  14.5230 H              1 <1>                0.0000
     25 H25          0.5582 -14.2391  12.4957 H              1 <1>                0.0000
     26 H26         -0.4909 -15.6662  10.7926 H              1 <1>                0.0000
     27 H27          0.6333 -17.8618   9.3646 H              1 <1>                0.0000
     28 H28         -0.6503 -16.8287   9.3674 H              1 <1>                0.0000
@<TRIPOS>BOND
    1    1    2 1     
    2    1   13 1     
    3    1   14 1     
    4    1   15 1     
    5    2    3 1     
    6    2   27 1     
    7    2   28 1     
    8    3    4 1     
    9    3   12 1     
   10    3   16 1     
   11    4    5 1     
   12    4   17 1     
   13    4   18 1     
   14    5    6 1     
   15    5   19 1     
   16    5   20 1     
   17    6    7 1     
   18    6   21 1     
   19    6   22 1     
   20    7    8 ar    
   21    7   12 ar    
   22    8    9 ar    
   23    8   23 1     
   24    9   10 ar    
   25    9   24 1     
   26   10   11 ar    
   27   10   25 1     
   28   11   12 ar    
   29   11   26 1     
@<TRIPOS>SUBSTRUCTURE
      1 ****           1
@<TRIPOS>SET
DONOR_HYDROGENS      STATIC     ATOMS    <user>   **** ""
2 27 28
ATOM$RED        STATIC     ATOMS    COLORGROUP SYSTEM
2 27 28
@<TRIPOS>COMMENT
> <Gold.Version>
2022.2.0

> <Gold.Id.Protein>
3pbl|protein|mol2

> <Gold.Protein.RotatedTorsions>
[ 1303 1298 1297 1294 ] final  153.82 input  179.99 | X-H torsion
[ 2461 2456 2455 2452 ] final  -76.05 input   30.03 | X-H torsion
[ 2515 2510 2509 2506 ] final   16.81 input  -89.99 | X-H torsion
[ 3721 3712 3711 3710 ] final   95.86 input -179.91 | X-H torsion
[ 3841 3832 3831 3830 ] final  161.16 input -179.91 | X-H torsion
[ 3767 3762 3761 3758 ] final  162.71 input  -89.99 | X-H torsion
[ 2472 2467 2466 2463 ] final  -17.30 input  -89.97 | X-H torsion

> <Gold.Protein.ActiveResidues>
 VAL82   VAL86   LEU89   PHE106  VAL107  ASP110  VAL111  MET112  CYS114  THR115 
 CYS181  SER182  ILE183  PHE188  VAL189  ILE190  SER192  SER193  SER196  TRP342 
 PHE345  PHE346  HIS349  VAL350  TYR365  THR369  GLY372  TYR373 

> <Gold.Protein.RotatedAtoms>
    4.9094   -9.2555    4.8664 H   0  0  0  0  0  0  0  0  0  0  0  0  # atno 1303 bound_to 1298
    0.3305   -8.7507    7.5443 H   0  0  0  0  0  0  0  0  0  0  0  0  # atno 2461 bound_to 2456
   -3.6756   -4.9507    8.3180 H   0  0  0  0  0  0  0  0  0  0  0  0  # atno 2472 bound_to 2467
    2.4239   -7.4859    4.8123 H   0  0  0  0  0  0  0  0  0  0  0  0  # atno 2515 bound_to 2510
   -2.8271  -17.5445   13.0727 H   0  0  0  0  0  0  0  0  0  0  0  0  # atno 3721 bound_to 3712
   -3.9690  -22.7463   11.4286 H   0  0  0  0  0  0  0  0  0  0  0  0  # atno 3767 bound_to 3762
    3.0849  -20.2726    8.5320 H   0  0  0  0  0  0  0  0  0  0  0  0  # atno 3841 bound_to 3832
    3.6743  -10.2041    4.3756 LP  0  0  0  0  0  0  0  0  0  0  0  0  # atno 4297 bound_to 1298
    3.7782   -8.6618    3.8494 LP  0  0  0  0  0  0  0  0  0  0  0  0  # atno 4298 bound_to 1298
    1.6895   -9.1088    8.3764 LP  0  0  0  0  0  0  0  0  0  0  0  0  # atno 4299 bound_to 2456
    1.7175   -7.9488    7.2274 LP  0  0  0  0  0  0  0  0  0  0  0  0  # atno 4300 bound_to 2456
    2.7859   -9.0773    4.7669 LP  0  0  0  0  0  0  0  0  0  0  0  0  # atno 4301 bound_to 2510
    2.0869   -8.4364    6.0963 LP  0  0  0  0  0  0  0  0  0  0  0  0  # atno 4302 bound_to 2510
   -2.7288  -17.9001   14.6353 LP  0  0  0  0  0  0  0  0  0  0  0  0  # atno 4306 bound_to 3712
   -3.5349  -16.5709   14.1352 LP  0  0  0  0  0  0  0  0  0  0  0  0  # atno 4307 bound_to 3712
    2.0889  -21.0433    9.5271 LP  0  0  0  0  0  0  0  0  0  0  0  0  # atno 4314 bound_to 3832
    1.5768  -19.7440    8.6808 LP  0  0  0  0  0  0  0  0  0  0  0  0  # atno 4315 bound_to 3832
   -4.8105  -23.1707   10.0950 LP  0  0  0  0  0  0  0  0  0  0  0  0  # atno 4318 bound_to 3762
   -5.3476  -21.9581   11.0477 LP  0  0  0  0  0  0  0  0  0  0  0  0  # atno 4319 bound_to 3762
   -4.7828   -5.4629    9.4034 LP  0  0  0  0  0  0  0  0  0  0  0  0  # atno 4320 bound_to 2467
   -5.2584   -4.9798    7.9178 LP  0  0  0  0  0  0  0  0  0  0  0  0  # atno 4321 bound_to 2467

> <Gold.Score>
     Score     S(PLP)   S(hbond)     S(cho)   S(metal)  DE(clash)   DE(tors)     intcor
     41.28     -35.28       2.00       0.00       0.00       0.00       0.00       0.00

> <Gold.PLP.Fitness>
41.2811

> <Gold.PLP.PLP>
-35.2814

> <Gold.PLP.part.hbond>
-1.0000

> <Gold.PLP.part.metal>
0.0000

> <Gold.PLP.part.buried>
-4.5652

> <Gold.PLP.part.nonpolar>
-29.9517

> <Gold.PLP.part.repulsive>
0.0000

> <Gold.PLP.ligand.clash>
0.0000

> <Gold.PLP.ligand.torsion>
0.0003

> <Gold.PLP.Chemscore.Hbond>
2.0000

> <Gold.PLP.Chemscore.CHOScore>
0.0000

> <Gold.PLP.Chemscore.Metal>
0.0000

> <Gold.Chemscore.Hbonds>
donor molecule, donor type, donor heavy atom, donor atom, acceptor molecule, acceptor atom, score
      L1  H     2    27       P1  1227  2.00

> <Gold.PLP.Chemscore.Internal.Correction>
0.0003

