#       Name:                plp ligand
#       Creating user name   fsindt
#       Creation time:       Tue Feb 28 08:09:25 2023


#       File generated by GOLD software.
#

@<TRIPOS>MOLECULE
plp ligand
    28    29     1
SMALL
USER_CHARGES


@<TRIPOS>ATOM
      1 C1           3.0003   1.2923   0.0557 NONPOLAR       1 <1>                0.0000
      2 N2           1.5619   1.3203   0.3529 DONOR          1 <1>                1.0000
      3 C3           0.8924   0.2267  -0.3639 NONPOLAR       1 <1>                0.0000
      4 C4           1.3848  -1.1109   0.1848 NONPOLAR       1 <1>                0.0000
      5 C5           0.5237  -2.2272  -0.4180 NONPOLAR       1 <1>                0.0000
      6 C6          -0.8778  -2.1313   0.1814 NONPOLAR       1 <1>                0.0000
      7 C7          -1.4115  -0.7280   0.0587 NONPOLAR       1 <1>                0.0000
      8 C8          -2.7799  -0.5415   0.2038 NONPOLAR       1 <1>                0.0000
      9 C9          -3.3298   0.7202   0.1074 NONPOLAR       1 <1>                0.0000
     10 C10         -2.5127   1.8083  -0.1354 NONPOLAR       1 <1>                0.0000
     11 C11         -1.1531   1.6248  -0.2821 NONPOLAR       1 <1>                0.0000
     12 C12         -0.5979   0.3556  -0.1865 NONPOLAR       1 <1>                0.0000
     13 H13          3.4390   0.3839   0.4685                1 <1>                0.0000
     14 H14          3.1486   1.3092  -1.0240                1 <1>                0.0000
     15 H15          3.4806   2.1630   0.5021                1 <1>                0.0000
     16 H16          1.1345   0.2911  -1.4247                1 <1>                0.0000
     17 H17          2.4279  -1.2606  -0.0942                1 <1>                0.0000
     18 H18          1.2898  -1.1197   1.2706                1 <1>                0.0000
     19 H19          0.4694  -2.1054  -1.4998                1 <1>                0.0000
     20 H20          0.9598  -3.1970  -0.1787                1 <1>                0.0000
     21 H21         -1.5420  -2.8158  -0.3462                1 <1>                0.0000
     22 H22         -0.8382  -2.4100   1.2344                1 <1>                0.0000
     23 H23         -3.4191  -1.3912   0.3932                1 <1>                0.0000
     24 H24         -4.3950   0.8572   0.2209                1 <1>                0.0000
     25 H25         -2.9370   2.7986  -0.2103                1 <1>                0.0000
     26 H26         -0.5154   2.4754  -0.4728                1 <1>                0.0000
     27 H27          1.4214   1.2075   1.3457                1 <1>                0.0000
     28 H28          1.1744   2.2036   0.0566                1 <1>                0.0000
@<TRIPOS>BOND
    1    1    2 1     
    2    1   13 1     
    3    1   14 1     
    4    1   15 1     
    5    2    3 1     
    6    2   27 1     
    7    2   28 1     
    8    3    4 1     
    9    3   12 1     
   10    3   16 1     
   11    4    5 1     
   12    4   17 1     
   13    4   18 1     
   14    5    6 1     
   15    5   19 1     
   16    5   20 1     
   17    6    7 1     
   18    6   21 1     
   19    6   22 1     
   20    7    8 ar    
   21    7   12 ar    
   22    8    9 ar    
   23    8   23 1     
   24    9   10 ar    
   25    9   24 1     
   26   10   11 ar    
   27   10   25 1     
   28   11   12 ar    
   29   11   26 1     
@<TRIPOS>SUBSTRUCTURE
      1 ****           1
@<TRIPOS>SET
DONOR_HYDROGENS      STATIC     ATOMS    <user>   **** ""
2 27 28
ATOM$RED        STATIC     ATOMS    COLORGROUP SYSTEM
2 27 28
