#       Name:                EN300-306118_i001
#       Creating user name   fsindt
#       Creation time:       Tue Feb 28 18:27:08 2023


#       File generated by GOLD software.
#

@<TRIPOS>MOLECULE
EN300-306118_i001|acide_2|mol2|6465|dock17
    23    24     1
SMALL
USER_CHARGES


@<TRIPOS>ATOM
      1 O1          -0.1025 -16.2314   9.1013 O.co2          1 <1>               -1.0000
      2 C2           0.1377 -15.1500   9.6193 C.2            1 <1>                0.0000
      3 O3           0.2453 -15.0645  10.8345 O.co2          1 <1>                0.0000
      4 C4           0.3036 -13.9496   8.7778 C.ar           1 <1>                0.0000
      5 C5           0.9945 -14.0317   7.5664 C.ar           1 <1>                0.0000
      6 C6           1.1457 -12.9052   6.7847 C.ar           1 <1>                0.0000
      7 C7           0.6154 -11.6960   7.1982 C.ar           1 <1>                0.0000
      8 C8          -0.0703 -11.6071   8.3972 C.ar           1 <1>                0.0000
      9 C9          -0.2347 -12.7263   9.1858 C.ar           1 <1>                0.0000
     10 C10         -0.9821 -12.6276  10.4908 C.3            1 <1>                0.0000
     11 N11         -2.0934 -11.6839  10.3468 N.pl3          1 <1>                0.0000
     12 C12         -1.9923 -10.3346  10.3447 C.2            1 <1>                0.0000
     13 C13         -3.2511  -9.8624  10.1881 C.2            1 <1>                0.0000
     14 N14         -4.0501 -10.9319  10.1033 N.2            1 <1>                0.0000
     15 N15         -3.3329 -11.9958  10.1953 N.2            1 <1>                0.0000
     16 H16          1.4095 -14.9748   7.2428 H              1 <1>                0.0000
     17 H17          1.6796 -12.9671   5.8480 H              1 <1>                0.0000
     18 H18          0.7375 -10.8170   6.5825 H              1 <1>                0.0000
     19 H19         -0.4813 -10.6599   8.7138 H              1 <1>                0.0000
     20 H20         -1.3716 -13.6090  10.7615 H              1 <1>                0.0000
     21 H21         -0.3064 -12.2770  11.2708 H              1 <1>                0.0000
     22 H22         -1.0890  -9.7516  10.4475 H              1 <1>                0.0000
     23 H23         -3.5514  -8.8261  10.1412 H              1 <1>                0.0000
@<TRIPOS>BOND
    1    1    2 ar    
    2    2    3 ar    
    3    2    4 1     
    4    4    5 ar    
    5    4    9 ar    
    6    5    6 ar    
    7    5   16 1     
    8    6    7 ar    
    9    6   17 1     
   10    7    8 ar    
   11    7   18 1     
   12    8    9 ar    
   13    8   19 1     
   14    9   10 1     
   15   10   11 1     
   16   10   20 1     
   17   10   21 1     
   18   11   12 1     
   19   11   15 1     
   20   12   13 2     
   21   12   22 1     
   22   13   14 1     
   23   13   23 1     
   24   14   15 2     
@<TRIPOS>SUBSTRUCTURE
      1 ****           1
@<TRIPOS>COMMENT
> <Gold.Version>
2022.2.0

> <Gold.Id.Protein>
3pbl|protein|mol2

> <Gold.Protein.RotatedTorsions>
[ 1303 1298 1297 1294 ] final -149.66 input  179.99 | X-H torsion
[ 2461 2456 2455 2452 ] final   15.26 input   30.03 | X-H torsion
[ 2515 2510 2509 2506 ] final  158.76 input  -89.99 | X-H torsion
[ 3721 3712 3711 3710 ] final  169.96 input -179.91 | X-H torsion
[ 3841 3832 3831 3830 ] final -156.92 input -179.91 | X-H torsion
[ 3767 3762 3761 3758 ] final   38.58 input  -89.99 | X-H torsion
[ 2472 2467 2466 2463 ] final   20.85 input  -89.97 | X-H torsion

> <Gold.Protein.ActiveResidues>
 VAL82   VAL86   LEU89   PHE106  VAL107  ASP110  VAL111  MET112  CYS114  THR115 
 CYS181  SER182  ILE183  PHE188  VAL189  ILE190  SER192  SER193  SER196  TRP342 
 PHE345  PHE346  HIS349  VAL350  TYR365  THR369  GLY372  TYR373 

> <Gold.Protein.RotatedAtoms>
    4.6058   -8.5659    4.3879 H   0  0  0  0  0  0  0  0  0  0  0  0  # atno 1303 bound_to 1298
    1.2831   -7.9296    7.0566 H   0  0  0  0  0  0  0  0  0  0  0  0  # atno 2461 bound_to 2456
   -4.0368   -4.8171    7.8368 H   0  0  0  0  0  0  0  0  0  0  0  0  # atno 2472 bound_to 2467
    2.1903   -8.7720    6.0232 H   0  0  0  0  0  0  0  0  0  0  0  0  # atno 2515 bound_to 2510
   -3.2944  -16.6759   13.4142 H   0  0  0  0  0  0  0  0  0  0  0  0  # atno 3721 bound_to 3712
   -4.8673  -23.1361   10.0805 H   0  0  0  0  0  0  0  0  0  0  0  0  # atno 3767 bound_to 3762
    2.7149  -19.8115    8.3482 H   0  0  0  0  0  0  0  0  0  0  0  0  # atno 3841 bound_to 3832
    4.4193  -10.1179    4.8599 LP  0  0  0  0  0  0  0  0  0  0  0  0  # atno 4297 bound_to 1298
    3.3369   -9.4378    3.8438 LP  0  0  0  0  0  0  0  0  0  0  0  0  # atno 4298 bound_to 1298
    0.4353   -9.0540    7.8839 LP  0  0  0  0  0  0  0  0  0  0  0  0  # atno 4299 bound_to 2456
    2.0194   -8.8244    8.2075 LP  0  0  0  0  0  0  0  0  0  0  0  0  # atno 4300 bound_to 2456
    2.2735   -7.4087    5.1287 LP  0  0  0  0  0  0  0  0  0  0  0  0  # atno 4301 bound_to 2510
    2.8330   -8.8182    4.5230 LP  0  0  0  0  0  0  0  0  0  0  0  0  # atno 4302 bound_to 2510
   -2.6817  -18.1568   13.5115 LP  0  0  0  0  0  0  0  0  0  0  0  0  # atno 4306 bound_to 3712
   -3.0426  -17.3169   14.8646 LP  0  0  0  0  0  0  0  0  0  0  0  0  # atno 4307 bound_to 3712
    2.7020  -21.1462    9.2396 LP  0  0  0  0  0  0  0  0  0  0  0  0  # atno 4314 bound_to 3832
    1.3913  -20.1739    9.1806 LP  0  0  0  0  0  0  0  0  0  0  0  0  # atno 4315 bound_to 3832
   -5.3111  -21.9423   11.1026 LP  0  0  0  0  0  0  0  0  0  0  0  0  # atno 4318 bound_to 3762
   -3.9491  -22.7969   11.3877 LP  0  0  0  0  0  0  0  0  0  0  0  0  # atno 4319 bound_to 3762
   -4.1732   -5.3813    9.3631 LP  0  0  0  0  0  0  0  0  0  0  0  0  # atno 4320 bound_to 2467
   -5.5068   -5.1951    8.4391 LP  0  0  0  0  0  0  0  0  0  0  0  0  # atno 4321 bound_to 2467

> <Gold.Score>
     Score     S(PLP)   S(hbond)     S(cho)   S(metal)  DE(clash)   DE(tors)     intcor
     48.74     -46.82       0.00       1.00       0.00       0.00       1.20       1.31

> <Gold.PLP.Fitness>
48.7363

> <Gold.PLP.PLP>
-46.8183

> <Gold.PLP.part.hbond>
0.0000

> <Gold.PLP.part.metal>
0.0000

> <Gold.PLP.part.buried>
-3.7025

> <Gold.PLP.part.nonpolar>
-44.3625

> <Gold.PLP.part.repulsive>
0.7031

> <Gold.PLP.ligand.clash>
0.0000

> <Gold.PLP.ligand.torsion>
1.1976

> <Gold.PLP.Chemscore.Hbond>
0.0000

> <Gold.PLP.Chemscore.CHOScore>
1.0000

> <Gold.PLP.Chemscore.Metal>
0.0000

> <Gold.Chemscore.Hbonds>
donor molecule, donor type, donor heavy atom, donor atom, acceptor molecule, acceptor atom, score
      L1  C    13    23       P1  2398  1.00

> <Gold.PLP.Chemscore.Internal.Correction>
1.3133

