#       Name:                EN300-306118_i001
#       Creating user name   fsindt
#       Creation time:       Tue Feb 28 18:27:06 2023


#       File generated by GOLD software.
#

@<TRIPOS>MOLECULE
EN300-306118_i001|acide_2|mol2|6465|dock15
    23    24     1
SMALL
USER_CHARGES


@<TRIPOS>ATOM
      1 O1           0.1971 -10.7977   7.5614 O.co2          1 <1>               -1.0000
      2 C2           0.5021 -11.3788   8.5933 C.2            1 <1>                0.0000
      3 O3           0.8829 -10.7409   9.5646 O.co2          1 <1>                0.0000
      4 C4           0.4048 -12.8490   8.6682 C.ar           1 <1>                0.0000
      5 C5           0.8656 -13.6377   7.6112 C.ar           1 <1>                0.0000
      6 C6           0.7714 -15.0117   7.6882 C.ar           1 <1>                0.0000
      7 C7           0.2218 -15.6091   8.8086 C.ar           1 <1>                0.0000
      8 C8          -0.2368 -14.8341   9.8597 C.ar           1 <1>                0.0000
      9 C9          -0.1433 -13.4596   9.7993 C.ar           1 <1>                0.0000
     10 C10         -0.6427 -12.6175  10.9451 C.3            1 <1>                0.0000
     11 N11         -1.7133 -11.7360  10.4729 N.pl3          1 <1>                0.0000
     12 C12         -1.6892 -10.3832  10.4842 C.2            1 <1>                0.0000
     13 C13         -2.8714  -9.9806   9.9626 C.2            1 <1>                0.0000
     14 N14         -3.5521 -11.0922   9.6618 N.2            1 <1>                0.0000
     15 N15         -2.8363 -12.1153   9.9712 N.2            1 <1>                0.0000
     16 H16          1.2941 -13.1727   6.7357 H              1 <1>                0.0000
     17 H17          1.1271 -15.6227   6.8717 H              1 <1>                0.0000
     18 H18          0.1499 -16.6854   8.8631 H              1 <1>                0.0000
     19 H19         -0.6649 -15.3072  10.7311 H              1 <1>                0.0000
     20 H20         -1.0267 -13.2662  11.7323 H              1 <1>                0.0000
     21 H21          0.1769 -12.0157  11.3377 H              1 <1>                0.0000
     22 H22         -0.8878  -9.7517  10.8383 H              1 <1>                0.0000
     23 H23         -3.2008  -8.9623   9.8180 H              1 <1>                0.0000
@<TRIPOS>BOND
    1    1    2 ar    
    2    2    3 ar    
    3    2    4 1     
    4    4    5 ar    
    5    4    9 ar    
    6    5    6 ar    
    7    5   16 1     
    8    6    7 ar    
    9    6   17 1     
   10    7    8 ar    
   11    7   18 1     
   12    8    9 ar    
   13    8   19 1     
   14    9   10 1     
   15   10   11 1     
   16   10   20 1     
   17   10   21 1     
   18   11   12 1     
   19   11   15 1     
   20   12   13 2     
   21   12   22 1     
   22   13   14 1     
   23   13   23 1     
   24   14   15 2     
@<TRIPOS>SUBSTRUCTURE
      1 ****           1
@<TRIPOS>COMMENT
> <Gold.Version>
2022.2.0

> <Gold.Id.Protein>
3pbl|protein|mol2

> <Gold.Protein.RotatedTorsions>
[ 1303 1298 1297 1294 ] final   32.04 input  179.99 | X-H torsion
[ 2461 2456 2455 2452 ] final -116.29 input   30.03 | X-H torsion
[ 2515 2510 2509 2506 ] final   96.19 input  -89.99 | X-H torsion
[ 3721 3712 3711 3710 ] final   49.36 input -179.91 | X-H torsion
[ 3841 3832 3831 3830 ] final -144.10 input -179.91 | X-H torsion
[ 3767 3762 3761 3758 ] final    5.37 input  -89.99 | X-H torsion
[ 2472 2467 2466 2463 ] final  173.16 input  -89.97 | X-H torsion

> <Gold.Protein.ActiveResidues>
 VAL82   VAL86   LEU89   PHE106  VAL107  ASP110  VAL111  MET112  CYS114  THR115 
 CYS181  SER182  ILE183  PHE188  VAL189  ILE190  SER192  SER193  SER196  TRP342 
 PHE345  PHE346  HIS349  VAL350  TYR365  THR369  GLY372  TYR373 

> <Gold.Protein.RotatedAtoms>
    3.6541  -10.1927    4.3578 H   0  0  0  0  0  0  0  0  0  0  0  0  # atno 1303 bound_to 1298
    0.5367   -9.1484    8.0137 H   0  0  0  0  0  0  0  0  0  0  0  0  # atno 2461 bound_to 2456
   -5.4042   -5.3602    8.9264 H   0  0  0  0  0  0  0  0  0  0  0  0  # atno 2472 bound_to 2467
    2.0343   -7.8133    5.9031 H   0  0  0  0  0  0  0  0  0  0  0  0  # atno 2515 bound_to 2510
   -2.5410  -17.9741   13.5212 H   0  0  0  0  0  0  0  0  0  0  0  0  # atno 3721 bound_to 3712
   -5.2722  -22.7823   10.1171 H   0  0  0  0  0  0  0  0  0  0  0  0  # atno 3767 bound_to 3762
    2.5514  -19.7084    8.3572 H   0  0  0  0  0  0  0  0  0  0  0  0  # atno 3841 bound_to 3832
    3.8007   -8.6450    3.8585 LP  0  0  0  0  0  0  0  0  0  0  0  0  # atno 4297 bound_to 1298
    4.9076   -9.2833    4.8753 LP  0  0  0  0  0  0  0  0  0  0  0  0  # atno 4298 bound_to 1298
    2.1017   -8.6899    8.1019 LP  0  0  0  0  0  0  0  0  0  0  0  0  # atno 4299 bound_to 2456
    1.0991   -7.9700    7.0327 LP  0  0  0  0  0  0  0  0  0  0  0  0  # atno 4300 bound_to 2456
    2.6886   -7.9308    4.4118 LP  0  0  0  0  0  0  0  0  0  0  0  0  # atno 4301 bound_to 2510
    2.5741   -9.2553    5.3601 LP  0  0  0  0  0  0  0  0  0  0  0  0  # atno 4302 bound_to 2510
   -3.0724  -17.2655   14.8604 LP  0  0  0  0  0  0  0  0  0  0  0  0  # atno 4306 bound_to 3712
   -3.5216  -16.7094   13.3922 LP  0  0  0  0  0  0  0  0  0  0  0  0  # atno 4307 bound_to 3712
    2.8570  -21.0979    9.1003 LP  0  0  0  0  0  0  0  0  0  0  0  0  # atno 4314 bound_to 3832
    1.4251  -20.3412    9.3095 LP  0  0  0  0  0  0  0  0  0  0  0  0  # atno 4315 bound_to 3832
   -4.9223  -21.9464   11.4757 LP  0  0  0  0  0  0  0  0  0  0  0  0  # atno 4318 bound_to 3762
   -3.9331  -23.1465   10.9780 LP  0  0  0  0  0  0  0  0  0  0  0  0  # atno 4319 bound_to 3762
   -4.5313   -4.8076    7.6618 LP  0  0  0  0  0  0  0  0  0  0  0  0  # atno 4320 bound_to 2467
   -3.7816   -5.2258    9.0510 LP  0  0  0  0  0  0  0  0  0  0  0  0  # atno 4321 bound_to 2467

> <Gold.Score>
     Score     S(PLP)   S(hbond)     S(cho)   S(metal)  DE(clash)   DE(tors)     intcor
     47.40     -41.69       0.94       1.00       0.00       0.00       0.72       1.31

> <Gold.PLP.Fitness>
47.4037

> <Gold.PLP.PLP>
-41.6943

> <Gold.PLP.part.hbond>
-2.0000

> <Gold.PLP.part.metal>
0.0000

> <Gold.PLP.part.buried>
-1.1440

> <Gold.PLP.part.nonpolar>
-39.2467

> <Gold.PLP.part.repulsive>
0.0752

> <Gold.PLP.ligand.clash>
0.0000

> <Gold.PLP.ligand.torsion>
0.7179

> <Gold.PLP.Chemscore.Hbond>
0.9440

> <Gold.PLP.Chemscore.CHOScore>
1.0000

> <Gold.PLP.Chemscore.Metal>
0.0000

> <Gold.Chemscore.Hbonds>
donor molecule, donor type, donor heavy atom, donor atom, acceptor molecule, acceptor atom, score
      P1  H  2456  2461       L1     1  0.94
      L1  C    13    23       P1  2398  1.00

> <Gold.PLP.Chemscore.Internal.Correction>
1.3133

