#       Name:                EN300-306118_i001
#       Creating user name   fsindt
#       Creation time:       Tue Feb 28 18:27:06 2023


#       File generated by GOLD software.
#

@<TRIPOS>MOLECULE
EN300-306118_i001|acide_2|mol2|6465|dock14
    23    24     1
SMALL
USER_CHARGES


@<TRIPOS>ATOM
      1 O1           0.4427 -14.7325  10.7035 O.co2          1 <1>               -1.0000
      2 C2           0.2503 -14.8942   9.5067 C.2            1 <1>                0.0000
      3 O3          -0.1008 -15.9875   9.0861 O.co2          1 <1>                0.0000
      4 C4           0.4361 -13.7687   8.5711 C.ar           1 <1>                0.0000
      5 C5           1.0712 -13.9736   7.3438 C.ar           1 <1>                0.0000
      6 C6           1.2414 -12.9166   6.4741 C.ar           1 <1>                0.0000
      7 C7           0.7852 -11.6556   6.8150 C.ar           1 <1>                0.0000
      8 C8           0.1551 -11.4451   8.0291 C.ar           1 <1>                0.0000
      9 C9          -0.0276 -12.4937   8.9058 C.ar           1 <1>                0.0000
     10 C10         -0.7145 -12.2625  10.2272 C.3            1 <1>                0.0000
     11 N11         -1.8406 -11.3447  10.0382 N.pl3          1 <1>                0.0000
     12 C12         -3.1396 -11.6193  10.2990 C.2            1 <1>                0.0000
     13 C13         -3.8324 -10.5002   9.9835 C.2            1 <1>                0.0000
     14 N14         -2.9351  -9.6073   9.5507 N.2            1 <1>                0.0000
     15 N15         -1.7637 -10.1366   9.6005 N.2            1 <1>                0.0000
     16 H16          1.4284 -14.9573   7.0769 H              1 <1>                0.0000
     17 H17          1.7323 -13.0735   5.5250 H              1 <1>                0.0000
     18 H18          0.9219 -10.8314   6.1303 H              1 <1>                0.0000
     19 H19         -0.1982 -10.4580   8.2887 H              1 <1>                0.0000
     20 H20         -1.0811 -13.2120  10.6171 H              1 <1>                0.0000
     21 H21         -0.0068 -11.8286  10.9335 H              1 <1>                0.0000
     22 H22         -3.5426 -12.5453  10.6817 H              1 <1>                0.0000
     23 H23         -4.8996 -10.3563  10.0648 H              1 <1>                0.0000
@<TRIPOS>BOND
    1    1    2 ar    
    2    2    3 ar    
    3    2    4 1     
    4    4    5 ar    
    5    4    9 ar    
    6    5    6 ar    
    7    5   16 1     
    8    6    7 ar    
    9    6   17 1     
   10    7    8 ar    
   11    7   18 1     
   12    8    9 ar    
   13    8   19 1     
   14    9   10 1     
   15   10   11 1     
   16   10   20 1     
   17   10   21 1     
   18   11   12 1     
   19   11   15 1     
   20   12   13 2     
   21   12   22 1     
   22   13   14 1     
   23   13   23 1     
   24   14   15 2     
@<TRIPOS>SUBSTRUCTURE
      1 ****           1
@<TRIPOS>COMMENT
> <Gold.Version>
2022.2.0

> <Gold.Id.Protein>
3pbl|protein|mol2

> <Gold.Protein.RotatedTorsions>
[ 1303 1298 1297 1294 ] final   97.35 input  179.99 | X-H torsion
[ 2461 2456 2455 2452 ] final -171.03 input   30.03 | X-H torsion
[ 2515 2510 2509 2506 ] final -107.76 input  -89.99 | X-H torsion
[ 3721 3712 3711 3710 ] final  -83.59 input -179.91 | X-H torsion
[ 3841 3832 3831 3830 ] final -148.30 input -179.91 | X-H torsion
[ 3767 3762 3761 3758 ] final  149.51 input  -89.99 | X-H torsion
[ 2472 2467 2466 2463 ] final   48.76 input  -89.97 | X-H torsion

> <Gold.Protein.ActiveResidues>
 VAL82   VAL86   LEU89   PHE106  VAL107  ASP110  VAL111  MET112  CYS114  THR115 
 CYS181  SER182  ILE183  PHE188  VAL189  ILE190  SER192  SER193  SER196  TRP342 
 PHE345  PHE346  HIS349  VAL350  TYR365  THR369  GLY372  TYR373 

> <Gold.Protein.RotatedAtoms>
    4.5062  -10.0506    4.8948 H   0  0  0  0  0  0  0  0  0  0  0  0  # atno 1303 bound_to 1298
    1.3093   -9.2572    8.3921 H   0  0  0  0  0  0  0  0  0  0  0  0  # atno 2461 bound_to 2456
   -4.4595   -4.8033    7.6696 H   0  0  0  0  0  0  0  0  0  0  0  0  # atno 2472 bound_to 2467
    2.7693   -9.1183    4.8277 H   0  0  0  0  0  0  0  0  0  0  0  0  # atno 2515 bound_to 2510
   -2.9776  -17.0264   14.7189 H   0  0  0  0  0  0  0  0  0  0  0  0  # atno 3721 bound_to 3712
   -3.9177  -22.9030   11.2878 H   0  0  0  0  0  0  0  0  0  0  0  0  # atno 3767 bound_to 3762
    2.6065  -19.7393    8.3508 H   0  0  0  0  0  0  0  0  0  0  0  0  # atno 3841 bound_to 3832
    3.3296   -9.5465    3.8809 LP  0  0  0  0  0  0  0  0  0  0  0  0  # atno 4297 bound_to 1298
    4.5262   -8.5240    4.3157 LP  0  0  0  0  0  0  0  0  0  0  0  0  # atno 4298 bound_to 1298
    2.0050   -8.0976    7.4764 LP  0  0  0  0  0  0  0  0  0  0  0  0  # atno 4299 bound_to 2456
    0.4235   -8.4535    7.2799 LP  0  0  0  0  0  0  0  0  0  0  0  0  # atno 4300 bound_to 2456
    2.0713   -8.3627    6.0956 LP  0  0  0  0  0  0  0  0  0  0  0  0  # atno 4301 bound_to 2510
    2.4559   -7.5177    4.7522 LP  0  0  0  0  0  0  0  0  0  0  0  0  # atno 4302 bound_to 2510
   -3.4487  -16.8676   13.1922 LP  0  0  0  0  0  0  0  0  0  0  0  0  # atno 4306 bound_to 3712
   -2.6413  -18.2014   13.6776 LP  0  0  0  0  0  0  0  0  0  0  0  0  # atno 4307 bound_to 3712
    2.8091  -21.1177    9.1477 LP  0  0  0  0  0  0  0  0  0  0  0  0  # atno 4314 bound_to 3832
    1.4093  -20.2857    9.2695 LP  0  0  0  0  0  0  0  0  0  0  0  0  # atno 4315 bound_to 3832
   -4.9895  -23.0523   10.0648 LP  0  0  0  0  0  0  0  0  0  0  0  0  # atno 4318 bound_to 3762
   -5.2198  -21.9199   11.2186 LP  0  0  0  0  0  0  0  0  0  0  0  0  # atno 4319 bound_to 3762
   -3.8224   -5.2499    9.1053 LP  0  0  0  0  0  0  0  0  0  0  0  0  # atno 4320 bound_to 2467
   -5.4350   -5.3403    8.8640 LP  0  0  0  0  0  0  0  0  0  0  0  0  # atno 4321 bound_to 2467

> <Gold.Score>
     Score     S(PLP)   S(hbond)     S(cho)   S(metal)  DE(clash)   DE(tors)     intcor
     49.20     -49.80       0.00       0.00       0.00       0.00       0.96       1.31

> <Gold.PLP.Fitness>
49.1963

> <Gold.PLP.PLP>
-49.8048

> <Gold.PLP.part.hbond>
0.0000

> <Gold.PLP.part.metal>
0.0000

> <Gold.PLP.part.buried>
-5.3848

> <Gold.PLP.part.nonpolar>
-45.7780

> <Gold.PLP.part.repulsive>
0.3389

> <Gold.PLP.ligand.clash>
0.0000

> <Gold.PLP.ligand.torsion>
0.9609

> <Gold.PLP.Chemscore.Hbond>
0.0000

> <Gold.PLP.Chemscore.CHOScore>
0.0000

> <Gold.PLP.Chemscore.Metal>
0.0000

> <Gold.PLP.Chemscore.Internal.Correction>
1.3133

