#       Name:                EN300-306118_i001
#       Creating user name   fsindt
#       Creation time:       Tue Feb 28 18:27:07 2023


#       File generated by GOLD software.
#

@<TRIPOS>MOLECULE
EN300-306118_i001|acide_2|mol2|6465|dock16
    23    24     1
SMALL
USER_CHARGES


@<TRIPOS>ATOM
      1 O1           1.2015 -14.0407   9.0621 O.co2          1 <1>               -1.0000
      2 C2           0.3069 -14.6803   8.5272 C.2            1 <1>                0.0000
      3 O3          -0.2466 -14.2406   7.5293 O.co2          1 <1>                0.0000
      4 C4          -0.1004 -15.9851   9.0823 C.ar           1 <1>                0.0000
      5 C5          -0.3686 -17.0581   8.2289 C.ar           1 <1>                0.0000
      6 C6          -0.7491 -18.2751   8.7551 C.ar           1 <1>                0.0000
      7 C7          -0.8656 -18.4344  10.1245 C.ar           1 <1>                0.0000
      8 C8          -0.6015 -17.3759  10.9761 C.ar           1 <1>                0.0000
      9 C9          -0.2142 -16.1552  10.4646 C.ar           1 <1>                0.0000
     10 C10          0.0735 -15.0039  11.3936 C.3            1 <1>                0.0000
     11 N11          0.6563 -15.5139  12.6373 N.pl3          1 <1>                0.0000
     12 C12          1.7996 -16.2299  12.7419 C.2            1 <1>                0.0000
     13 C13          1.9621 -16.4904  14.0600 C.2            1 <1>                0.0000
     14 N14          0.9238 -15.9285  14.6892 N.2            1 <1>                0.0000
     15 N15          0.1715 -15.3531  13.8188 N.2            1 <1>                0.0000
     16 H16         -0.2787 -16.9348   7.1597 H              1 <1>                0.0000
     17 H17         -0.9568 -19.1055   8.0965 H              1 <1>                0.0000
     18 H18         -1.1646 -19.3895  10.5309 H              1 <1>                0.0000
     19 H19         -0.6949 -17.5074  12.0440 H              1 <1>                0.0000
     20 H20          0.7754 -14.3194  10.9174 H              1 <1>                0.0000
     21 H21         -0.8539 -14.4765  11.6165 H              1 <1>                0.0000
     22 H22          2.4513 -16.5327  11.9357 H              1 <1>                0.0000
     23 H23          2.7707 -17.0435  14.5146 H              1 <1>                0.0000
@<TRIPOS>BOND
    1    1    2 ar    
    2    2    3 ar    
    3    2    4 1     
    4    4    5 ar    
    5    4    9 ar    
    6    5    6 ar    
    7    5   16 1     
    8    6    7 ar    
    9    6   17 1     
   10    7    8 ar    
   11    7   18 1     
   12    8    9 ar    
   13    8   19 1     
   14    9   10 1     
   15   10   11 1     
   16   10   20 1     
   17   10   21 1     
   18   11   12 1     
   19   11   15 1     
   20   12   13 2     
   21   12   22 1     
   22   13   14 1     
   23   13   23 1     
   24   14   15 2     
@<TRIPOS>SUBSTRUCTURE
      1 ****           1
@<TRIPOS>COMMENT
> <Gold.Version>
2022.2.0

> <Gold.Id.Protein>
3pbl|protein|mol2

> <Gold.Protein.RotatedTorsions>
[ 1303 1298 1297 1294 ] final    6.92 input  179.99 | X-H torsion
[ 2461 2456 2455 2452 ] final  148.28 input   30.03 | X-H torsion
[ 2515 2510 2509 2506 ] final -125.31 input  -89.99 | X-H torsion
[ 3721 3712 3711 3710 ] final  -60.89 input -179.91 | X-H torsion
[ 3841 3832 3831 3830 ] final  -96.94 input -179.91 | X-H torsion
[ 3767 3762 3761 3758 ] final  156.86 input  -89.99 | X-H torsion
[ 2472 2467 2466 2463 ] final   30.13 input  -89.97 | X-H torsion

> <Gold.Protein.ActiveResidues>
 VAL82   VAL86   LEU89   PHE106  VAL107  ASP110  VAL111  MET112  CYS114  THR115 
 CYS181  SER182  ILE183  PHE188  VAL189  ILE190  SER192  SER193  SER196  TRP342 
 PHE345  PHE346  HIS349  VAL350  TYR365  THR369  GLY372  TYR373 

> <Gold.Protein.RotatedAtoms>
    3.4269   -9.9589    4.1092 H   0  0  0  0  0  0  0  0  0  0  0  0  # atno 1303 bound_to 1298
    1.8894   -8.9650    8.3026 H   0  0  0  0  0  0  0  0  0  0  0  0  # atno 2461 bound_to 2456
   -4.1680   -4.8039    7.7601 H   0  0  0  0  0  0  0  0  0  0  0  0  # atno 2472 bound_to 2467
    2.6867   -9.2288    5.0800 H   0  0  0  0  0  0  0  0  0  0  0  0  # atno 2515 bound_to 2510
   -2.8066  -17.3193   14.7544 H   0  0  0  0  0  0  0  0  0  0  0  0  # atno 3721 bound_to 3712
   -3.9412  -22.8170   11.3695 H   0  0  0  0  0  0  0  0  0  0  0  0  # atno 3767 bound_to 3762
    1.9295  -19.5935    8.6394 H   0  0  0  0  0  0  0  0  0  0  0  0  # atno 3841 bound_to 3832
    4.1382   -8.4910    4.0332 LP  0  0  0  0  0  0  0  0  0  0  0  0  # atno 4297 bound_to 1298
    4.7973   -9.6713    4.9493 LP  0  0  0  0  0  0  0  0  0  0  0  0  # atno 4298 bound_to 1298
    1.4882   -7.9172    7.1158 LP  0  0  0  0  0  0  0  0  0  0  0  0  # atno 4299 bound_to 2456
    0.3604   -8.9260    7.7299 LP  0  0  0  0  0  0  0  0  0  0  0  0  # atno 4300 bound_to 2456
    2.0336   -8.0826    6.0420 LP  0  0  0  0  0  0  0  0  0  0  0  0  # atno 4301 bound_to 2510
    2.5763   -7.6873    4.5534 LP  0  0  0  0  0  0  0  0  0  0  0  0  # atno 4302 bound_to 2510
   -3.5428  -16.6572   13.4905 LP  0  0  0  0  0  0  0  0  0  0  0  0  # atno 4306 bound_to 3712
   -2.7447  -18.0737   13.3384 LP  0  0  0  0  0  0  0  0  0  0  0  0  # atno 4307 bound_to 3712
    3.1283  -20.6559    8.5366 LP  0  0  0  0  0  0  0  0  0  0  0  0  # atno 4314 bound_to 3832
    1.8722  -20.9159    9.5472 LP  0  0  0  0  0  0  0  0  0  0  0  0  # atno 4315 bound_to 3832
   -4.8911  -23.1214   10.0765 LP  0  0  0  0  0  0  0  0  0  0  0  0  # atno 4318 bound_to 3762
   -5.2948  -21.9366   11.1253 LP  0  0  0  0  0  0  0  0  0  0  0  0  # atno 4319 bound_to 3762
   -4.0416   -5.3428    9.2963 LP  0  0  0  0  0  0  0  0  0  0  0  0  # atno 4320 bound_to 2467
   -5.5072   -5.2468    8.5826 LP  0  0  0  0  0  0  0  0  0  0  0  0  # atno 4321 bound_to 2467

> <Gold.Score>
     Score     S(PLP)   S(hbond)     S(cho)   S(metal)  DE(clash)   DE(tors)     intcor
     44.33     -39.07       1.00       1.00       0.00       0.00       1.02       1.31

> <Gold.PLP.Fitness>
44.3333

> <Gold.PLP.PLP>
-39.0691

> <Gold.PLP.part.hbond>
-1.4245

> <Gold.PLP.part.metal>
0.0000

> <Gold.PLP.part.buried>
-5.2692

> <Gold.PLP.part.nonpolar>
-33.4317

> <Gold.PLP.part.repulsive>
0.2247

> <Gold.PLP.ligand.clash>
0.0000

> <Gold.PLP.ligand.torsion>
1.0245

> <Gold.PLP.Chemscore.Hbond>
1.0000

> <Gold.PLP.Chemscore.CHOScore>
1.0000

> <Gold.PLP.Chemscore.Metal>
0.0000

> <Gold.Chemscore.Hbonds>
donor molecule, donor type, donor heavy atom, donor atom, acceptor molecule, acceptor atom, score
      P1  H  2305  2313       L1    14  1.00
      L1  C    12    22       P1  1227  1.00

> <Gold.PLP.Chemscore.Internal.Correction>
1.3133

