#       Name:                EN300-306118_i001
#       Creating user name   fsindt
#       Creation time:       Tue Feb 28 18:26:58 2023


#       File generated by GOLD software.
#

@<TRIPOS>MOLECULE
EN300-306118_i001|acide_2|mol2|6465|dock2
    23    24     1
SMALL
USER_CHARGES


@<TRIPOS>ATOM
      1 O1          -0.3996 -15.0968  11.7939 O.co2          1 <1>               -1.0000
      2 C2           0.6326 -14.8679  11.1794 C.2            1 <1>                0.0000
      3 O3           1.7065 -15.2466  11.6254 O.co2          1 <1>                0.0000
      4 C4           0.5817 -14.1401   9.8971 C.ar           1 <1>                0.0000
      5 C5           1.3893 -14.5408   8.8300 C.ar           1 <1>                0.0000
      6 C6           1.3364 -13.8555   7.6340 C.ar           1 <1>                0.0000
      7 C7           0.4864 -12.7733   7.4900 C.ar           1 <1>                0.0000
      8 C8          -0.3166 -12.3706   8.5429 C.ar           1 <1>                0.0000
      9 C9          -0.2789 -13.0501   9.7423 C.ar           1 <1>                0.0000
     10 C10         -1.1546 -12.6104  10.8873 C.3            1 <1>                0.0000
     11 N11         -2.0673 -11.5601  10.4288 N.pl3          1 <1>                0.0000
     12 C12         -1.7295 -10.2775  10.1613 C.2            1 <1>                0.0000
     13 C13         -2.8693  -9.6610   9.7705 C.2            1 <1>                0.0000
     14 N14         -3.8360 -10.5845   9.8175 N.2            1 <1>                0.0000
     15 N15         -3.3272 -11.7003  10.2060 N.2            1 <1>                0.0000
     16 H16          2.0538 -15.3849   8.9414 H              1 <1>                0.0000
     17 H17          1.9603 -14.1641   6.8083 H              1 <1>                0.0000
     18 H18          0.4497 -12.2400   6.5515 H              1 <1>                0.0000
     19 H19         -0.9775 -11.5248   8.4234 H              1 <1>                0.0000
     20 H20         -1.7320 -13.4605  11.2504 H              1 <1>                0.0000
     21 H21         -0.5313 -12.2235  11.6935 H              1 <1>                0.0000
     22 H22         -0.7479  -9.8347  10.2433 H              1 <1>                0.0000
     23 H23         -2.9773  -8.6269   9.4786 H              1 <1>                0.0000
@<TRIPOS>BOND
    1    1    2 ar    
    2    2    3 ar    
    3    2    4 1     
    4    4    5 ar    
    5    4    9 ar    
    6    5    6 ar    
    7    5   16 1     
    8    6    7 ar    
    9    6   17 1     
   10    7    8 ar    
   11    7   18 1     
   12    8    9 ar    
   13    8   19 1     
   14    9   10 1     
   15   10   11 1     
   16   10   20 1     
   17   10   21 1     
   18   11   12 1     
   19   11   15 1     
   20   12   13 2     
   21   12   22 1     
   22   13   14 1     
   23   13   23 1     
   24   14   15 2     
@<TRIPOS>SUBSTRUCTURE
      1 ****           1
@<TRIPOS>COMMENT
> <Gold.Version>
2022.2.0

> <Gold.Id.Protein>
3pbl|protein|mol2

> <Gold.Protein.RotatedTorsions>
[ 1303 1298 1297 1294 ] final   81.71 input  179.99 | X-H torsion
[ 2461 2456 2455 2452 ] final -116.91 input   30.03 | X-H torsion
[ 2515 2510 2509 2506 ] final  107.90 input  -89.99 | X-H torsion
[ 3721 3712 3711 3710 ] final  -49.53 input -179.91 | X-H torsion
[ 3841 3832 3831 3830 ] final   91.30 input -179.91 | X-H torsion
[ 3767 3762 3761 3758 ] final   56.15 input  -89.99 | X-H torsion
[ 2472 2467 2466 2463 ] final   96.29 input  -89.97 | X-H torsion

> <Gold.Protein.ActiveResidues>
 VAL82   VAL86   LEU89   PHE106  VAL107  ASP110  VAL111  MET112  CYS114  THR115 
 CYS181  SER182  ILE183  PHE188  VAL189  ILE190  SER192  SER193  SER196  TRP342 
 PHE345  PHE346  HIS349  VAL350  TYR365  THR369  GLY372  TYR373 

> <Gold.Protein.RotatedAtoms>
    4.3057  -10.1847    4.8075 H   0  0  0  0  0  0  0  0  0  0  0  0  # atno 1303 bound_to 1298
    0.5429   -9.1528    8.0202 H   0  0  0  0  0  0  0  0  0  0  0  0  # atno 2461 bound_to 2456
   -5.1828   -4.9485    7.8516 H   0  0  0  0  0  0  0  0  0  0  0  0  # atno 2472 bound_to 2467
    2.0291   -7.9792    6.0000 H   0  0  0  0  0  0  0  0  0  0  0  0  # atno 2515 bound_to 2510
   -2.7251  -17.4666   14.7216 H   0  0  0  0  0  0  0  0  0  0  0  0  # atno 3721 bound_to 3712
   -4.6225  -23.2612   10.1664 H   0  0  0  0  0  0  0  0  0  0  0  0  # atno 3767 bound_to 3762
    2.8561  -20.9165    9.2502 H   0  0  0  0  0  0  0  0  0  0  0  0  # atno 3841 bound_to 3832
    3.3620   -9.3024    3.8087 LP  0  0  0  0  0  0  0  0  0  0  0  0  # atno 4297 bound_to 1298
    4.6945   -8.6339    4.4752 LP  0  0  0  0  0  0  0  0  0  0  0  0  # atno 4298 bound_to 1298
    2.1052   -8.6826    8.0958 LP  0  0  0  0  0  0  0  0  0  0  0  0  # atno 4299 bound_to 2456
    1.0895   -7.9728    7.0322 LP  0  0  0  0  0  0  0  0  0  0  0  0  # atno 4300 bound_to 2456
    2.6199   -7.7702    4.4924 LP  0  0  0  0  0  0  0  0  0  0  0  0  # atno 4301 bound_to 2510
    2.6478   -9.2499    5.1825 LP  0  0  0  0  0  0  0  0  0  0  0  0  # atno 4302 bound_to 2510
   -3.5638  -16.5929   13.6676 LP  0  0  0  0  0  0  0  0  0  0  0  0  # atno 4306 bound_to 3712
   -2.8177  -17.9679   13.1991 LP  0  0  0  0  0  0  0  0  0  0  0  0  # atno 4307 bound_to 3712
    1.3999  -20.2416    9.2359 LP  0  0  0  0  0  0  0  0  0  0  0  0  # atno 4314 bound_to 3832
    2.5302  -19.8019    8.1423 LP  0  0  0  0  0  0  0  0  0  0  0  0  # atno 4315 bound_to 3832
   -5.4430  -22.0333   10.8634 LP  0  0  0  0  0  0  0  0  0  0  0  0  # atno 4318 bound_to 3762
   -4.0618  -22.5808   11.5410 LP  0  0  0  0  0  0  0  0  0  0  0  0  # atno 4319 bound_to 3762
   -3.6507   -4.9823    8.4152 LP  0  0  0  0  0  0  0  0  0  0  0  0  # atno 4320 bound_to 2467
   -4.8835   -5.4628    9.3722 LP  0  0  0  0  0  0  0  0  0  0  0  0  # atno 4321 bound_to 2467

> <Gold.Score>
     Score     S(PLP)   S(hbond)     S(cho)   S(metal)  DE(clash)   DE(tors)     intcor
     48.73     -46.13       0.00       1.00       0.00       0.02       0.85       1.31

> <Gold.PLP.Fitness>
48.7292

> <Gold.PLP.PLP>
-46.1287

> <Gold.PLP.part.hbond>
0.0000

> <Gold.PLP.part.metal>
0.0000

> <Gold.PLP.part.buried>
-3.6979

> <Gold.PLP.part.nonpolar>
-43.4683

> <Gold.PLP.part.repulsive>
0.2858

> <Gold.PLP.ligand.clash>
0.0188

> <Gold.PLP.ligand.torsion>
0.8470

> <Gold.PLP.Chemscore.Hbond>
0.0000

> <Gold.PLP.Chemscore.CHOScore>
1.0000

> <Gold.PLP.Chemscore.Metal>
0.0000

> <Gold.Chemscore.Hbonds>
donor molecule, donor type, donor heavy atom, donor atom, acceptor molecule, acceptor atom, score
      L1  C    13    23       P1  2398  1.00

> <Gold.PLP.Chemscore.Internal.Correction>
1.3133

