#       Name:                EN300-306118_i001
#       Creating user name   fsindt
#       Creation time:       Tue Feb 28 18:27:09 2023


#       File generated by GOLD software.
#

@<TRIPOS>MOLECULE
EN300-306118_i001|acide_2|mol2|6465|dock18
    23    24     1
SMALL
USER_CHARGES


@<TRIPOS>ATOM
      1 O1           1.5016 -10.6223   7.1443 O.co2          1 <1>               -1.0000
      2 C2           1.0648 -11.7169   6.8177 C.2            1 <1>                0.0000
      3 O3           0.8048 -11.9462   5.6449 O.co2          1 <1>                0.0000
      4 C4           0.8571 -12.7625   7.8375 C.ar           1 <1>                0.0000
      5 C5           1.1871 -14.0909   7.5582 C.ar           1 <1>                0.0000
      6 C6           0.9902 -15.0632   8.5166 C.ar           1 <1>                0.0000
      7 C7           0.4667 -14.7255   9.7520 C.ar           1 <1>                0.0000
      8 C8           0.1374 -13.4115  10.0359 C.ar           1 <1>                0.0000
      9 C9           0.3347 -12.4279   9.0897 C.ar           1 <1>                0.0000
     10 C10         -0.0239 -10.9976   9.4009 C.3            1 <1>                0.0000
     11 N11         -1.4774 -10.8777   9.5393 N.pl3          1 <1>                0.0000
     12 C12         -2.1565  -9.7399   9.8137 C.2            1 <1>                0.0000
     13 C13         -3.4655 -10.0818   9.8512 C.2            1 <1>                0.0000
     14 N14         -3.5226 -11.3948   9.6014 N.2            1 <1>                0.0000
     15 N15         -2.3284 -11.8355   9.4156 N.2            1 <1>                0.0000
     16 H16          1.5952 -14.3559   6.5940 H              1 <1>                0.0000
     17 H17          1.2448 -16.0906   8.3020 H              1 <1>                0.0000
     18 H18          0.3140 -15.4911  10.4984 H              1 <1>                0.0000
     19 H19         -0.2710 -13.1552  11.0023 H              1 <1>                0.0000
     20 H20          0.4558 -10.6972  10.3323 H              1 <1>                0.0000
     21 H21          0.3184 -10.3529   8.5914 H              1 <1>                0.0000
     22 H22         -1.7381  -8.7568   9.9712 H              1 <1>                0.0000
     23 H23         -4.2999  -9.4242  10.0451 H              1 <1>                0.0000
@<TRIPOS>BOND
    1    1    2 ar    
    2    2    3 ar    
    3    2    4 1     
    4    4    5 ar    
    5    4    9 ar    
    6    5    6 ar    
    7    5   16 1     
    8    6    7 ar    
    9    6   17 1     
   10    7    8 ar    
   11    7   18 1     
   12    8    9 ar    
   13    8   19 1     
   14    9   10 1     
   15   10   11 1     
   16   10   20 1     
   17   10   21 1     
   18   11   12 1     
   19   11   15 1     
   20   12   13 2     
   21   12   22 1     
   22   13   14 1     
   23   13   23 1     
   24   14   15 2     
@<TRIPOS>SUBSTRUCTURE
      1 ****           1
@<TRIPOS>COMMENT
> <Gold.Version>
2022.2.0

> <Gold.Id.Protein>
3pbl|protein|mol2

> <Gold.Protein.RotatedTorsions>
[ 1303 1298 1297 1294 ] final  142.49 input  179.99 | X-H torsion
[ 2461 2456 2455 2452 ] final -159.19 input   30.03 | X-H torsion
[ 2515 2510 2509 2506 ] final  172.83 input  -89.99 | X-H torsion
[ 3721 3712 3711 3710 ] final  -19.10 input -179.91 | X-H torsion
[ 3841 3832 3831 3830 ] final   24.40 input -179.91 | X-H torsion
[ 3767 3762 3761 3758 ] final -156.03 input  -89.99 | X-H torsion
[ 2472 2467 2466 2463 ] final  -10.78 input  -89.97 | X-H torsion

> <Gold.Protein.ActiveResidues>
 VAL82   VAL86   LEU89   PHE106  VAL107  ASP110  VAL111  MET112  CYS114  THR115 
 CYS181  SER182  ILE183  PHE188  VAL189  ILE190  SER192  SER193  SER196  TRP342 
 PHE345  PHE346  HIS349  VAL350  TYR365  THR369  GLY372  TYR373 

> <Gold.Protein.RotatedAtoms>
    4.8822   -9.4327    4.9163 H   0  0  0  0  0  0  0  0  0  0  0  0  # atno 1303 bound_to 1298
    1.1204   -9.2855    8.3544 H   0  0  0  0  0  0  0  0  0  0  0  0  # atno 2461 bound_to 2456
   -3.7125   -4.9202    8.2220 H   0  0  0  0  0  0  0  0  0  0  0  0  # atno 2472 bound_to 2467
    2.2761   -8.9567    5.9142 H   0  0  0  0  0  0  0  0  0  0  0  0  # atno 2515 bound_to 2510
   -2.5493  -17.8106   14.4818 H   0  0  0  0  0  0  0  0  0  0  0  0  # atno 3721 bound_to 3712
   -4.3572  -22.2543   11.6494 H   0  0  0  0  0  0  0  0  0  0  0  0  # atno 3767 bound_to 3762
    1.9958  -20.7371    9.6223 H   0  0  0  0  0  0  0  0  0  0  0  0  # atno 3841 bound_to 3832
    3.5546  -10.1206    4.2600 LP  0  0  0  0  0  0  0  0  0  0  0  0  # atno 4297 bound_to 1298
    3.9251   -8.5680    3.9150 LP  0  0  0  0  0  0  0  0  0  0  0  0  # atno 4298 bound_to 1298
    2.0938   -8.2035    7.6132 LP  0  0  0  0  0  0  0  0  0  0  0  0  # atno 4299 bound_to 2456
    0.5234   -8.3193    7.1807 LP  0  0  0  0  0  0  0  0  0  0  0  0  # atno 4300 bound_to 2456
    2.1880   -7.4300    5.3423 LP  0  0  0  0  0  0  0  0  0  0  0  0  # atno 4301 bound_to 2510
    2.8327   -8.6122    4.4185 LP  0  0  0  0  0  0  0  0  0  0  0  0  # atno 4302 bound_to 2510
   -3.5283  -16.5772   14.1686 LP  0  0  0  0  0  0  0  0  0  0  0  0  # atno 4306 bound_to 3712
   -3.0561  -17.5865   12.9749 LP  0  0  0  0  0  0  0  0  0  0  0  0  # atno 4307 bound_to 3712
    1.7988  -19.6493    8.4586 LP  0  0  0  0  0  0  0  0  0  0  0  0  # atno 4314 bound_to 3832
    3.1251  -20.6015    8.4899 LP  0  0  0  0  0  0  0  0  0  0  0  0  # atno 4315 bound_to 3832
   -4.2606  -23.3355   10.4294 LP  0  0  0  0  0  0  0  0  0  0  0  0  # atno 4318 bound_to 3762
   -5.5094  -22.2851   10.4925 LP  0  0  0  0  0  0  0  0  0  0  0  0  # atno 4319 bound_to 3762
   -4.6777   -5.4588    9.4241 LP  0  0  0  0  0  0  0  0  0  0  0  0  # atno 4320 bound_to 2467
   -5.3266   -5.0144    7.9930 LP  0  0  0  0  0  0  0  0  0  0  0  0  # atno 4321 bound_to 2467

> <Gold.Score>
     Score     S(PLP)   S(hbond)     S(cho)   S(metal)  DE(clash)   DE(tors)     intcor
     49.54     -43.83       0.92       1.00       0.00       0.01       0.68       1.31

> <Gold.PLP.Fitness>
49.5351

> <Gold.PLP.PLP>
-43.8328

> <Gold.PLP.part.hbond>
-1.3671

> <Gold.PLP.part.metal>
0.0000

> <Gold.PLP.part.buried>
0.2348

> <Gold.PLP.part.nonpolar>
-44.0615

> <Gold.PLP.part.repulsive>
0.1012

> <Gold.PLP.ligand.clash>
0.0142

> <Gold.PLP.ligand.torsion>
0.6827

> <Gold.PLP.Chemscore.Hbond>
0.9229

> <Gold.PLP.Chemscore.CHOScore>
1.0000

> <Gold.PLP.Chemscore.Metal>
0.0000

> <Gold.Chemscore.Hbonds>
donor molecule, donor type, donor heavy atom, donor atom, acceptor molecule, acceptor atom, score
      P1  H  2456  2461       L1     1  0.26
      P1  H  2510  2515       L1     1  0.67
      L1  C    12    22       P1  2398  1.00

> <Gold.PLP.Chemscore.Internal.Correction>
1.3133

