#       Name:                EN300-306118_i001
#       Creating user name   fsindt
#       Creation time:       Tue Feb 28 18:27:01 2023


#       File generated by GOLD software.
#

@<TRIPOS>MOLECULE
EN300-306118_i001|acide_2|mol2|6465|dock7
    23    24     1
SMALL
USER_CHARGES


@<TRIPOS>ATOM
      1 O1          -0.6971 -14.7557  11.9521 O.co2          1 <1>               -1.0000
      2 C2           0.3107 -14.7692  11.2595 C.2            1 <1>                0.0000
      3 O3           1.3333 -15.2930  11.6783 O.co2          1 <1>                0.0000
      4 C4           0.2910 -14.1590   9.9165 C.ar           1 <1>                0.0000
      5 C5           0.9400 -14.7869   8.8506 C.ar           1 <1>                0.0000
      6 C6           0.9175 -14.2104   7.5976 C.ar           1 <1>                0.0000
      7 C7           0.2545 -13.0130   7.3953 C.ar           1 <1>                0.0000
      8 C8          -0.3907 -12.3851   8.4465 C.ar           1 <1>                0.0000
      9 C9          -0.3818 -12.9530   9.7032 C.ar           1 <1>                0.0000
     10 C10         -1.0854 -12.2680  10.8464 C.3            1 <1>                0.0000
     11 N11         -1.9001 -11.1660  10.3286 N.pl3          1 <1>                0.0000
     12 C12         -3.2480 -11.0736  10.4030 C.2            1 <1>                0.0000
     13 C13         -3.5794  -9.9055   9.8051 C.2            1 <1>                0.0000
     14 N14         -2.4331  -9.3478   9.3992 N.2            1 <1>                0.0000
     15 N15         -1.4563 -10.1169   9.7294 N.2            1 <1>                0.0000
     16 H16          1.4585 -15.7213   9.0074 H              1 <1>                0.0000
     17 H17          1.4188 -14.6947   6.7727 H              1 <1>                0.0000
     18 H18          0.2408 -12.5658   6.4122 H              1 <1>                0.0000
     19 H19         -0.9059 -11.4505   8.2813 H              1 <1>                0.0000
     20 H20         -1.7270 -12.9843  11.3596 H              1 <1>                0.0000
     21 H21         -0.3465 -11.8763  11.5454 H              1 <1>                0.0000
     22 H22         -3.9235 -11.7882  10.8496 H              1 <1>                0.0000
     23 H23         -4.5737  -9.5029   9.6797 H              1 <1>                0.0000
@<TRIPOS>BOND
    1    1    2 ar    
    2    2    3 ar    
    3    2    4 1     
    4    4    5 ar    
    5    4    9 ar    
    6    5    6 ar    
    7    5   16 1     
    8    6    7 ar    
    9    6   17 1     
   10    7    8 ar    
   11    7   18 1     
   12    8    9 ar    
   13    8   19 1     
   14    9   10 1     
   15   10   11 1     
   16   10   20 1     
   17   10   21 1     
   18   11   12 1     
   19   11   15 1     
   20   12   13 2     
   21   12   22 1     
   22   13   14 1     
   23   13   23 1     
   24   14   15 2     
@<TRIPOS>SUBSTRUCTURE
      1 ****           1
@<TRIPOS>COMMENT
> <Gold.Version>
2022.2.0

> <Gold.Id.Protein>
3pbl|protein|mol2

> <Gold.Protein.RotatedTorsions>
[ 1303 1298 1297 1294 ] final -133.58 input  179.99 | X-H torsion
[ 2461 2456 2455 2452 ] final   18.74 input   30.03 | X-H torsion
[ 2515 2510 2509 2506 ] final  164.27 input  -89.99 | X-H torsion
[ 3721 3712 3711 3710 ] final  -19.77 input -179.91 | X-H torsion
[ 3841 3832 3831 3830 ] final  137.73 input -179.91 | X-H torsion
[ 3767 3762 3761 3758 ] final  -32.37 input  -89.99 | X-H torsion
[ 2472 2467 2466 2463 ] final  -55.08 input  -89.97 | X-H torsion

> <Gold.Protein.ActiveResidues>
 VAL82   VAL86   LEU89   PHE106  VAL107  ASP110  VAL111  MET112  CYS114  THR115 
 CYS181  SER182  ILE183  PHE188  VAL189  ILE190  SER192  SER193  SER196  TRP342 
 PHE345  PHE346  HIS349  VAL350  TYR365  THR369  GLY372  TYR373 

> <Gold.Protein.RotatedAtoms>
    4.4137   -8.4888    4.2245 H   0  0  0  0  0  0  0  0  0  0  0  0  # atno 1303 bound_to 1298
    1.3386   -7.9228    7.0692 H   0  0  0  0  0  0  0  0  0  0  0  0  # atno 2461 bound_to 2456
   -3.6953   -5.1595    8.8913 H   0  0  0  0  0  0  0  0  0  0  0  0  # atno 2472 bound_to 2467
    2.2224   -8.8481    5.9859 H   0  0  0  0  0  0  0  0  0  0  0  0  # atno 2515 bound_to 2510
   -2.5523  -17.8043   14.4892 H   0  0  0  0  0  0  0  0  0  0  0  0  # atno 3721 bound_to 3712
   -5.5040  -22.3251   10.4478 H   0  0  0  0  0  0  0  0  0  0  0  0  # atno 3767 bound_to 3762
    3.1321  -20.5462    8.7478 H   0  0  0  0  0  0  0  0  0  0  0  0  # atno 3841 bound_to 3832
    4.6106   -9.9494    4.9274 LP  0  0  0  0  0  0  0  0  0  0  0  0  # atno 4297 bound_to 1298
    3.3377   -9.6835    3.9397 LP  0  0  0  0  0  0  0  0  0  0  0  0  # atno 4298 bound_to 1298
    0.4110   -9.0218    7.8432 LP  0  0  0  0  0  0  0  0  0  0  0  0  # atno 4299 bound_to 2456
    1.9882   -8.8634    8.2356 LP  0  0  0  0  0  0  0  0  0  0  0  0  # atno 4300 bound_to 2456
    2.2386   -7.4104    5.2123 LP  0  0  0  0  0  0  0  0  0  0  0  0  # atno 4301 bound_to 2510
    2.8358   -8.7404    4.4766 LP  0  0  0  0  0  0  0  0  0  0  0  0  # atno 4302 bound_to 2510
   -3.5305  -16.5750   14.1578 LP  0  0  0  0  0  0  0  0  0  0  0  0  # atno 4306 bound_to 3712
   -3.0505  -17.5959   12.9772 LP  0  0  0  0  0  0  0  0  0  0  0  0  # atno 4307 bound_to 3712
    1.7639  -20.8301    9.5374 LP  0  0  0  0  0  0  0  0  0  0  0  0  # atno 4314 bound_to 3832
    1.8475  -19.6412    8.4212 LP  0  0  0  0  0  0  0  0  0  0  0  0  # atno 4315 bound_to 3832
   -4.4045  -22.2169   11.6504 LP  0  0  0  0  0  0  0  0  0  0  0  0  # atno 4318 bound_to 3762
   -4.2192  -23.3329   10.4728 LP  0  0  0  0  0  0  0  0  0  0  0  0  # atno 4319 bound_to 3762
   -5.2985   -5.4039    9.0821 LP  0  0  0  0  0  0  0  0  0  0  0  0  # atno 4320 bound_to 2467
   -4.7229   -4.8301    7.6658 LP  0  0  0  0  0  0  0  0  0  0  0  0  # atno 4321 bound_to 2467

> <Gold.Score>
     Score     S(PLP)   S(hbond)     S(cho)   S(metal)  DE(clash)   DE(tors)     intcor
     48.22     -48.38       0.00       0.00       0.00       0.01       0.74       1.31

> <Gold.PLP.Fitness>
48.2170

> <Gold.PLP.PLP>
-48.3847

> <Gold.PLP.part.hbond>
-0.6511

> <Gold.PLP.part.metal>
0.0000

> <Gold.PLP.part.buried>
-4.8820

> <Gold.PLP.part.nonpolar>
-44.4307

> <Gold.PLP.part.repulsive>
0.8354

> <Gold.PLP.ligand.clash>
0.0062

> <Gold.PLP.ligand.torsion>
0.7374

> <Gold.PLP.Chemscore.Hbond>
0.0000

> <Gold.PLP.Chemscore.CHOScore>
0.0000

> <Gold.PLP.Chemscore.Metal>
0.0000

> <Gold.PLP.Chemscore.Internal.Correction>
1.3133

