#       Name:                EN300-306118_i001
#       Creating user name   fsindt
#       Creation time:       Tue Feb 28 18:27:00 2023


#       File generated by GOLD software.
#

@<TRIPOS>MOLECULE
EN300-306118_i001|acide_2|mol2|6465|dock5
    23    24     1
SMALL
USER_CHARGES


@<TRIPOS>ATOM
      1 O1           1.4077 -12.2374   6.7699 O.co2          1 <1>               -1.0000
      2 C2           0.5827 -12.1711   7.6702 C.2            1 <1>                0.0000
      3 O3          -0.0850 -11.1568   7.8141 O.co2          1 <1>                0.0000
      4 C4           0.3888 -13.3171   8.5789 C.ar           1 <1>                0.0000
      5 C5           0.4038 -14.6209   8.0774 C.ar           1 <1>                0.0000
      6 C6           0.2218 -15.6875   8.9330 C.ar           1 <1>                0.0000
      7 C7           0.0243 -15.4684  10.2848 C.ar           1 <1>                0.0000
      8 C8           0.0082 -14.1795  10.7887 C.ar           1 <1>                0.0000
      9 C9           0.1950 -13.1038   9.9462 C.ar           1 <1>                0.0000
     10 C10          0.1777 -11.7011  10.4970 C.3            1 <1>                0.0000
     11 N11         -1.1563 -11.1227  10.3182 N.pl3          1 <1>                0.0000
     12 C12         -1.5389  -9.8806  10.6946 C.2            1 <1>                0.0000
     13 C13         -2.8405  -9.7639  10.3423 C.2            1 <1>                0.0000
     14 N14         -3.1861 -10.9251   9.7751 N.2            1 <1>                0.0000
     15 N15         -2.1645 -11.7068   9.7711 N.2            1 <1>                0.0000
     16 H16          0.5572 -14.7933   7.0223 H              1 <1>                0.0000
     17 H17          0.2331 -16.6960   8.5467 H              1 <1>                0.0000
     18 H18         -0.1185 -16.3073  10.9499 H              1 <1>                0.0000
     19 H19         -0.1469 -14.0159  11.8449 H              1 <1>                0.0000
     20 H20          0.4244 -11.7245  11.5584 H              1 <1>                0.0000
     21 H21          0.9112 -11.0936   9.9668 H              1 <1>                0.0000
     22 H22         -0.9284  -9.1328  11.1789 H              1 <1>                0.0000
     23 H23         -3.4753  -8.9029  10.4903 H              1 <1>                0.0000
@<TRIPOS>BOND
    1    1    2 ar    
    2    2    3 ar    
    3    2    4 1     
    4    4    5 ar    
    5    4    9 ar    
    6    5    6 ar    
    7    5   16 1     
    8    6    7 ar    
    9    6   17 1     
   10    7    8 ar    
   11    7   18 1     
   12    8    9 ar    
   13    8   19 1     
   14    9   10 1     
   15   10   11 1     
   16   10   20 1     
   17   10   21 1     
   18   11   12 1     
   19   11   15 1     
   20   12   13 2     
   21   12   22 1     
   22   13   14 1     
   23   13   23 1     
   24   14   15 2     
@<TRIPOS>SUBSTRUCTURE
      1 ****           1
@<TRIPOS>COMMENT
> <Gold.Version>
2022.2.0

> <Gold.Id.Protein>
3pbl|protein|mol2

> <Gold.Protein.RotatedTorsions>
[ 1303 1298 1297 1294 ] final  147.03 input  179.99 | X-H torsion
[ 2461 2456 2455 2452 ] final -124.58 input   30.03 | X-H torsion
[ 2515 2510 2509 2506 ] final  157.47 input  -89.99 | X-H torsion
[ 3721 3712 3711 3710 ] final  -42.21 input -179.91 | X-H torsion
[ 3841 3832 3831 3830 ] final   77.17 input -179.91 | X-H torsion
[ 3767 3762 3761 3758 ] final -104.67 input  -89.99 | X-H torsion
[ 2472 2467 2466 2463 ] final -113.90 input  -89.97 | X-H torsion

> <Gold.Protein.ActiveResidues>
 VAL82   VAL86   LEU89   PHE106  VAL107  ASP110  VAL111  MET112  CYS114  THR115 
 CYS181  SER182  ILE183  PHE188  VAL189  ILE190  SER192  SER193  SER196  TRP342 
 PHE345  PHE346  HIS349  VAL350  TYR365  THR369  GLY372  TYR373 

> <Gold.Protein.RotatedAtoms>
    4.8967   -9.3616    4.8988 H   0  0  0  0  0  0  0  0  0  0  0  0  # atno 1303 bound_to 1298
    0.6276   -9.2027    8.0996 H   0  0  0  0  0  0  0  0  0  0  0  0  # atno 2461 bound_to 2456
   -4.4024   -5.4295    9.4245 H   0  0  0  0  0  0  0  0  0  0  0  0  # atno 2472 bound_to 2467
    2.1832   -8.7537    6.0308 H   0  0  0  0  0  0  0  0  0  0  0  0  # atno 2515 bound_to 2510
   -2.6762  -17.5580   14.6833 H   0  0  0  0  0  0  0  0  0  0  0  0  # atno 3721 bound_to 3712
   -5.0525  -21.9197   11.3802 H   0  0  0  0  0  0  0  0  0  0  0  0  # atno 3767 bound_to 3762
    2.6944  -20.9538    9.3837 H   0  0  0  0  0  0  0  0  0  0  0  0  # atno 3841 bound_to 3832
    3.6001  -10.1577    4.3061 LP  0  0  0  0  0  0  0  0  0  0  0  0  # atno 4297 bound_to 1298
    3.8650   -8.6020    3.8865 LP  0  0  0  0  0  0  0  0  0  0  0  0  # atno 4298 bound_to 1298
    2.1396   -8.5909    8.0162 LP  0  0  0  0  0  0  0  0  0  0  0  0  # atno 4299 bound_to 2456
    0.9704   -8.0147    7.0325 LP  0  0  0  0  0  0  0  0  0  0  0  0  # atno 4300 bound_to 2456
    2.2819   -7.4095    5.1094 LP  0  0  0  0  0  0  0  0  0  0  0  0  # atno 4301 bound_to 2510
    2.8318   -8.8357    4.5347 LP  0  0  0  0  0  0  0  0  0  0  0  0  # atno 4302 bound_to 2510
   -3.5675  -16.5679   13.7871 LP  0  0  0  0  0  0  0  0  0  0  0  0  # atno 4306 bound_to 3712
   -2.8705  -17.8874   13.1239 LP  0  0  0  0  0  0  0  0  0  0  0  0  # atno 4307 bound_to 3712
    1.3933  -20.0642    9.0811 LP  0  0  0  0  0  0  0  0  0  0  0  0  # atno 4314 bound_to 3832
    2.7236  -19.9363    8.1429 LP  0  0  0  0  0  0  0  0  0  0  0  0  # atno 4315 bound_to 3832
   -3.9098  -23.0550   11.1119 LP  0  0  0  0  0  0  0  0  0  0  0  0  # atno 4318 bound_to 3762
   -5.1652  -22.9001   10.0791 LP  0  0  0  0  0  0  0  0  0  0  0  0  # atno 4319 bound_to 3762
   -5.4560   -5.1100    8.2185 LP  0  0  0  0  0  0  0  0  0  0  0  0  # atno 4320 bound_to 2467
   -3.8585   -4.8542    7.9963 LP  0  0  0  0  0  0  0  0  0  0  0  0  # atno 4321 bound_to 2467

> <Gold.Score>
     Score     S(PLP)   S(hbond)     S(cho)   S(metal)  DE(clash)   DE(tors)     intcor
     45.73     -40.37       1.00       0.98       0.00       0.00       0.95       1.31

> <Gold.PLP.Fitness>
45.7289

> <Gold.PLP.PLP>
-40.3731

> <Gold.PLP.part.hbond>
-1.0000

> <Gold.PLP.part.metal>
0.0000

> <Gold.PLP.part.buried>
-3.2101

> <Gold.PLP.part.nonpolar>
-36.8962

> <Gold.PLP.part.repulsive>
0.1149

> <Gold.PLP.ligand.clash>
0.0000

> <Gold.PLP.ligand.torsion>
0.9543

> <Gold.PLP.Chemscore.Hbond>
1.0000

> <Gold.PLP.Chemscore.CHOScore>
0.9837

> <Gold.PLP.Chemscore.Metal>
0.0000

> <Gold.Chemscore.Hbonds>
donor molecule, donor type, donor heavy atom, donor atom, acceptor molecule, acceptor atom, score
      P1  H  2456  2461       L1     3  1.00
      L1  C    13    23       P1  2398  0.98

> <Gold.PLP.Chemscore.Internal.Correction>
1.3133

