#       Name:                EN300-306118_i001
#       Creating user name   fsindt
#       Creation time:       Tue Feb 28 18:27:05 2023


#       File generated by GOLD software.
#

@<TRIPOS>MOLECULE
EN300-306118_i001|acide_2|mol2|6465|dock13
    23    24     1
SMALL
USER_CHARGES


@<TRIPOS>ATOM
      1 O1          -0.3061 -15.6175  10.8075 O.co2          1 <1>               -1.0000
      2 C2          -0.2542 -14.4147  11.0220 C.2            1 <1>                0.0000
      3 O3          -0.3346 -13.9939  12.1675 O.co2          1 <1>                0.0000
      4 C4          -0.0888 -13.4717   9.8995 C.ar           1 <1>                0.0000
      5 C5           0.7755 -13.7793   8.8460 C.ar           1 <1>                0.0000
      6 C6           0.9252 -12.8927   7.7999 C.ar           1 <1>                0.0000
      7 C7           0.2221 -11.7011   7.7926 C.ar           1 <1>                0.0000
      8 C8          -0.6359 -11.3897   8.8329 C.ar           1 <1>                0.0000
      9 C9          -0.8003 -12.2692   9.8823 C.ar           1 <1>                0.0000
     10 C10         -1.7356 -11.9285  11.0138 C.3            1 <1>                0.0000
     11 N11         -2.8881 -11.1914  10.4898 N.pl3          1 <1>                0.0000
     12 C12         -3.9824 -11.7380   9.9113 C.2            1 <1>                0.0000
     13 C13         -4.7891 -10.7036   9.5780 C.2            1 <1>                0.0000
     14 N14         -4.1572  -9.5894   9.9637 N.2            1 <1>                0.0000
     15 N15         -3.0361  -9.9129  10.5053 N.2            1 <1>                0.0000
     16 H16          1.3254 -14.7088   8.8509 H              1 <1>                0.0000
     17 H17          1.5931 -13.1291   6.9848 H              1 <1>                0.0000
     18 H18          0.3438 -11.0104   6.9712 H              1 <1>                0.0000
     19 H19         -1.1813 -10.4576   8.8207 H              1 <1>                0.0000
     20 H20         -2.0780 -12.8466  11.4912 H              1 <1>                0.0000
     21 H21         -1.2121 -11.3124  11.7448 H              1 <1>                0.0000
     22 H22         -4.1735 -12.7883   9.7481 H              1 <1>                0.0000
     23 H23         -5.7532 -10.7654   9.0952 H              1 <1>                0.0000
@<TRIPOS>BOND
    1    1    2 ar    
    2    2    3 ar    
    3    2    4 1     
    4    4    5 ar    
    5    4    9 ar    
    6    5    6 ar    
    7    5   16 1     
    8    6    7 ar    
    9    6   17 1     
   10    7    8 ar    
   11    7   18 1     
   12    8    9 ar    
   13    8   19 1     
   14    9   10 1     
   15   10   11 1     
   16   10   20 1     
   17   10   21 1     
   18   11   12 1     
   19   11   15 1     
   20   12   13 2     
   21   12   22 1     
   22   13   14 1     
   23   13   23 1     
   24   14   15 2     
@<TRIPOS>SUBSTRUCTURE
      1 ****           1
@<TRIPOS>COMMENT
> <Gold.Version>
2022.2.0

> <Gold.Id.Protein>
3pbl|protein|mol2

> <Gold.Protein.RotatedTorsions>
[ 1303 1298 1297 1294 ] final   33.96 input  179.99 | X-H torsion
[ 2461 2456 2455 2452 ] final   -3.64 input   30.03 | X-H torsion
[ 2515 2510 2509 2506 ] final -161.79 input  -89.99 | X-H torsion
[ 3721 3712 3711 3710 ] final  -50.46 input -179.91 | X-H torsion
[ 3841 3832 3831 3830 ] final  -13.39 input -179.91 | X-H torsion
[ 3767 3762 3761 3758 ] final -141.36 input  -89.99 | X-H torsion
[ 2472 2467 2466 2463 ] final  131.86 input  -89.97 | X-H torsion

> <Gold.Protein.ActiveResidues>
 VAL82   VAL86   LEU89   PHE106  VAL107  ASP110  VAL111  MET112  CYS114  THR115 
 CYS181  SER182  ILE183  PHE188  VAL189  ILE190  SER192  SER193  SER196  TRP342 
 PHE345  PHE346  HIS349  VAL350  TYR365  THR369  GLY372  TYR373 

> <Gold.Protein.RotatedAtoms>
    3.6757  -10.2046    4.3775 H   0  0  0  0  0  0  0  0  0  0  0  0  # atno 1303 bound_to 1298
    0.9848   -8.0088    7.0316 H   0  0  0  0  0  0  0  0  0  0  0  0  # atno 2461 bound_to 2456
   -5.4830   -5.1440    8.3026 H   0  0  0  0  0  0  0  0  0  0  0  0  # atno 2472 bound_to 2467
    2.4506   -9.1889    5.6192 H   0  0  0  0  0  0  0  0  0  0  0  0  # atno 2515 bound_to 2510
   -2.7316  -17.4547   14.7256 H   0  0  0  0  0  0  0  0  0  0  0  0  # atno 3721 bound_to 3712
   -4.5512  -22.1128   11.6328 H   0  0  0  0  0  0  0  0  0  0  0  0  # atno 3767 bound_to 3762
    1.6387  -20.3295    9.4785 H   0  0  0  0  0  0  0  0  0  0  0  0  # atno 3841 bound_to 3832
    3.7766   -8.6630    3.8487 LP  0  0  0  0  0  0  0  0  0  0  0  0  # atno 4297 bound_to 1298
    4.9100   -9.2534    4.8654 LP  0  0  0  0  0  0  0  0  0  0  0  0  # atno 4298 bound_to 1298
    0.6167   -9.1970    8.0900 LP  0  0  0  0  0  0  0  0  0  0  0  0  # atno 4299 bound_to 2456
    2.1362   -8.6022    8.0263 LP  0  0  0  0  0  0  0  0  0  0  0  0  # atno 4300 bound_to 2456
    2.0738   -7.6024    5.7011 LP  0  0  0  0  0  0  0  0  0  0  0  0  # atno 4301 bound_to 2510
    2.7723   -8.2074    4.3547 LP  0  0  0  0  0  0  0  0  0  0  0  0  # atno 4302 bound_to 2510
   -3.5628  -16.5971   13.6525 LP  0  0  0  0  0  0  0  0  0  0  0  0  # atno 4306 bound_to 3712
   -2.8112  -17.9775   13.2096 LP  0  0  0  0  0  0  0  0  0  0  0  0  # atno 4307 bound_to 3712
    2.3473  -19.7137    8.1766 LP  0  0  0  0  0  0  0  0  0  0  0  0  # atno 4314 bound_to 3832
    2.9892  -21.0079    8.9379 LP  0  0  0  0  0  0  0  0  0  0  0  0  # atno 4315 bound_to 3832
   -4.1069  -23.3079   10.6125 LP  0  0  0  0  0  0  0  0  0  0  0  0  # atno 4318 bound_to 3762
   -5.4692  -22.4541   10.3260 LP  0  0  0  0  0  0  0  0  0  0  0  0  # atno 4319 bound_to 3762
   -3.9232   -4.8371    7.9291 LP  0  0  0  0  0  0  0  0  0  0  0  0  # atno 4320 bound_to 2467
   -4.3109   -5.4125    9.4074 LP  0  0  0  0  0  0  0  0  0  0  0  0  # atno 4321 bound_to 2467

> <Gold.Score>
     Score     S(PLP)   S(hbond)     S(cho)   S(metal)  DE(clash)   DE(tors)     intcor
     47.86     -46.22       0.00       0.97       0.00       0.02       1.29       1.31

> <Gold.PLP.Fitness>
47.8638

> <Gold.PLP.PLP>
-46.2237

> <Gold.PLP.part.hbond>
0.0000

> <Gold.PLP.part.metal>
0.0000

> <Gold.PLP.part.buried>
-3.3069

> <Gold.PLP.part.nonpolar>
-43.6599

> <Gold.PLP.part.repulsive>
0.3532

> <Gold.PLP.ligand.clash>
0.0195

> <Gold.PLP.ligand.torsion>
1.2872

> <Gold.PLP.Chemscore.Hbond>
0.0000

> <Gold.PLP.Chemscore.CHOScore>
0.9735

> <Gold.PLP.Chemscore.Metal>
0.0000

> <Gold.Chemscore.Hbonds>
donor molecule, donor type, donor heavy atom, donor atom, acceptor molecule, acceptor atom, score
      L1  C    13    23       P1  3417  0.97

> <Gold.PLP.Chemscore.Internal.Correction>
1.3133

