#       Name:                EN300-306118_i001
#       Creating user name   fsindt
#       Creation time:       Tue Feb 28 18:27:04 2023


#       File generated by GOLD software.
#

@<TRIPOS>MOLECULE
EN300-306118_i001|acide_2|mol2|6465|dock12
    23    24     1
SMALL
USER_CHARGES


@<TRIPOS>ATOM
      1 O1           0.8135 -11.2601   7.4431 O.co2          1 <1>               -1.0000
      2 C2           0.2590 -12.2044   7.9874 C.2            1 <1>                0.0000
      3 O3           0.2916 -13.3126   7.4714 O.co2          1 <1>                0.0000
      4 C4          -0.4441 -12.0079   9.2694 C.ar           1 <1>                0.0000
      5 C5          -1.2304 -10.8711   9.4717 C.ar           1 <1>                0.0000
      6 C6          -1.8849 -10.6940  10.6729 C.ar           1 <1>                0.0000
      7 C7          -1.7636 -11.6388  11.6764 C.ar           1 <1>                0.0000
      8 C8          -0.9863 -12.7675  11.4832 C.ar           1 <1>                0.0000
      9 C9          -0.3313 -12.9609  10.2852 C.ar           1 <1>                0.0000
     10 C10          0.5141 -14.1909  10.0765 C.3            1 <1>                0.0000
     11 N11          0.5768 -14.9577  11.3233 N.pl3          1 <1>                0.0000
     12 C12          1.7047 -15.2996  11.9879 C.2            1 <1>                0.0000
     13 C13          1.3042 -15.9970  13.0765 C.2            1 <1>                0.0000
     14 N14         -0.0316 -16.0470  13.0253 N.2            1 <1>                0.0000
     15 N15         -0.4320 -15.4172  11.9775 N.2            1 <1>                0.0000
     16 H16         -1.3253 -10.1325   8.6894 H              1 <1>                0.0000
     17 H17         -2.4930  -9.8156  10.8307 H              1 <1>                0.0000
     18 H18         -2.2777 -11.4945  12.6153 H              1 <1>                0.0000
     19 H19         -0.8959 -13.5007  12.2710 H              1 <1>                0.0000
     20 H20          0.0726 -14.8067   9.2931 H              1 <1>                0.0000
     21 H21          1.5206 -13.8941   9.7815 H              1 <1>                0.0000
     22 H22          2.7203 -15.0637  11.7062 H              1 <1>                0.0000
     23 H23          1.9382 -16.4285  13.8368 H              1 <1>                0.0000
@<TRIPOS>BOND
    1    1    2 ar    
    2    2    3 ar    
    3    2    4 1     
    4    4    5 ar    
    5    4    9 ar    
    6    5    6 ar    
    7    5   16 1     
    8    6    7 ar    
    9    6   17 1     
   10    7    8 ar    
   11    7   18 1     
   12    8    9 ar    
   13    8   19 1     
   14    9   10 1     
   15   10   11 1     
   16   10   20 1     
   17   10   21 1     
   18   11   12 1     
   19   11   15 1     
   20   12   13 2     
   21   12   22 1     
   22   13   14 1     
   23   13   23 1     
   24   14   15 2     
@<TRIPOS>SUBSTRUCTURE
      1 ****           1
@<TRIPOS>COMMENT
> <Gold.Version>
2022.2.0

> <Gold.Id.Protein>
3pbl|protein|mol2

> <Gold.Protein.RotatedTorsions>
[ 1303 1298 1297 1294 ] final  -90.63 input  179.99 | X-H torsion
[ 2461 2456 2455 2452 ] final -135.32 input   30.03 | X-H torsion
[ 2515 2510 2509 2506 ] final  120.57 input  -89.99 | X-H torsion
[ 3721 3712 3711 3710 ] final -134.71 input -179.91 | X-H torsion
[ 3841 3832 3831 3830 ] final   -5.54 input -179.91 | X-H torsion
[ 3767 3762 3761 3758 ] final   90.26 input  -89.99 | X-H torsion
[ 2472 2467 2466 2463 ] final   80.29 input  -89.97 | X-H torsion

> <Gold.Protein.ActiveResidues>
 VAL82   VAL86   LEU89   PHE106  VAL107  ASP110  VAL111  MET112  CYS114  THR115 
 CYS181  SER182  ILE183  PHE188  VAL189  ILE190  SER192  SER193  SER196  TRP342 
 PHE345  PHE346  HIS349  VAL350  TYR365  THR369  GLY372  TYR373 

> <Gold.Protein.RotatedAtoms>
    3.8345   -8.6214    3.8734 H   0  0  0  0  0  0  0  0  0  0  0  0  # atno 1303 bound_to 1298
    0.7642   -9.2542    8.1987 H   0  0  0  0  0  0  0  0  0  0  0  0  # atno 2461 bound_to 2456
   -4.9630   -4.8791    7.7262 H   0  0  0  0  0  0  0  0  0  0  0  0  # atno 2472 bound_to 2467
    2.0425   -8.1752    6.0685 H   0  0  0  0  0  0  0  0  0  0  0  0  # atno 2515 bound_to 2510
   -3.2837  -16.5709   14.2117 H   0  0  0  0  0  0  0  0  0  0  0  0  # atno 3721 bound_to 3712
   -4.1901  -23.3290   10.5046 H   0  0  0  0  0  0  0  0  0  0  0  0  # atno 3767 bound_to 3762
    1.6918  -20.4226    9.5290 H   0  0  0  0  0  0  0  0  0  0  0  0  # atno 3841 bound_to 3832
    4.9028   -9.3251    4.8882 LP  0  0  0  0  0  0  0  0  0  0  0  0  # atno 4297 bound_to 1298
    3.6250  -10.1751    4.3301 LP  0  0  0  0  0  0  0  0  0  0  0  0  # atno 4298 bound_to 1298
    2.1608   -8.4634    7.8962 LP  0  0  0  0  0  0  0  0  0  0  0  0  # atno 4299 bound_to 2456
    0.8126   -8.0908    7.0534 LP  0  0  0  0  0  0  0  0  0  0  0  0  # atno 4300 bound_to 2456
    2.5369   -7.6229    4.6138 LP  0  0  0  0  0  0  0  0  0  0  0  0  # atno 4301 bound_to 2510
    2.7175   -9.2011    4.9925 LP  0  0  0  0  0  0  0  0  0  0  0  0  # atno 4302 bound_to 2510
   -3.0681  -17.5664   12.9705 LP  0  0  0  0  0  0  0  0  0  0  0  0  # atno 4306 bound_to 3712
   -2.6686  -18.0286   14.4849 LP  0  0  0  0  0  0  0  0  0  0  0  0  # atno 4307 bound_to 3712
    2.2283  -19.6739    8.2146 LP  0  0  0  0  0  0  0  0  0  0  0  0  # atno 4314 bound_to 3832
    3.0467  -20.9402    8.8417 LP  0  0  0  0  0  0  0  0  0  0  0  0  # atno 4315 bound_to 3832
   -5.4984  -22.3556   10.4175 LP  0  0  0  0  0  0  0  0  0  0  0  0  # atno 4318 bound_to 3762
   -4.4387  -22.1908   11.6489 LP  0  0  0  0  0  0  0  0  0  0  0  0  # atno 4319 bound_to 3762
   -3.6387   -5.0700    8.6623 LP  0  0  0  0  0  0  0  0  0  0  0  0  # atno 4320 bound_to 2467
   -5.1153   -5.4444    9.2505 LP  0  0  0  0  0  0  0  0  0  0  0  0  # atno 4321 bound_to 2467

> <Gold.Score>
     Score     S(PLP)   S(hbond)     S(cho)   S(metal)  DE(clash)   DE(tors)     intcor
     43.92     -42.02       0.66       0.00       0.00       0.00       0.69       1.31

> <Gold.PLP.Fitness>
43.9184

> <Gold.PLP.PLP>
-42.0158

> <Gold.PLP.part.hbond>
-1.0000

> <Gold.PLP.part.metal>
0.0000

> <Gold.PLP.part.buried>
-4.4950

> <Gold.PLP.part.nonpolar>
-36.6105

> <Gold.PLP.part.repulsive>
0.1555

> <Gold.PLP.ligand.clash>
0.0000

> <Gold.PLP.ligand.torsion>
0.6920

> <Gold.PLP.Chemscore.Hbond>
0.6578

> <Gold.PLP.Chemscore.CHOScore>
0.0000

> <Gold.PLP.Chemscore.Metal>
0.0000

> <Gold.Chemscore.Hbonds>
donor molecule, donor type, donor heavy atom, donor atom, acceptor molecule, acceptor atom, score
      P1  H  2456  2461       L1     1  0.66

> <Gold.PLP.Chemscore.Internal.Correction>
1.3133

