#       Name:                EN300-306118_i001
#       Creating user name   fsindt
#       Creation time:       Tue Feb 28 18:26:57 2023


#       File generated by GOLD software.
#

@<TRIPOS>MOLECULE
EN300-306118_i001
    23    24     1
SMALL
USER_CHARGES


@<TRIPOS>ATOM
      1 O1          -1.5861  -3.1495  -0.2564 O.co2          1 <1>               -1.0000
      2 C2          -0.8835  -2.2217   0.1191 C.2            1 <1>                0.0000
      3 O3           0.2080  -2.4463   0.6228 O.co2          1 <1>                0.0000
      4 C4          -1.3501  -0.8313  -0.0410 C.ar           1 <1>                0.0000
      5 C5          -2.5337  -0.5634  -0.7330 C.ar           1 <1>                0.0000
      6 C6          -2.9638   0.7391  -0.8788 C.ar           1 <1>                0.0000
      7 C7          -2.2257   1.7790  -0.3420 C.ar           1 <1>                0.0000
      8 C8          -1.0521   1.5212   0.3448 C.ar           1 <1>                0.0000
      9 C9          -0.6132   0.2236   0.5038 C.ar           1 <1>                0.0000
     10 C10          0.6647  -0.0551   1.2525 C.3            1 <1>                0.0000
     11 N11          1.7735  -0.1665   0.3015 N.pl3          1 <1>                0.0000
     12 C12          2.9212   0.5494   0.3345 C.2            1 <1>                0.0000
     13 C13          3.6579   0.1297  -0.7205 C.2            1 <1>                0.0000
     14 N14          2.9343  -0.8100  -1.3393 N.2            1 <1>                0.0000
     15 N15          1.8256  -0.9660  -0.7059 N.2            1 <1>                0.0000
     16 H16         -3.1104  -1.3742  -1.1531 H              1 <1>                0.0000
     17 H17         -3.8786   0.9477  -1.4136 H              1 <1>                0.0000
     18 H18         -2.5669   2.7970  -0.4599 H              1 <1>                0.0000
     19 H19         -0.4809   2.3379   0.7609 H              1 <1>                0.0000
     20 H20          0.8633   0.7600   1.9483 H              1 <1>                0.0000
     21 H21          0.5653  -0.9890   1.8057 H              1 <1>                0.0000
     22 H22          3.1944   1.3040   1.0572 H              1 <1>                0.0000
     23 H23          4.6371   0.4840  -1.0068 H              1 <1>                0.0000
@<TRIPOS>BOND
    1    1    2 ar    
    2    2    3 ar    
    3    2    4 1     
    4    4    5 ar    
    5    4    9 ar    
    6    5    6 ar    
    7    5   16 1     
    8    6    7 ar    
    9    6   17 1     
   10    7    8 ar    
   11    7   18 1     
   12    8    9 ar    
   13    8   19 1     
   14    9   10 1     
   15   10   11 1     
   16   10   20 1     
   17   10   21 1     
   18   11   12 1     
   19   11   15 1     
   20   12   13 2     
   21   12   22 1     
   22   13   14 1     
   23   13   23 1     
   24   14   15 2     
@<TRIPOS>SUBSTRUCTURE
      1 ****           1
