#       Name:                EN300-306118_i001
#       Creating user name   fsindt
#       Creation time:       Tue Feb 28 18:27:09 2023


#       File generated by GOLD software.
#

@<TRIPOS>MOLECULE
EN300-306118_i001|acide_2|mol2|6465|dock19
    23    24     1
SMALL
USER_CHARGES


@<TRIPOS>ATOM
      1 O1           0.7697 -10.4665  10.1949 O.co2          1 <1>               -1.0000
      2 C2          -0.2198 -10.1180  10.8233 C.2            1 <1>                0.0000
      3 O3          -0.0989  -9.3964  11.8032 O.co2          1 <1>                0.0000
      4 C4          -1.5597 -10.5632  10.3957 C.ar           1 <1>                0.0000
      5 C5          -2.6391  -9.6772  10.4340 C.ar           1 <1>                0.0000
      6 C6          -3.8892 -10.1005  10.0328 C.ar           1 <1>                0.0000
      7 C7          -4.0754 -11.3993   9.5936 C.ar           1 <1>                0.0000
      8 C8          -3.0107 -12.2826   9.5529 C.ar           1 <1>                0.0000
      9 C9          -1.7541 -11.8715   9.9450 C.ar           1 <1>                0.0000
     10 C10         -0.5960 -12.8348   9.8995 C.3            1 <1>                0.0000
     11 N11         -0.0912 -12.9270   8.5273 N.pl3          1 <1>                0.0000
     12 C12          0.4926 -11.9262   7.8284 C.2            1 <1>                0.0000
     13 C13          0.8025 -12.4434   6.6166 C.2            1 <1>                0.0000
     14 N14          0.3984 -13.7185   6.6332 N.2            1 <1>                0.0000
     15 N15         -0.1219 -13.9754   7.7813 N.2            1 <1>                0.0000
     16 H16         -2.4952  -8.6634  10.7773 H              1 <1>                0.0000
     17 H17         -4.7246  -9.4167  10.0619 H              1 <1>                0.0000
     18 H18         -5.0566 -11.7254   9.2813 H              1 <1>                0.0000
     19 H19         -3.1635 -13.2950   9.2092 H              1 <1>                0.0000
     20 H20          0.1983 -12.4792  10.5557 H              1 <1>                0.0000
     21 H21         -0.9283 -13.8184  10.2312 H              1 <1>                0.0000
     22 H22          0.6745 -10.9175   8.1689 H              1 <1>                0.0000
     23 H23          1.2814 -11.9280   5.7973 H              1 <1>                0.0000
@<TRIPOS>BOND
    1    1    2 ar    
    2    2    3 ar    
    3    2    4 1     
    4    4    5 ar    
    5    4    9 ar    
    6    5    6 ar    
    7    5   16 1     
    8    6    7 ar    
    9    6   17 1     
   10    7    8 ar    
   11    7   18 1     
   12    8    9 ar    
   13    8   19 1     
   14    9   10 1     
   15   10   11 1     
   16   10   20 1     
   17   10   21 1     
   18   11   12 1     
   19   11   15 1     
   20   12   13 2     
   21   12   22 1     
   22   13   14 1     
   23   13   23 1     
   24   14   15 2     
@<TRIPOS>SUBSTRUCTURE
      1 ****           1
@<TRIPOS>COMMENT
> <Gold.Version>
2022.2.0

> <Gold.Id.Protein>
3pbl|protein|mol2

> <Gold.Protein.RotatedTorsions>
[ 1303 1298 1297 1294 ] final -146.89 input  179.99 | X-H torsion
[ 2461 2456 2455 2452 ] final   86.45 input   30.03 | X-H torsion
[ 2515 2510 2509 2506 ] final -169.12 input  -89.99 | X-H torsion
[ 3721 3712 3711 3710 ] final   93.86 input -179.91 | X-H torsion
[ 3841 3832 3831 3830 ] final  -40.52 input -179.91 | X-H torsion
[ 3767 3762 3761 3758 ] final   16.48 input  -89.99 | X-H torsion
[ 2472 2467 2466 2463 ] final  132.63 input  -89.97 | X-H torsion

> <Gold.Protein.ActiveResidues>
 VAL82   VAL86   LEU89   PHE106  VAL107  ASP110  VAL111  MET112  CYS114  THR115 
 CYS181  SER182  ILE183  PHE188  VAL189  ILE190  SER192  SER193  SER196  TRP342 
 PHE345  PHE346  HIS349  VAL350  TYR365  THR369  GLY372  TYR373 

> <Gold.Protein.RotatedAtoms>
    4.5751   -8.5479    4.3595 H   0  0  0  0  0  0  0  0  0  0  0  0  # atno 1303 bound_to 1298
    2.1239   -8.2602    7.6803 H   0  0  0  0  0  0  0  0  0  0  0  0  # atno 2461 bound_to 2456
   -5.4859   -5.1485    8.3140 H   0  0  0  0  0  0  0  0  0  0  0  0  # atno 2472 bound_to 2467
    2.3991   -9.1374    5.7151 H   0  0  0  0  0  0  0  0  0  0  0  0  # atno 2515 bound_to 2510
   -2.8122  -17.5689   13.0824 H   0  0  0  0  0  0  0  0  0  0  0  0  # atno 3721 bound_to 3712
   -5.1515  -22.9129   10.0756 H   0  0  0  0  0  0  0  0  0  0  0  0  # atno 3767 bound_to 3762
    1.5615  -20.0100    9.2402 H   0  0  0  0  0  0  0  0  0  0  0  0  # atno 3841 bound_to 3832
    4.4543  -10.0928    4.8745 LP  0  0  0  0  0  0  0  0  0  0  0  0  # atno 4297 bound_to 1298
    3.3326   -9.4810    3.8576 LP  0  0  0  0  0  0  0  0  0  0  0  0  # atno 4298 bound_to 1298
    0.5822   -8.2593    7.1413 LP  0  0  0  0  0  0  0  0  0  0  0  0  # atno 4299 bound_to 2456
    1.0320   -9.2886    8.3265 LP  0  0  0  0  0  0  0  0  0  0  0  0  # atno 4300 bound_to 2456
    2.1004   -7.5361    5.6041 LP  0  0  0  0  0  0  0  0  0  0  0  0  # atno 4301 bound_to 2510
    2.7972   -8.3253    4.3558 LP  0  0  0  0  0  0  0  0  0  0  0  0  # atno 4302 bound_to 2510
   -2.7402  -17.8769   14.6565 LP  0  0  0  0  0  0  0  0  0  0  0  0  # atno 4306 bound_to 3712
   -3.5407  -16.5658   14.1027 LP  0  0  0  0  0  0  0  0  0  0  0  0  # atno 4307 bound_to 3712
    2.7319  -19.9431    8.1439 LP  0  0  0  0  0  0  0  0  0  0  0  0  # atno 4314 bound_to 3832
    2.6937  -21.1476    9.2459 LP  0  0  0  0  0  0  0  0  0  0  0  0  # atno 4315 bound_to 3832
   -5.0674  -21.9186   11.3684 LP  0  0  0  0  0  0  0  0  0  0  0  0  # atno 4318 bound_to 3762
   -3.9087  -23.0437   11.1268 LP  0  0  0  0  0  0  0  0  0  0  0  0  # atno 4319 bound_to 3762
   -3.9323   -4.8350    7.9207 LP  0  0  0  0  0  0  0  0  0  0  0  0  # atno 4320 bound_to 2467
   -4.2989   -5.4101    9.4044 LP  0  0  0  0  0  0  0  0  0  0  0  0  # atno 4321 bound_to 2467

> <Gold.Score>
     Score     S(PLP)   S(hbond)     S(cho)   S(metal)  DE(clash)   DE(tors)     intcor
     52.65     -50.22       0.00       1.00       0.00       0.01       0.93       1.31

> <Gold.PLP.Fitness>
52.6475

> <Gold.PLP.PLP>
-50.2159

> <Gold.PLP.part.hbond>
-1.0000

> <Gold.PLP.part.metal>
0.0000

> <Gold.PLP.part.buried>
-4.1252

> <Gold.PLP.part.nonpolar>
-46.7253

> <Gold.PLP.part.repulsive>
0.1433

> <Gold.PLP.ligand.clash>
0.0099

> <Gold.PLP.ligand.torsion>
0.9349

> <Gold.PLP.Chemscore.Hbond>
0.0000

> <Gold.PLP.Chemscore.CHOScore>
0.9994

> <Gold.PLP.Chemscore.Metal>
0.0000

> <Gold.Chemscore.Hbonds>
donor molecule, donor type, donor heavy atom, donor atom, acceptor molecule, acceptor atom, score
      L1  C    12    22       P1  2456  1.00

> <Gold.PLP.Chemscore.Internal.Correction>
1.3133

