#       Name:                EN300-306118_i001
#       Creating user name   fsindt
#       Creation time:       Tue Feb 28 18:27:02 2023


#       File generated by GOLD software.
#

@<TRIPOS>MOLECULE
EN300-306118_i001|acide_2|mol2|6465|dock8
    23    24     1
SMALL
USER_CHARGES


@<TRIPOS>ATOM
      1 O1           1.0319 -11.1514   8.1331 O.co2          1 <1>               -1.0000
      2 C2           0.7441 -12.3391   8.1769 C.2            1 <1>                0.0000
      3 O3           0.8765 -13.0374   7.1817 O.co2          1 <1>                0.0000
      4 C4           0.2428 -12.9307   9.4320 C.ar           1 <1>                0.0000
      5 C5           0.6701 -14.2000   9.8294 C.ar           1 <1>                0.0000
      6 C6           0.1971 -14.7469  11.0041 C.ar           1 <1>                0.0000
      7 C7          -0.6988 -14.0416  11.7879 C.ar           1 <1>                0.0000
      8 C8          -1.1266 -12.7837  11.4005 C.ar           1 <1>                0.0000
      9 C9          -0.6574 -12.2218  10.2318 C.ar           1 <1>                0.0000
     10 C10         -1.1239 -10.8516   9.8120 C.3            1 <1>                0.0000
     11 N11         -2.5883 -10.8102   9.8218 N.pl3          1 <1>                0.0000
     12 C12         -3.3491  -9.7585  10.2038 C.2            1 <1>                0.0000
     13 C13         -4.6361 -10.1505  10.0556 C.2            1 <1>                0.0000
     14 N14         -4.6001 -11.4064   9.5963 N.2            1 <1>                0.0000
     15 N15         -3.3723 -11.7661   9.4633 N.2            1 <1>                0.0000
     16 H16          1.3688 -14.7519   9.2181 H              1 <1>                0.0000
     17 H17          0.5265 -15.7281  11.3126 H              1 <1>                0.0000
     18 H18         -1.0665 -14.4751  12.7063 H              1 <1>                0.0000
     19 H19         -1.8263 -12.2390  12.0171 H              1 <1>                0.0000
     20 H20         -0.7347 -10.1068  10.5061 H              1 <1>                0.0000
     21 H21         -0.7610 -10.6365   8.8070 H              1 <1>                0.0000
     22 H22         -2.9997  -8.7992  10.5561 H              1 <1>                0.0000
     23 H23         -5.5185  -9.5648  10.2669 H              1 <1>                0.0000
@<TRIPOS>BOND
    1    1    2 ar    
    2    2    3 ar    
    3    2    4 1     
    4    4    5 ar    
    5    4    9 ar    
    6    5    6 ar    
    7    5   16 1     
    8    6    7 ar    
    9    6   17 1     
   10    7    8 ar    
   11    7   18 1     
   12    8    9 ar    
   13    8   19 1     
   14    9   10 1     
   15   10   11 1     
   16   10   20 1     
   17   10   21 1     
   18   11   12 1     
   19   11   15 1     
   20   12   13 2     
   21   12   22 1     
   22   13   14 1     
   23   13   23 1     
   24   14   15 2     
@<TRIPOS>SUBSTRUCTURE
      1 ****           1
@<TRIPOS>COMMENT
> <Gold.Version>
2022.2.0

> <Gold.Id.Protein>
3pbl|protein|mol2

> <Gold.Protein.RotatedTorsions>
[ 1303 1298 1297 1294 ] final   15.85 input  179.99 | X-H torsion
[ 2461 2456 2455 2452 ] final -147.61 input   30.03 | X-H torsion
[ 2515 2510 2509 2506 ] final   78.84 input  -89.99 | X-H torsion
[ 3721 3712 3711 3710 ] final  -72.71 input -179.91 | X-H torsion
[ 3841 3832 3831 3830 ] final -174.21 input -179.91 | X-H torsion
[ 3767 3762 3761 3758 ] final   55.94 input  -89.99 | X-H torsion
[ 2472 2467 2466 2463 ] final  -48.53 input  -89.97 | X-H torsion

> <Gold.Protein.ActiveResidues>
 VAL82   VAL86   LEU89   PHE106  VAL107  ASP110  VAL111  MET112  CYS114  THR115 
 CYS181  SER182  ILE183  PHE188  VAL189  ILE190  SER192  SER193  SER196  TRP342 
 PHE345  PHE346  HIS349  VAL350  TYR365  THR369  GLY372  TYR373 

> <Gold.Protein.RotatedAtoms>
    3.4944  -10.0575    4.1944 H   0  0  0  0  0  0  0  0  0  0  0  0  # atno 1303 bound_to 1298
    0.9410   -9.2850    8.2913 H   0  0  0  0  0  0  0  0  0  0  0  0  # atno 2461 bound_to 2456
   -3.6631   -5.1215    8.7957 H   0  0  0  0  0  0  0  0  0  0  0  0  # atno 2472 bound_to 2467
    2.0721   -7.6090    5.7090 H   0  0  0  0  0  0  0  0  0  0  0  0  # atno 2515 bound_to 2510
   -2.8954  -17.1646   14.7526 H   0  0  0  0  0  0  0  0  0  0  0  0  # atno 3721 bound_to 3712
   -4.6253  -23.2601   10.1650 H   0  0  0  0  0  0  0  0  0  0  0  0  # atno 3767 bound_to 3762
    2.9047  -19.9853    8.3863 H   0  0  0  0  0  0  0  0  0  0  0  0  # atno 3841 bound_to 3832
    4.0151   -8.5275    3.9619 LP  0  0  0  0  0  0  0  0  0  0  0  0  # atno 4297 bound_to 1298
    4.8528   -9.5360    4.9354 LP  0  0  0  0  0  0  0  0  0  0  0  0  # atno 4298 bound_to 1298
    2.1458   -8.3236    7.7513 LP  0  0  0  0  0  0  0  0  0  0  0  0  # atno 4299 bound_to 2456
    0.6509   -8.1997    7.1058 LP  0  0  0  0  0  0  0  0  0  0  0  0  # atno 4300 bound_to 2456
    2.7699   -8.1974    4.3553 LP  0  0  0  0  0  0  0  0  0  0  0  0  # atno 4301 bound_to 2510
    2.4549   -9.1931    5.6107 LP  0  0  0  0  0  0  0  0  0  0  0  0  # atno 4302 bound_to 2510
   -3.5019  -16.7543   13.3238 LP  0  0  0  0  0  0  0  0  0  0  0  0  # atno 4306 bound_to 3712
   -2.6830  -18.1552   13.5071 LP  0  0  0  0  0  0  0  0  0  0  0  0  # atno 4307 bound_to 3712
    2.4596  -21.1519    9.3947 LP  0  0  0  0  0  0  0  0  0  0  0  0  # atno 4314 bound_to 3832
    1.4143  -19.9674    8.9815 LP  0  0  0  0  0  0  0  0  0  0  0  0  # atno 4315 bound_to 3832
   -5.4419  -22.0319   10.8662 LP  0  0  0  0  0  0  0  0  0  0  0  0  # atno 4318 bound_to 3762
   -4.0601  -22.5833   11.5396 LP  0  0  0  0  0  0  0  0  0  0  0  0  # atno 4319 bound_to 3762
   -5.2260   -5.4238    9.1594 LP  0  0  0  0  0  0  0  0  0  0  0  0  # atno 4320 bound_to 2467
   -4.8276   -4.8482    7.6841 LP  0  0  0  0  0  0  0  0  0  0  0  0  # atno 4321 bound_to 2467

> <Gold.Score>
     Score     S(PLP)   S(hbond)     S(cho)   S(metal)  DE(clash)   DE(tors)     intcor
     55.68     -50.41       1.00       1.00       0.00       0.04       1.00       1.31

> <Gold.PLP.Fitness>
55.6797

> <Gold.PLP.PLP>
-50.4076

> <Gold.PLP.part.hbond>
-1.0000

> <Gold.PLP.part.metal>
0.0000

> <Gold.PLP.part.buried>
-5.0474

> <Gold.PLP.part.nonpolar>
-45.0285

> <Gold.PLP.part.repulsive>
0.1541

> <Gold.PLP.ligand.clash>
0.0393

> <Gold.PLP.ligand.torsion>
1.0009

> <Gold.PLP.Chemscore.Hbond>
1.0000

> <Gold.PLP.Chemscore.CHOScore>
1.0000

> <Gold.PLP.Chemscore.Metal>
0.0000

> <Gold.Chemscore.Hbonds>
donor molecule, donor type, donor heavy atom, donor atom, acceptor molecule, acceptor atom, score
      P1  H  2456  2461       L1     1  1.00
      L1  C    12    22       P1  2398  1.00

> <Gold.PLP.Chemscore.Internal.Correction>
1.3133

