#       Name:                EN300-306118_i001
#       Creating user name   fsindt
#       Creation time:       Tue Feb 28 18:27:04 2023


#       File generated by GOLD software.
#

@<TRIPOS>MOLECULE
EN300-306118_i001|acide_2|mol2|6465|dock11
    23    24     1
SMALL
USER_CHARGES


@<TRIPOS>ATOM
      1 O1           0.2935 -10.7796   7.3378 O.co2          1 <1>               -1.0000
      2 C2           0.8678 -11.7945   6.9698 C.2            1 <1>                0.0000
      3 O3           1.6660 -11.7440   6.0446 O.co2          1 <1>                0.0000
      4 C4           0.6021 -13.0787   7.6457 C.ar           1 <1>                0.0000
      5 C5           0.4712 -14.2515   6.8981 C.ar           1 <1>                0.0000
      6 C6           0.2227 -15.4486   7.5369 C.ar           1 <1>                0.0000
      7 C7           0.1028 -15.4894   8.9147 C.ar           1 <1>                0.0000
      8 C8           0.2314 -14.3315   9.6619 C.ar           1 <1>                0.0000
      9 C9           0.4860 -13.1287   9.0374 C.ar           1 <1>                0.0000
     10 C10          0.6262 -11.8690   9.8528 C.3            1 <1>                0.0000
     11 N11         -0.7028 -11.3784  10.2260 N.pl3          1 <1>                0.0000
     12 C12         -1.8685 -11.7121   9.6255 C.2            1 <1>                0.0000
     13 C13         -2.8388 -11.0362  10.2839 C.2            1 <1>                0.0000
     14 N14         -2.2273 -10.3311  11.2423 N.2            1 <1>                0.0000
     15 N15         -0.9627 -10.5601  11.1849 N.2            1 <1>                0.0000
     16 H16          0.5638 -14.2209   5.8225 H              1 <1>                0.0000
     17 H17          0.1212 -16.3560   6.9602 H              1 <1>                0.0000
     18 H18         -0.0924 -16.4294   9.4095 H              1 <1>                0.0000
     19 H19          0.1363 -14.3708  10.7370 H              1 <1>                0.0000
     20 H20          1.2013 -12.0817  10.7539 H              1 <1>                0.0000
     21 H21          1.1413 -11.1104   9.2636 H              1 <1>                0.0000
     22 H22         -1.9985 -12.3828   8.7891 H              1 <1>                0.0000
     23 H23         -3.8983 -11.0607  10.0762 H              1 <1>                0.0000
@<TRIPOS>BOND
    1    1    2 ar    
    2    2    3 ar    
    3    2    4 1     
    4    4    5 ar    
    5    4    9 ar    
    6    5    6 ar    
    7    5   16 1     
    8    6    7 ar    
    9    6   17 1     
   10    7    8 ar    
   11    7   18 1     
   12    8    9 ar    
   13    8   19 1     
   14    9   10 1     
   15   10   11 1     
   16   10   20 1     
   17   10   21 1     
   18   11   12 1     
   19   11   15 1     
   20   12   13 2     
   21   12   22 1     
   22   13   14 1     
   23   13   23 1     
   24   14   15 2     
@<TRIPOS>SUBSTRUCTURE
      1 ****           1
@<TRIPOS>COMMENT
> <Gold.Version>
2022.2.0

> <Gold.Id.Protein>
3pbl|protein|mol2

> <Gold.Protein.RotatedTorsions>
[ 1303 1298 1297 1294 ] final  -24.40 input  179.99 | X-H torsion
[ 2461 2456 2455 2452 ] final -118.50 input   30.03 | X-H torsion
[ 2515 2510 2509 2506 ] final -156.15 input  -89.99 | X-H torsion
[ 3721 3712 3711 3710 ] final   83.25 input -179.91 | X-H torsion
[ 3841 3832 3831 3830 ] final  -86.24 input -179.91 | X-H torsion
[ 3767 3762 3761 3758 ] final -128.15 input  -89.99 | X-H torsion
[ 2472 2467 2466 2463 ] final -173.67 input  -89.97 | X-H torsion

> <Gold.Protein.ActiveResidues>
 VAL82   VAL86   LEU89   PHE106  VAL107  ASP110  VAL111  MET112  CYS114  THR115 
 CYS181  SER182  ILE183  PHE188  VAL189  ILE190  SER192  SER193  SER196  TRP342 
 PHE345  PHE346  HIS349  VAL350  TYR365  THR369  GLY372  TYR373 

> <Gold.Protein.RotatedAtoms>
    3.3302   -9.5195    3.8715 H   0  0  0  0  0  0  0  0  0  0  0  0  # atno 1303 bound_to 1298
    0.5595   -9.1640    8.0372 H   0  0  0  0  0  0  0  0  0  0  0  0  # atno 2461 bound_to 2456
   -5.2837   -5.4092    9.0992 H   0  0  0  0  0  0  0  0  0  0  0  0  # atno 2472 bound_to 2467
    2.4902   -9.2191    5.5409 H   0  0  0  0  0  0  0  0  0  0  0  0  # atno 2515 bound_to 2510
   -2.7356  -17.6921   13.1504 H   0  0  0  0  0  0  0  0  0  0  0  0  # atno 3721 bound_to 3712
   -4.7352  -22.0137   11.5745 H   0  0  0  0  0  0  0  0  0  0  0  0  # atno 3767 bound_to 3762
    1.8132  -19.6309    8.7448 H   0  0  0  0  0  0  0  0  0  0  0  0  # atno 3841 bound_to 3832
    4.5468   -8.5333    4.3336 LP  0  0  0  0  0  0  0  0  0  0  0  0  # atno 4297 bound_to 1298
    4.4854  -10.0685    4.8867 LP  0  0  0  0  0  0  0  0  0  0  0  0  # atno 4298 bound_to 1298
    2.1136   -8.6637    8.0798 LP  0  0  0  0  0  0  0  0  0  0  0  0  # atno 4299 bound_to 2456
    1.0645   -7.9806    7.0312 LP  0  0  0  0  0  0  0  0  0  0  0  0  # atno 4300 bound_to 2456
    2.0573   -7.6617    5.7706 LP  0  0  0  0  0  0  0  0  0  0  0  0  # atno 4301 bound_to 2510
    2.7492   -8.1179    4.3636 LP  0  0  0  0  0  0  0  0  0  0  0  0  # atno 4302 bound_to 2510
   -2.8073  -17.7448   14.7535 LP  0  0  0  0  0  0  0  0  0  0  0  0  # atno 4306 bound_to 3712
   -3.5621  -16.5557   13.9271 LP  0  0  0  0  0  0  0  0  0  0  0  0  # atno 4307 bound_to 3712
    3.1114  -20.5185    8.4240 LP  0  0  0  0  0  0  0  0  0  0  0  0  # atno 4314 bound_to 3832
    2.0234  -21.0103    9.5380 LP  0  0  0  0  0  0  0  0  0  0  0  0  # atno 4315 bound_to 3832
   -4.0018  -23.2449   10.7914 LP  0  0  0  0  0  0  0  0  0  0  0  0  # atno 4318 bound_to 3762
   -5.3904  -22.6163   10.2054 LP  0  0  0  0  0  0  0  0  0  0  0  0  # atno 4319 bound_to 3762
   -4.7459   -4.8337    7.6688 LP  0  0  0  0  0  0  0  0  0  0  0  0  # atno 4320 bound_to 2467
   -3.6875   -5.1507    8.8713 LP  0  0  0  0  0  0  0  0  0  0  0  0  # atno 4321 bound_to 2467

> <Gold.Score>
     Score     S(PLP)   S(hbond)     S(cho)   S(metal)  DE(clash)   DE(tors)     intcor
     48.44     -47.07       0.82       0.00       0.00       0.00       1.20       1.31

> <Gold.PLP.Fitness>
48.4366

> <Gold.PLP.PLP>
-47.0657

> <Gold.PLP.part.hbond>
-1.0000

> <Gold.PLP.part.metal>
0.0000

> <Gold.PLP.part.buried>
-6.4472

> <Gold.PLP.part.nonpolar>
-41.3001

> <Gold.PLP.part.repulsive>
0.2178

> <Gold.PLP.ligand.clash>
0.0000

> <Gold.PLP.ligand.torsion>
1.1952

> <Gold.PLP.Chemscore.Hbond>
0.8160

> <Gold.PLP.Chemscore.CHOScore>
0.0000

> <Gold.PLP.Chemscore.Metal>
0.0000

> <Gold.Chemscore.Hbonds>
donor molecule, donor type, donor heavy atom, donor atom, acceptor molecule, acceptor atom, score
      P1  H  2456  2461       L1     1  0.82

> <Gold.PLP.Chemscore.Internal.Correction>
1.3133

