#       Name:                EN300-306118_i001
#       Creating user name   fsindt
#       Creation time:       Tue Feb 28 18:26:57 2023


#       File generated by GOLD software.
#

@<TRIPOS>MOLECULE
EN300-306118_i001|acide_2|mol2|6465|dock1
    23    24     1
SMALL
USER_CHARGES


@<TRIPOS>ATOM
      1 O1          -0.9449 -11.4199   9.9751 O.co2          1 <1>               -1.0000
      2 C2          -0.0077 -11.6802   9.2339 C.2            1 <1>                0.0000
      3 O3           0.7862 -10.8040   8.9214 O.co2          1 <1>                0.0000
      4 C4           0.1686 -13.0524   8.7217 C.ar           1 <1>                0.0000
      5 C5           0.5169 -13.2635   7.3854 C.ar           1 <1>                0.0000
      6 C6           0.6800 -14.5493   6.9134 C.ar           1 <1>                0.0000
      7 C7           0.4991 -15.6286   7.7600 C.ar           1 <1>                0.0000
      8 C8           0.1540 -15.4272   9.0851 C.ar           1 <1>                0.0000
      9 C9          -0.0063 -14.1472   9.5723 C.ar           1 <1>                0.0000
     10 C10         -0.3815 -13.9299  11.0157 C.3            1 <1>                0.0000
     11 N11          0.0782 -15.0674  11.8163 N.pl3          1 <1>                0.0000
     12 C12         -0.7093 -15.9023  12.5329 C.2            1 <1>                0.0000
     13 C13          0.1215 -16.8006  13.1115 C.2            1 <1>                0.0000
     14 N14          1.3605 -16.4754  12.7257 N.2            1 <1>                0.0000
     15 N15          1.3001 -15.4476  11.9546 N.2            1 <1>                0.0000
     16 H16          0.6577 -12.4218   6.7234 H              1 <1>                0.0000
     17 H17          0.9491 -14.7140   5.8805 H              1 <1>                0.0000
     18 H18          0.6274 -16.6333   7.3847 H              1 <1>                0.0000
     19 H19          0.0141 -16.2744   9.7401 H              1 <1>                0.0000
     20 H20          0.0881 -13.0161  11.3796 H              1 <1>                0.0000
     21 H21         -1.4645 -13.8403  11.1000 H              1 <1>                0.0000
     22 H22         -1.7846 -15.8603  12.6249 H              1 <1>                0.0000
     23 H23         -0.1602 -17.6186  13.7579 H              1 <1>                0.0000
@<TRIPOS>BOND
    1    1    2 ar    
    2    2    3 ar    
    3    2    4 1     
    4    4    5 ar    
    5    4    9 ar    
    6    5    6 ar    
    7    5   16 1     
    8    6    7 ar    
    9    6   17 1     
   10    7    8 ar    
   11    7   18 1     
   12    8    9 ar    
   13    8   19 1     
   14    9   10 1     
   15   10   11 1     
   16   10   20 1     
   17   10   21 1     
   18   11   12 1     
   19   11   15 1     
   20   12   13 2     
   21   12   22 1     
   22   13   14 1     
   23   13   23 1     
   24   14   15 2     
@<TRIPOS>SUBSTRUCTURE
      1 ****           1
@<TRIPOS>COMMENT
> <Gold.Version>
2022.2.0

> <Gold.Id.Protein>
3pbl|protein|mol2

> <Gold.Protein.RotatedTorsions>
[ 1303 1298 1297 1294 ] final  -36.23 input  179.99 | X-H torsion
[ 2461 2456 2455 2452 ] final -151.33 input   30.03 | X-H torsion
[ 2515 2510 2509 2506 ] final   -3.97 input  -89.99 | X-H torsion
[ 3721 3712 3711 3710 ] final  -47.32 input -179.91 | X-H torsion
[ 3841 3832 3831 3830 ] final -146.67 input -179.91 | X-H torsion
[ 3767 3762 3761 3758 ] final  102.05 input  -89.99 | X-H torsion
[ 2472 2467 2466 2463 ] final -179.28 input  -89.97 | X-H torsion

> <Gold.Protein.ActiveResidues>
 VAL82   VAL86   LEU89   PHE106  VAL107  ASP110  VAL111  MET112  CYS114  THR115 
 CYS181  SER182  ILE183  PHE188  VAL189  ILE190  SER192  SER193  SER196  TRP342 
 PHE345  PHE346  HIS349  VAL350  TYR365  THR369  GLY372  TYR373 

> <Gold.Protein.RotatedAtoms>
    3.3543   -9.3347    3.8165 H   0  0  0  0  0  0  0  0  0  0  0  0  # atno 1303 bound_to 1298
    0.9976   -9.2882    8.3142 H   0  0  0  0  0  0  0  0  0  0  0  0  # atno 2461 bound_to 2456
   -5.3400   -5.3900    9.0286 H   0  0  0  0  0  0  0  0  0  0  0  0  # atno 2472 bound_to 2467
    2.5675   -7.6722    4.5669 H   0  0  0  0  0  0  0  0  0  0  0  0  # atno 2515 bound_to 2510
   -2.7100  -17.4946   14.7114 H   0  0  0  0  0  0  0  0  0  0  0  0  # atno 3721 bound_to 3712
   -4.0760  -23.2947   10.6573 H   0  0  0  0  0  0  0  0  0  0  0  0  # atno 3767 bound_to 3762
    2.5853  -19.7270    8.3528 H   0  0  0  0  0  0  0  0  0  0  0  0  # atno 3841 bound_to 3832
    4.6745   -8.6161    4.4545 LP  0  0  0  0  0  0  0  0  0  0  0  0  # atno 4297 bound_to 1298
    4.3337  -10.1705    4.8208 LP  0  0  0  0  0  0  0  0  0  0  0  0  # atno 4298 bound_to 1298
    2.1330   -8.2835    7.7068 LP  0  0  0  0  0  0  0  0  0  0  0  0  # atno 4299 bound_to 2456
    0.6070   -8.2366    7.1273 LP  0  0  0  0  0  0  0  0  0  0  0  0  # atno 4300 bound_to 2456
    2.6939   -9.2236    5.0598 LP  0  0  0  0  0  0  0  0  0  0  0  0  # atno 4301 bound_to 2510
    2.0352   -8.1036    6.0489 LP  0  0  0  0  0  0  0  0  0  0  0  0  # atno 4302 bound_to 2510
   -3.5658  -16.5840   13.7033 LP  0  0  0  0  0  0  0  0  0  0  0  0  # atno 4306 bound_to 3712
   -2.8332  -17.9445   13.1751 LP  0  0  0  0  0  0  0  0  0  0  0  0  # atno 4307 bound_to 3712
    2.8280  -21.1105    9.1295 LP  0  0  0  0  0  0  0  0  0  0  0  0  # atno 4314 bound_to 3832
    1.4149  -20.3071    9.2853 LP  0  0  0  0  0  0  0  0  0  0  0  0  # atno 4315 bound_to 3832
   -5.4525  -22.4956   10.2918 LP  0  0  0  0  0  0  0  0  0  0  0  0  # atno 4318 bound_to 3762
   -4.5987  -22.0850   11.6219 LP  0  0  0  0  0  0  0  0  0  0  0  0  # atno 4319 bound_to 3762
   -4.6549   -4.8206    7.6601 LP  0  0  0  0  0  0  0  0  0  0  0  0  # atno 4320 bound_to 2467
   -3.7221   -5.1830    8.9505 LP  0  0  0  0  0  0  0  0  0  0  0  0  # atno 4321 bound_to 2467

> <Gold.Score>
     Score     S(PLP)   S(hbond)     S(cho)   S(metal)  DE(clash)   DE(tors)     intcor
     44.92     -41.43       1.00       0.43       0.00       0.00       1.05       1.31

> <Gold.PLP.Fitness>
44.9189

> <Gold.PLP.PLP>
-41.4289

> <Gold.PLP.part.hbond>
-1.0000

> <Gold.PLP.part.metal>
0.0000

> <Gold.PLP.part.buried>
-5.4169

> <Gold.PLP.part.nonpolar>
-36.1310

> <Gold.PLP.part.repulsive>
0.1620

> <Gold.PLP.ligand.clash>
0.0000

> <Gold.PLP.ligand.torsion>
1.0498

> <Gold.PLP.Chemscore.Hbond>
1.0000

> <Gold.PLP.Chemscore.CHOScore>
0.4254

> <Gold.PLP.Chemscore.Metal>
0.0000

> <Gold.Chemscore.Hbonds>
donor molecule, donor type, donor heavy atom, donor atom, acceptor molecule, acceptor atom, score
      P1  H  2456  2461       L1     3  1.00
      L1  C    12    22       P1  3712  0.43

> <Gold.PLP.Chemscore.Internal.Correction>
1.3133

