#       Name:                EN300-306118_i001
#       Creating user name   fsindt
#       Creation time:       Tue Feb 28 18:26:59 2023


#       File generated by GOLD software.
#

@<TRIPOS>MOLECULE
EN300-306118_i001|acide_2|mol2|6465|dock3
    23    24     1
SMALL
USER_CHARGES


@<TRIPOS>ATOM
      1 O1           0.2005 -10.6095   7.4503 O.co2          1 <1>               -1.0000
      2 C2           0.8467 -11.5639   7.0416 C.2            1 <1>                0.0000
      3 O3           1.6763 -11.4068   6.1570 O.co2          1 <1>                0.0000
      4 C4           0.6296 -12.9037   7.6200 C.ar           1 <1>                0.0000
      5 C5           0.5973 -14.0286   6.7924 C.ar           1 <1>                0.0000
      6 C6           0.3938 -15.2781   7.3402 C.ar           1 <1>                0.0000
      7 C7           0.2215 -15.4187   8.7058 C.ar           1 <1>                0.0000
      8 C8           0.2523 -14.3087   9.5319 C.ar           1 <1>                0.0000
      9 C9           0.4611 -13.0541   8.9990 C.ar           1 <1>                0.0000
     10 C10          0.4949 -11.8467   9.9003 C.3            1 <1>                0.0000
     11 N11         -0.8357 -11.2355   9.9479 N.pl3          1 <1>                0.0000
     12 C12         -1.1646 -10.1030  10.6113 C.2            1 <1>                0.0000
     13 C13         -2.4846  -9.9047  10.3875 C.2            1 <1>                0.0000
     14 N14         -2.8934 -10.9124   9.6084 N.2            1 <1>                0.0000
     15 N15         -1.8915 -11.6805   9.3613 N.2            1 <1>                0.0000
     16 H16          0.7309 -13.9202   5.7261 H              1 <1>                0.0000
     17 H17          0.3685 -16.1487   6.7015 H              1 <1>                0.0000
     18 H18          0.0618 -16.3995   9.1291 H              1 <1>                0.0000
     19 H19          0.1168 -14.4259  10.5969 H              1 <1>                0.0000
     20 H20          0.7911 -12.1509  10.9041 H              1 <1>                0.0000
     21 H21          1.2130 -11.1241   9.5128 H              1 <1>                0.0000
     22 H22         -0.5063  -9.4823  11.2010 H              1 <1>                0.0000
     23 H23         -3.0892  -9.0929  10.7641 H              1 <1>                0.0000
@<TRIPOS>BOND
    1    1    2 ar    
    2    2    3 ar    
    3    2    4 1     
    4    4    5 ar    
    5    4    9 ar    
    6    5    6 ar    
    7    5   16 1     
    8    6    7 ar    
    9    6   17 1     
   10    7    8 ar    
   11    7   18 1     
   12    8    9 ar    
   13    8   19 1     
   14    9   10 1     
   15   10   11 1     
   16   10   20 1     
   17   10   21 1     
   18   11   12 1     
   19   11   15 1     
   20   12   13 2     
   21   12   22 1     
   22   13   14 1     
   23   13   23 1     
   24   14   15 2     
@<TRIPOS>SUBSTRUCTURE
      1 ****           1
@<TRIPOS>COMMENT
> <Gold.Version>
2022.2.0

> <Gold.Id.Protein>
3pbl|protein|mol2

> <Gold.Protein.RotatedTorsions>
[ 1303 1298 1297 1294 ] final   19.02 input  179.99 | X-H torsion
[ 2461 2456 2455 2452 ] final -117.80 input   30.03 | X-H torsion
[ 2515 2510 2509 2506 ] final -164.28 input  -89.99 | X-H torsion
[ 3721 3712 3711 3710 ] final   42.65 input -179.91 | X-H torsion
[ 3841 3832 3831 3830 ] final  -38.19 input -179.91 | X-H torsion
[ 3767 3762 3761 3758 ] final  -26.09 input  -89.99 | X-H torsion
[ 2472 2467 2466 2463 ] final  125.60 input  -89.97 | X-H torsion

> <Gold.Protein.ActiveResidues>
 VAL82   VAL86   LEU89   PHE106  VAL107  ASP110  VAL111  MET112  CYS114  THR115 
 CYS181  SER182  ILE183  PHE188  VAL189  ILE190  SER192  SER193  SER196  TRP342 
 PHE345  PHE346  HIS349  VAL350  TYR365  THR369  GLY372  TYR373 

> <Gold.Protein.RotatedAtoms>
    3.5221  -10.0887    4.2257 H   0  0  0  0  0  0  0  0  0  0  0  0  # atno 1303 bound_to 1298
    0.5522   -9.1592    8.0298 H   0  0  0  0  0  0  0  0  0  0  0  0  # atno 2461 bound_to 2456
   -5.4531   -5.1077    8.2109 H   0  0  0  0  0  0  0  0  0  0  0  0  # atno 2472 bound_to 2467
    2.4331   -9.1729    5.6526 H   0  0  0  0  0  0  0  0  0  0  0  0  # atno 2515 bound_to 2510
   -2.5157  -18.0039   13.6147 H   0  0  0  0  0  0  0  0  0  0  0  0  # atno 3721 bound_to 3712
   -5.4875  -22.3974   10.3759 H   0  0  0  0  0  0  0  0  0  0  0  0  # atno 3767 bound_to 3762
    1.5613  -20.0361    9.2637 H   0  0  0  0  0  0  0  0  0  0  0  0  # atno 3841 bound_to 3832
    3.9720   -8.5454    3.9388 LP  0  0  0  0  0  0  0  0  0  0  0  0  # atno 4297 bound_to 1298
    4.8683   -9.4870    4.9271 LP  0  0  0  0  0  0  0  0  0  0  0  0  # atno 4298 bound_to 1298
    2.1100   -8.6720    8.0868 LP  0  0  0  0  0  0  0  0  0  0  0  0  # atno 4299 bound_to 2456
    1.0754   -7.9772    7.0316 LP  0  0  0  0  0  0  0  0  0  0  0  0  # atno 4300 bound_to 2456
    2.0822   -7.5785    5.6689 LP  0  0  0  0  0  0  0  0  0  0  0  0  # atno 4301 bound_to 2510
    2.7814   -8.2473    4.3535 LP  0  0  0  0  0  0  0  0  0  0  0  0  # atno 4302 bound_to 2510
   -3.1286  -17.1702   14.8425 LP  0  0  0  0  0  0  0  0  0  0  0  0  # atno 4306 bound_to 3712
   -3.4947  -16.7703   13.3021 LP  0  0  0  0  0  0  0  0  0  0  0  0  # atno 4307 bound_to 3712
    2.7019  -19.9186    8.1405 LP  0  0  0  0  0  0  0  0  0  0  0  0  # atno 4314 bound_to 3832
    2.7239  -21.1419    9.2221 LP  0  0  0  0  0  0  0  0  0  0  0  0  # atno 4315 bound_to 3832
   -4.4874  -22.1558   11.6441 LP  0  0  0  0  0  0  0  0  0  0  0  0  # atno 4318 bound_to 3762
   -4.1528  -23.3218   10.5509 LP  0  0  0  0  0  0  0  0  0  0  0  0  # atno 4319 bound_to 3762
   -3.8533   -4.8557    8.0024 LP  0  0  0  0  0  0  0  0  0  0  0  0  # atno 4320 bound_to 2467
   -4.4107   -5.4301    9.4258 LP  0  0  0  0  0  0  0  0  0  0  0  0  # atno 4321 bound_to 2467

> <Gold.Score>
     Score     S(PLP)   S(hbond)     S(cho)   S(metal)  DE(clash)   DE(tors)     intcor
     53.01     -47.52       1.07       1.00       0.00       0.00       1.02       1.31

> <Gold.PLP.Fitness>
53.0064

> <Gold.PLP.PLP>
-47.5247

> <Gold.PLP.part.hbond>
-1.2094

> <Gold.PLP.part.metal>
0.0000

> <Gold.PLP.part.buried>
-5.4540

> <Gold.PLP.part.nonpolar>
-42.5593

> <Gold.PLP.part.repulsive>
0.1400

> <Gold.PLP.ligand.clash>
0.0000

> <Gold.PLP.ligand.torsion>
1.0164

> <Gold.PLP.Chemscore.Hbond>
1.0671

> <Gold.PLP.Chemscore.CHOScore>
1.0000

> <Gold.PLP.Chemscore.Metal>
0.0000

> <Gold.Chemscore.Hbonds>
donor molecule, donor type, donor heavy atom, donor atom, acceptor molecule, acceptor atom, score
      P1  H  2456  2461       L1     1  0.90
      P1  H  2510  2515       L1     3  0.17
      L1  C    13    23       P1  2398  1.00

> <Gold.PLP.Chemscore.Internal.Correction>
1.3133

