#       Name:                EN300-306118_i001
#       Creating user name   fsindt
#       Creation time:       Tue Feb 28 18:27:01 2023


#       File generated by GOLD software.
#

@<TRIPOS>MOLECULE
EN300-306118_i001|acide_2|mol2|6465|dock6
    23    24     1
SMALL
USER_CHARGES


@<TRIPOS>ATOM
      1 O1          -1.2486 -12.9840  11.2797 O.co2          1 <1>               -1.0000
      2 C2          -0.3996 -13.7304  10.8133 C.2            1 <1>                0.0000
      3 O3           0.0088 -14.6778  11.4700 O.co2          1 <1>                0.0000
      4 C4           0.1276 -13.4914   9.4563 C.ar           1 <1>                0.0000
      5 C5           0.3583 -14.5656   8.5936 C.ar           1 <1>                0.0000
      6 C6           0.8514 -14.3346   7.3262 C.ar           1 <1>                0.0000
      7 C7           1.1179 -13.0426   6.9090 C.ar           1 <1>                0.0000
      8 C8           0.8918 -11.9734   7.7582 C.ar           1 <1>                0.0000
      9 C9           0.3932 -12.1888   9.0257 C.ar           1 <1>                0.0000
     10 C10          0.1472 -11.0231   9.9488 C.3            1 <1>                0.0000
     11 N11         -1.2932 -10.7753  10.0492 N.pl3          1 <1>                0.0000
     12 C12         -2.2529 -11.3618   9.2971 C.2            1 <1>                0.0000
     13 C13         -3.4309 -10.8465   9.7198 C.2            1 <1>                0.0000
     14 N14         -3.1380  -9.9810  10.6969 N.2            1 <1>                0.0000
     15 N15         -1.8637  -9.9660  10.8717 N.2            1 <1>                0.0000
     16 H16          0.1514 -15.5747   8.9183 H              1 <1>                0.0000
     17 H17          1.0303 -15.1641   6.6582 H              1 <1>                0.0000
     18 H18          1.5046 -12.8676   5.9157 H              1 <1>                0.0000
     19 H19          1.1024 -10.9676   7.4259 H              1 <1>                0.0000
     20 H20          0.5463 -11.2516  10.9369 H              1 <1>                0.0000
     21 H21          0.6418 -10.1360   9.5534 H              1 <1>                0.0000
     22 H22         -2.1081 -12.0939   8.5164 H              1 <1>                0.0000
     23 H23         -4.4139 -11.0863   9.3423 H              1 <1>                0.0000
@<TRIPOS>BOND
    1    1    2 ar    
    2    2    3 ar    
    3    2    4 1     
    4    4    5 ar    
    5    4    9 ar    
    6    5    6 ar    
    7    5   16 1     
    8    6    7 ar    
    9    6   17 1     
   10    7    8 ar    
   11    7   18 1     
   12    8    9 ar    
   13    8   19 1     
   14    9   10 1     
   15   10   11 1     
   16   10   20 1     
   17   10   21 1     
   18   11   12 1     
   19   11   15 1     
   20   12   13 2     
   21   12   22 1     
   22   13   14 1     
   23   13   23 1     
   24   14   15 2     
@<TRIPOS>SUBSTRUCTURE
      1 ****           1
@<TRIPOS>COMMENT
> <Gold.Version>
2022.2.0

> <Gold.Id.Protein>
3pbl|protein|mol2

> <Gold.Protein.RotatedTorsions>
[ 1303 1298 1297 1294 ] final -101.65 input  179.99 | X-H torsion
[ 2461 2456 2455 2452 ] final   27.34 input   30.03 | X-H torsion
[ 2515 2510 2509 2506 ] final   15.73 input  -89.99 | X-H torsion
[ 3721 3712 3711 3710 ] final   23.06 input -179.91 | X-H torsion
[ 3841 3832 3831 3830 ] final    1.90 input -179.91 | X-H torsion
[ 3767 3762 3761 3758 ] final  113.18 input  -89.99 | X-H torsion
[ 2472 2467 2466 2463 ] final  -68.67 input  -89.97 | X-H torsion

> <Gold.Protein.ActiveResidues>
 VAL82   VAL86   LEU89   PHE106  VAL107  ASP110  VAL111  MET112  CYS114  THR115 
 CYS181  SER182  ILE183  PHE188  VAL189  ILE190  SER192  SER193  SER196  TRP342 
 PHE345  PHE346  HIS349  VAL350  TYR365  THR369  GLY372  TYR373 

> <Gold.Protein.RotatedAtoms>
    3.9807   -8.5415    3.9440 H   0  0  0  0  0  0  0  0  0  0  0  0  # atno 1303 bound_to 1298
    1.4737   -7.9167    7.1103 H   0  0  0  0  0  0  0  0  0  0  0  0  # atno 2461 bound_to 2456
   -3.7979   -5.2366    9.0737 H   0  0  0  0  0  0  0  0  0  0  0  0  # atno 2472 bound_to 2467
    2.4315   -7.4930    4.7978 H   0  0  0  0  0  0  0  0  0  0  0  0  # atno 2515 bound_to 2510
   -2.4731  -18.0332   13.9049 H   0  0  0  0  0  0  0  0  0  0  0  0  # atno 3721 bound_to 3712
   -3.9927  -23.2363   10.8094 H   0  0  0  0  0  0  0  0  0  0  0  0  # atno 3767 bound_to 3762
    1.7535  -20.5082    9.5674 H   0  0  0  0  0  0  0  0  0  0  0  0  # atno 3841 bound_to 3832
    4.8652   -9.4974    4.9290 LP  0  0  0  0  0  0  0  0  0  0  0  0  # atno 4297 bound_to 1298
    3.5163  -10.0827    4.2187 LP  0  0  0  0  0  0  0  0  0  0  0  0  # atno 4298 bound_to 1298
    0.3643   -8.9359    7.7411 LP  0  0  0  0  0  0  0  0  0  0  0  0  # atno 4299 bound_to 2456
    1.8998   -8.9553    8.2965 LP  0  0  0  0  0  0  0  0  0  0  0  0  # atno 4300 bound_to 2456
    2.7822   -9.0875    4.7810 LP  0  0  0  0  0  0  0  0  0  0  0  0  # atno 4301 bound_to 2510
    2.0830   -8.4190    6.0966 LP  0  0  0  0  0  0  0  0  0  0  0  0  # atno 4302 bound_to 2510
   -3.2866  -16.9136   14.7188 LP  0  0  0  0  0  0  0  0  0  0  0  0  # atno 4306 bound_to 3712
   -3.3858  -16.9931   13.0908 LP  0  0  0  0  0  0  0  0  0  0  0  0  # atno 4307 bound_to 3712
    2.1161  -19.6486    8.2614 LP  0  0  0  0  0  0  0  0  0  0  0  0  # atno 4314 bound_to 3832
    3.0877  -20.8666    8.7504 LP  0  0  0  0  0  0  0  0  0  0  0  0  # atno 4315 bound_to 3832
   -5.3803  -22.6329   10.1950 LP  0  0  0  0  0  0  0  0  0  0  0  0  # atno 4318 bound_to 3762
   -4.7541  -22.0061   11.5667 LP  0  0  0  0  0  0  0  0  0  0  0  0  # atno 4319 bound_to 3762
   -5.4176   -5.3517    8.9010 LP  0  0  0  0  0  0  0  0  0  0  0  0  # atno 4320 bound_to 2467
   -4.5013   -4.8053    7.6646 LP  0  0  0  0  0  0  0  0  0  0  0  0  # atno 4321 bound_to 2467

> <Gold.Score>
     Score     S(PLP)   S(hbond)     S(cho)   S(metal)  DE(clash)   DE(tors)     intcor
     48.77     -49.22       0.00       0.00       0.00       0.00       0.88       1.31

> <Gold.PLP.Fitness>
48.7731

> <Gold.PLP.PLP>
-49.2183

> <Gold.PLP.part.hbond>
0.0000

> <Gold.PLP.part.metal>
0.0000

> <Gold.PLP.part.buried>
-6.4258

> <Gold.PLP.part.nonpolar>
-44.2050

> <Gold.PLP.part.repulsive>
0.2903

> <Gold.PLP.ligand.clash>
0.0000

> <Gold.PLP.ligand.torsion>
0.8792

> <Gold.PLP.Chemscore.Hbond>
0.0000

> <Gold.PLP.Chemscore.CHOScore>
0.0000

> <Gold.PLP.Chemscore.Metal>
0.0000

> <Gold.PLP.Chemscore.Internal.Correction>
1.3133

