#       Name:                EN300-306118_i001
#       Creating user name   fsindt
#       Creation time:       Tue Feb 28 18:27:03 2023


#       File generated by GOLD software.
#

@<TRIPOS>MOLECULE
EN300-306118_i001|acide_2|mol2|6465|dock9
    23    24     1
SMALL
USER_CHARGES


@<TRIPOS>ATOM
      1 O1           0.6457 -13.2500   7.3337 O.co2          1 <1>               -1.0000
      2 C2           0.8657 -13.5434   8.5003 C.2            1 <1>                0.0000
      3 O3           1.7126 -14.3833   8.7702 O.co2          1 <1>                0.0000
      4 C4           0.1136 -12.8799   9.5823 C.ar           1 <1>                0.0000
      5 C5          -0.1615 -11.5122   9.5094 C.ar           1 <1>                0.0000
      6 C6          -0.8651 -10.8985  10.5247 C.ar           1 <1>                0.0000
      7 C7          -1.2977 -11.6341  11.6138 C.ar           1 <1>                0.0000
      8 C8          -1.0288 -12.9894  11.6929 C.ar           1 <1>                0.0000
      9 C9          -0.3319 -13.6176  10.6823 C.ar           1 <1>                0.0000
     10 C10         -0.0406 -15.0936  10.7700 C.3            1 <1>                0.0000
     11 N11          0.5068 -15.4056  12.0926 N.pl3          1 <1>                0.0000
     12 C12          1.7484 -15.8808  12.3448 C.2            1 <1>                0.0000
     13 C13          1.8314 -16.0248  13.6880 C.2            1 <1>                0.0000
     14 N14          0.6520 -15.6359  14.1853 N.2            1 <1>                0.0000
     15 N15         -0.1088 -15.2697  13.2148 N.2            1 <1>                0.0000
     16 H16          0.1762 -10.9367   8.6601 H              1 <1>                0.0000
     17 H17         -1.0785  -9.8412  10.4697 H              1 <1>                0.0000
     18 H18         -1.8476 -11.1481  12.4063 H              1 <1>                0.0000
     19 H19         -1.3693 -13.5573  12.5461 H              1 <1>                0.0000
     20 H20         -0.9618 -15.6555  10.6162 H              1 <1>                0.0000
     21 H21          0.6841 -15.3670  10.0031 H              1 <1>                0.0000
     22 H22          2.5182 -16.1010  11.6200 H              1 <1>                0.0000
     23 H23          2.6821 -16.3835  14.2482 H              1 <1>                0.0000
@<TRIPOS>BOND
    1    1    2 ar    
    2    2    3 ar    
    3    2    4 1     
    4    4    5 ar    
    5    4    9 ar    
    6    5    6 ar    
    7    5   16 1     
    8    6    7 ar    
    9    6   17 1     
   10    7    8 ar    
   11    7   18 1     
   12    8    9 ar    
   13    8   19 1     
   14    9   10 1     
   15   10   11 1     
   16   10   20 1     
   17   10   21 1     
   18   11   12 1     
   19   11   15 1     
   20   12   13 2     
   21   12   22 1     
   22   13   14 1     
   23   13   23 1     
   24   14   15 2     
@<TRIPOS>SUBSTRUCTURE
      1 ****           1
@<TRIPOS>COMMENT
> <Gold.Version>
2022.2.0

> <Gold.Id.Protein>
3pbl|protein|mol2

> <Gold.Protein.RotatedTorsions>
[ 1303 1298 1297 1294 ] final  153.46 input  179.99 | X-H torsion
[ 2461 2456 2455 2452 ] final  -80.09 input   30.03 | X-H torsion
[ 2515 2510 2509 2506 ] final -157.70 input  -89.99 | X-H torsion
[ 3721 3712 3711 3710 ] final   14.04 input -179.91 | X-H torsion
[ 3841 3832 3831 3830 ] final -109.65 input -179.91 | X-H torsion
[ 3767 3762 3761 3758 ] final   96.38 input  -89.99 | X-H torsion
[ 2472 2467 2466 2463 ] final  -54.84 input  -89.97 | X-H torsion

> <Gold.Protein.ActiveResidues>
 VAL82   VAL86   LEU89   PHE106  VAL107  ASP110  VAL111  MET112  CYS114  THR115 
 CYS181  SER182  ILE183  PHE188  VAL189  ILE190  SER192  SER193  SER196  TRP342 
 PHE345  PHE346  HIS349  VAL350  TYR365  THR369  GLY372  TYR373 

> <Gold.Protein.RotatedAtoms>
    4.9090   -9.2611    4.8683 H   0  0  0  0  0  0  0  0  0  0  0  0  # atno 1303 bound_to 1298
    0.3316   -8.7974    7.5914 H   0  0  0  0  0  0  0  0  0  0  0  0  # atno 2461 bound_to 2456
   -3.6939   -5.1581    8.8878 H   0  0  0  0  0  0  0  0  0  0  0  0  # atno 2472 bound_to 2467
    2.4794   -9.2117    5.5627 H   0  0  0  0  0  0  0  0  0  0  0  0  # atno 2515 bound_to 2510
   -2.4701  -18.0173   14.0402 H   0  0  0  0  0  0  0  0  0  0  0  0  # atno 3721 bound_to 3712
   -4.1278  -23.3148   10.5824 H   0  0  0  0  0  0  0  0  0  0  0  0  # atno 3767 bound_to 3762
    2.0863  -19.5797    8.5300 H   0  0  0  0  0  0  0  0  0  0  0  0  # atno 3841 bound_to 3832
    3.6701  -10.2019    4.3719 LP  0  0  0  0  0  0  0  0  0  0  0  0  # atno 4297 bound_to 1298
    3.7828   -8.6583    3.8512 LP  0  0  0  0  0  0  0  0  0  0  0  0  # atno 4298 bound_to 1298
    1.7447   -9.0749    8.3619 LP  0  0  0  0  0  0  0  0  0  0  0  0  # atno 4299 bound_to 2456
    1.6612   -7.9358    7.1948 LP  0  0  0  0  0  0  0  0  0  0  0  0  # atno 4300 bound_to 2456
    2.0614   -7.6448    5.7521 LP  0  0  0  0  0  0  0  0  0  0  0  0  # atno 4301 bound_to 2510
    2.7559   -8.1423    4.3603 LP  0  0  0  0  0  0  0  0  0  0  0  0  # atno 4302 bound_to 2510
   -3.3527  -16.8122   14.6291 LP  0  0  0  0  0  0  0  0  0  0  0  0  # atno 4306 bound_to 3712
   -3.3232  -17.1128   13.0243 LP  0  0  0  0  0  0  0  0  0  0  0  0  # atno 4307 bound_to 3712
    3.1090  -20.8071    8.6839 LP  0  0  0  0  0  0  0  0  0  0  0  0  # atno 4314 bound_to 3832
    1.7104  -20.7806    9.5263 LP  0  0  0  0  0  0  0  0  0  0  0  0  # atno 4315 bound_to 3832
   -5.4786  -22.4272   10.3496 LP  0  0  0  0  0  0  0  0  0  0  0  0  # atno 4318 bound_to 3762
   -4.5207  -22.1333   11.6390 LP  0  0  0  0  0  0  0  0  0  0  0  0  # atno 4319 bound_to 3762
   -5.2960   -5.4047    9.0851 LP  0  0  0  0  0  0  0  0  0  0  0  0  # atno 4320 bound_to 2467
   -4.7268   -4.8307    7.6662 LP  0  0  0  0  0  0  0  0  0  0  0  0  # atno 4321 bound_to 2467

> <Gold.Score>
     Score     S(PLP)   S(hbond)     S(cho)   S(metal)  DE(clash)   DE(tors)     intcor
     49.19     -43.41       1.00       1.00       0.00       0.00       0.76       1.31

> <Gold.PLP.Fitness>
49.1939

> <Gold.PLP.PLP>
-43.4094

> <Gold.PLP.part.hbond>
-1.0000

> <Gold.PLP.part.metal>
0.0000

> <Gold.PLP.part.buried>
-6.0692

> <Gold.PLP.part.nonpolar>
-37.4542

> <Gold.PLP.part.repulsive>
0.3058

> <Gold.PLP.ligand.clash>
0.0000

> <Gold.PLP.ligand.torsion>
0.7644

> <Gold.PLP.Chemscore.Hbond>
1.0000

> <Gold.PLP.Chemscore.CHOScore>
1.0000

> <Gold.PLP.Chemscore.Metal>
0.0000

> <Gold.Chemscore.Hbonds>
donor molecule, donor type, donor heavy atom, donor atom, acceptor molecule, acceptor atom, score
      P1  H  2305  2313       L1    14  1.00
      L1  C    12    22       P1  1227  1.00

> <Gold.PLP.Chemscore.Internal.Correction>
1.3133

