#       Name:                EN300-306118_i001
#       Creating user name   fsindt
#       Creation time:       Tue Feb 28 18:27:10 2023


#       File generated by GOLD software.
#

@<TRIPOS>MOLECULE
EN300-306118_i001|acide_2|mol2|6465|dock20
    23    24     1
SMALL
USER_CHARGES


@<TRIPOS>ATOM
      1 O1          -2.3331 -11.0855  10.1695 O.co2          1 <1>               -1.0000
      2 C2          -1.4472 -11.6811  10.7662 C.2            1 <1>                0.0000
      3 O3          -1.3073 -11.5216  11.9706 O.co2          1 <1>                0.0000
      4 C4          -0.5513 -12.5966  10.0343 C.ar           1 <1>                0.0000
      5 C5          -0.0648 -12.2433   8.7732 C.ar           1 <1>                0.0000
      6 C6           0.7724 -13.1043   8.0946 C.ar           1 <1>                0.0000
      7 C7           1.1303 -14.3154   8.6599 C.ar           1 <1>                0.0000
      8 C8           0.6522 -14.6721   9.9088 C.ar           1 <1>                0.0000
      9 C9          -0.1806 -13.8186  10.6015 C.ar           1 <1>                0.0000
     10 C10         -0.6996 -14.2086  11.9615 C.3            1 <1>                0.0000
     11 N11         -0.0533 -15.4504  12.3933 N.pl3          1 <1>                0.0000
     12 C12          0.7131 -15.6027  13.4980 C.2            1 <1>                0.0000
     13 C13          1.1020 -16.8990  13.5113 C.2            1 <1>                0.0000
     14 N14          0.5619 -17.4688  12.4282 N.2            1 <1>                0.0000
     15 N15         -0.1212 -16.5853  11.7898 N.2            1 <1>                0.0000
     16 H16         -0.3440 -11.2985   8.3306 H              1 <1>                0.0000
     17 H17          1.1492 -12.8326   7.1197 H              1 <1>                0.0000
     18 H18          1.7856 -14.9859   8.1236 H              1 <1>                0.0000
     19 H19          0.9355 -15.6192  10.3437 H              1 <1>                0.0000
     20 H20         -0.4777 -13.4160  12.6761 H              1 <1>                0.0000
     21 H21         -1.7778 -14.3593  11.9093 H              1 <1>                0.0000
     22 H22          0.9640 -14.8428  14.2232 H              1 <1>                0.0000
     23 H23          1.7261 -17.3790  14.2505 H              1 <1>                0.0000
@<TRIPOS>BOND
    1    1    2 ar    
    2    2    3 ar    
    3    2    4 1     
    4    4    5 ar    
    5    4    9 ar    
    6    5    6 ar    
    7    5   16 1     
    8    6    7 ar    
    9    6   17 1     
   10    7    8 ar    
   11    7   18 1     
   12    8    9 ar    
   13    8   19 1     
   14    9   10 1     
   15   10   11 1     
   16   10   20 1     
   17   10   21 1     
   18   11   12 1     
   19   11   15 1     
   20   12   13 2     
   21   12   22 1     
   22   13   14 1     
   23   13   23 1     
   24   14   15 2     
@<TRIPOS>SUBSTRUCTURE
      1 ****           1
@<TRIPOS>COMMENT
> <Gold.Version>
2022.2.0

> <Gold.Id.Protein>
3pbl|protein|mol2

> <Gold.Protein.RotatedTorsions>
[ 1303 1298 1297 1294 ] final  -39.79 input  179.99 | X-H torsion
[ 2461 2456 2455 2452 ] final  156.61 input   30.03 | X-H torsion
[ 2515 2510 2509 2506 ] final -129.05 input  -89.99 | X-H torsion
[ 3721 3712 3711 3710 ] final   60.14 input -179.91 | X-H torsion
[ 3841 3832 3831 3830 ] final  -27.76 input -179.91 | X-H torsion
[ 3767 3762 3761 3758 ] final   13.13 input  -89.99 | X-H torsion
[ 2472 2467 2466 2463 ] final   84.98 input  -89.97 | X-H torsion

> <Gold.Protein.ActiveResidues>
 VAL82   VAL86   LEU89   PHE106  VAL107  ASP110  VAL111  MET112  CYS114  THR115 
 CYS181  SER182  ILE183  PHE188  VAL189  ILE190  SER192  SER193  SER196  TRP342 
 PHE345  PHE346  HIS349  VAL350  TYR365  THR369  GLY372  TYR373 

> <Gold.Protein.RotatedAtoms>
    3.3680   -9.2790    3.8044 H   0  0  0  0  0  0  0  0  0  0  0  0  # atno 1303 bound_to 1298
    1.7882   -9.0456    8.3478 H   0  0  0  0  0  0  0  0  0  0  0  0  # atno 2461 bound_to 2456
   -5.0314   -4.8976    7.7567 H   0  0  0  0  0  0  0  0  0  0  0  0  # atno 2472 bound_to 2467
    2.6658   -9.2418    5.1363 H   0  0  0  0  0  0  0  0  0  0  0  0  # atno 2515 bound_to 2510
   -2.5920  -17.9068   13.3822 H   0  0  0  0  0  0  0  0  0  0  0  0  # atno 3721 bound_to 3712
   -5.1898  -22.8744   10.0851 H   0  0  0  0  0  0  0  0  0  0  0  0  # atno 3767 bound_to 3762
    1.5764  -20.1574    9.3629 H   0  0  0  0  0  0  0  0  0  0  0  0  # atno 3841 bound_to 3832
    4.7086   -8.6476    4.4904 LP  0  0  0  0  0  0  0  0  0  0  0  0  # atno 4297 bound_to 1298
    4.2858  -10.1948    4.7970 LP  0  0  0  0  0  0  0  0  0  0  0  0  # atno 4298 bound_to 1298
    1.6135   -7.9277    7.1700 LP  0  0  0  0  0  0  0  0  0  0  0  0  # atno 4299 bound_to 2456
    0.3362   -8.8350    7.6305 LP  0  0  0  0  0  0  0  0  0  0  0  0  # atno 4300 bound_to 2456
    2.0303   -8.0251    6.0204 LP  0  0  0  0  0  0  0  0  0  0  0  0  # atno 4301 bound_to 2510
    2.6006   -7.7318    4.5186 LP  0  0  0  0  0  0  0  0  0  0  0  0  # atno 4302 bound_to 2510
   -2.9829  -17.4214   14.8619 LP  0  0  0  0  0  0  0  0  0  0  0  0  # atno 4306 bound_to 3712
   -3.5523  -16.6312   13.5512 LP  0  0  0  0  0  0  0  0  0  0  0  0  # atno 4307 bound_to 3712
    2.5591  -19.8191    8.1398 LP  0  0  0  0  0  0  0  0  0  0  0  0  # atno 4314 bound_to 3832
    2.8492  -21.1014    9.1083 LP  0  0  0  0  0  0  0  0  0  0  0  0  # atno 4315 bound_to 3832
   -5.0248  -21.9242   11.4030 LP  0  0  0  0  0  0  0  0  0  0  0  0  # atno 4318 bound_to 3762
   -3.9129  -23.0765   11.0827 LP  0  0  0  0  0  0  0  0  0  0  0  0  # atno 4319 bound_to 3762
   -3.6346   -5.0435    8.5900 LP  0  0  0  0  0  0  0  0  0  0  0  0  # atno 4320 bound_to 2467
   -5.0510   -5.4524    9.2923 LP  0  0  0  0  0  0  0  0  0  0  0  0  # atno 4321 bound_to 2467

> <Gold.Score>
     Score     S(PLP)   S(hbond)     S(cho)   S(metal)  DE(clash)   DE(tors)     intcor
     43.97     -44.06       0.00       0.00       0.00       0.00       0.69       1.30

> <Gold.PLP.Fitness>
43.9714

> <Gold.PLP.PLP>
-44.0565

> <Gold.PLP.part.hbond>
-0.2002

> <Gold.PLP.part.metal>
0.0000

> <Gold.PLP.part.buried>
-5.8095

> <Gold.PLP.part.nonpolar>
-38.3261

> <Gold.PLP.part.repulsive>
0.2303

> <Gold.PLP.ligand.clash>
0.0000

> <Gold.PLP.ligand.torsion>
0.6911

> <Gold.PLP.Chemscore.Hbond>
0.0000

> <Gold.PLP.Chemscore.CHOScore>
0.0000

> <Gold.PLP.Chemscore.Metal>
0.0000

> <Gold.PLP.Chemscore.Internal.Correction>
1.2971

