#       Name:                EN300-306118_i001
#       Creating user name   fsindt
#       Creation time:       Tue Feb 28 18:27:04 2023


#       File generated by GOLD software.
#

@<TRIPOS>MOLECULE
EN300-306118_i001|acide_2|mol2|6465|dock10
    23    24     1
SMALL
USER_CHARGES


@<TRIPOS>ATOM
      1 O1          -0.6922 -13.8017  11.4451 O.co2          1 <1>               -1.0000
      2 C2           0.1195 -14.4038  10.7566 C.2            1 <1>                0.0000
      3 O3           0.6856 -15.3919  11.2023 O.co2          1 <1>                0.0000
      4 C4           0.4114 -13.9416   9.3863 C.ar           1 <1>                0.0000
      5 C5           0.5717 -14.8674   8.3525 C.ar           1 <1>                0.0000
      6 C6           0.8445 -14.4280   7.0737 C.ar           1 <1>                0.0000
      7 C7           0.9599 -13.0739   6.8139 C.ar           1 <1>                0.0000
      8 C8           0.8024 -12.1509   7.8331 C.ar           1 <1>                0.0000
      9 C9           0.5231 -12.5754   9.1151 C.ar           1 <1>                0.0000
     10 C10          0.3514 -11.5687  10.2234 C.3            1 <1>                0.0000
     11 N11         -1.0436 -11.1231  10.2665 N.pl3          1 <1>                0.0000
     12 C12         -1.4690  -9.8410  10.1885 C.2            1 <1>                0.0000
     13 C13         -2.8194  -9.8863  10.2682 C.2            1 <1>                0.0000
     14 N14         -3.1497 -11.1769  10.3896 N.2            1 <1>                0.0000
     15 N15         -2.0753 -11.8843  10.3797 N.2            1 <1>                0.0000
     16 H16          0.4826 -15.9247   8.5541 H              1 <1>                0.0000
     17 H17          0.9688 -15.1425   6.2735 H              1 <1>                0.0000
     18 H18          1.1744 -12.7356   5.8108 H              1 <1>                0.0000
     19 H19          0.8941 -11.0955   7.6231 H              1 <1>                0.0000
     20 H20          0.6156 -12.0283  11.1758 H              1 <1>                0.0000
     21 H21          1.0008 -10.7127  10.0405 H              1 <1>                0.0000
     22 H22         -0.8546  -8.9590  10.0839 H              1 <1>                0.0000
     23 H23         -3.4970  -9.0458  10.2398 H              1 <1>                0.0000
@<TRIPOS>BOND
    1    1    2 ar    
    2    2    3 ar    
    3    2    4 1     
    4    4    5 ar    
    5    4    9 ar    
    6    5    6 ar    
    7    5   16 1     
    8    6    7 ar    
    9    6   17 1     
   10    7    8 ar    
   11    7   18 1     
   12    8    9 ar    
   13    8   19 1     
   14    9   10 1     
   15   10   11 1     
   16   10   20 1     
   17   10   21 1     
   18   11   12 1     
   19   11   15 1     
   20   12   13 2     
   21   12   22 1     
   22   13   14 1     
   23   13   23 1     
   24   14   15 2     
@<TRIPOS>SUBSTRUCTURE
      1 ****           1
@<TRIPOS>COMMENT
> <Gold.Version>
2022.2.0

> <Gold.Id.Protein>
3pbl|protein|mol2

> <Gold.Protein.RotatedTorsions>
[ 1303 1298 1297 1294 ] final -148.14 input  179.99 | X-H torsion
[ 2461 2456 2455 2452 ] final  175.56 input   30.03 | X-H torsion
[ 2515 2510 2509 2506 ] final  -43.04 input  -89.99 | X-H torsion
[ 3721 3712 3711 3710 ] final   78.98 input -179.91 | X-H torsion
[ 3841 3832 3831 3830 ] final   41.44 input -179.91 | X-H torsion
[ 3767 3762 3761 3758 ] final  171.56 input  -89.99 | X-H torsion
[ 2472 2467 2466 2463 ] final  123.52 input  -89.97 | X-H torsion

> <Gold.Protein.ActiveResidues>
 VAL82   VAL86   LEU89   PHE106  VAL107  ASP110  VAL111  MET112  CYS114  THR115 
 CYS181  SER182  ILE183  PHE188  VAL189  ILE190  SER192  SER193  SER196  TRP342 
 PHE345  PHE346  HIS349  VAL350  TYR365  THR369  GLY372  TYR373 

> <Gold.Protein.RotatedAtoms>
    4.5890   -8.5558    4.3723 H   0  0  0  0  0  0  0  0  0  0  0  0  # atno 1303 bound_to 1298
    1.5193   -9.1917    8.3999 H   0  0  0  0  0  0  0  0  0  0  0  0  # atno 2461 bound_to 2456
   -5.4408   -5.0957    8.1813 H   0  0  0  0  0  0  0  0  0  0  0  0  # atno 2472 bound_to 2467
    2.7769   -8.2275    4.3543 H   0  0  0  0  0  0  0  0  0  0  0  0  # atno 2515 bound_to 2510
   -2.7062  -17.7380   13.1851 H   0  0  0  0  0  0  0  0  0  0  0  0  # atno 3721 bound_to 3712
   -4.0255  -22.6371   11.5064 H   0  0  0  0  0  0  0  0  0  0  0  0  # atno 3767 bound_to 3762
    2.2173  -20.8644    9.5991 H   0  0  0  0  0  0  0  0  0  0  0  0  # atno 3841 bound_to 3832
    4.4386  -10.1043    4.8680 LP  0  0  0  0  0  0  0  0  0  0  0  0  # atno 4297 bound_to 1298
    3.3343   -9.4615    3.8512 LP  0  0  0  0  0  0  0  0  0  0  0  0  # atno 4298 bound_to 1298
    1.8658   -8.0038    7.3341 LP  0  0  0  0  0  0  0  0  0  0  0  0  # atno 4299 bound_to 2456
    0.3528   -8.6128    7.4143 LP  0  0  0  0  0  0  0  0  0  0  0  0  # atno 4300 bound_to 2456
    2.4417   -9.1815    5.6362 LP  0  0  0  0  0  0  0  0  0  0  0  0  # atno 4301 bound_to 2510
    2.0779   -7.5903    5.6851 LP  0  0  0  0  0  0  0  0  0  0  0  0  # atno 4302 bound_to 2510
   -2.8371  -17.6879   14.7846 LP  0  0  0  0  0  0  0  0  0  0  0  0  # atno 4306 bound_to 3712
   -3.5661  -16.5597   13.8560 LP  0  0  0  0  0  0  0  0  0  0  0  0  # atno 4307 bound_to 3712
    1.6028  -19.7263    8.6488 LP  0  0  0  0  0  0  0  0  0  0  0  0  # atno 4314 bound_to 3832
    3.0652  -20.3774    8.3264 LP  0  0  0  0  0  0  0  0  0  0  0  0  # atno 4315 bound_to 3832
   -4.6869  -23.2342   10.1379 LP  0  0  0  0  0  0  0  0  0  0  0  0  # atno 4318 bound_to 3762
   -5.4147  -22.0037   10.9270 LP  0  0  0  0  0  0  0  0  0  0  0  0  # atno 4319 bound_to 3762
   -3.8319   -4.8627    8.0282 LP  0  0  0  0  0  0  0  0  0  0  0  0  # atno 4320 bound_to 2467
   -4.4444   -5.4351    9.4296 LP  0  0  0  0  0  0  0  0  0  0  0  0  # atno 4321 bound_to 2467

> <Gold.Score>
     Score     S(PLP)   S(hbond)     S(cho)   S(metal)  DE(clash)   DE(tors)     intcor
     49.38     -47.39       0.00       0.91       0.00       0.00       1.02       1.31

> <Gold.PLP.Fitness>
49.3811

> <Gold.PLP.PLP>
-47.3884

> <Gold.PLP.part.hbond>
0.0000

> <Gold.PLP.part.metal>
0.0000

> <Gold.PLP.part.buried>
-6.3330

> <Gold.PLP.part.nonpolar>
-42.5190

> <Gold.PLP.part.repulsive>
0.2079

> <Gold.PLP.ligand.clash>
0.0000

> <Gold.PLP.ligand.torsion>
1.0181

> <Gold.PLP.Chemscore.Hbond>
0.0000

> <Gold.PLP.Chemscore.CHOScore>
0.9052

> <Gold.PLP.Chemscore.Metal>
0.0000

> <Gold.Chemscore.Hbonds>
donor molecule, donor type, donor heavy atom, donor atom, acceptor molecule, acceptor atom, score
      L1  C    13    23       P1  2398  0.91

> <Gold.PLP.Chemscore.Internal.Correction>
1.3133

