#       Name:                EN300-6743291_i001
#       Creating user name   aseyller
#       Creation time:       Fri Apr 21 16:40:49 2023


#       File generated by GOLD software.
#

@<TRIPOS>MOLECULE
EN300-6743291_i001|aminophenols|mol2|93|dock11
    26    26     1
SMALL
USER_CHARGES


@<TRIPOS>ATOM
      1 C1          31.9665  37.1196  36.5224 C.3            1 <1>                0.0000
      2 C2          31.5194  36.7036  37.9252 C.3            1 <1>                0.0000
      3 N3          30.4827  37.6233  38.4001 N.pl3          1 <1>                0.0000
      4 S4          29.0060  37.6642  37.6517 S.o2           1 <1>                0.0000
      5 O5          28.7727  39.0206  37.2984 O.2            1 <1>                0.0000
      6 O6          29.0060  36.6036  36.7060 O.2            1 <1>                0.0000
      7 C7          27.7956  37.2503  38.8635 C.ar           1 <1>                0.0000
      8 C8          26.4728  37.5995  38.6642 C.ar           1 <1>                0.0000
      9 C9          25.5185  37.2779  39.6118 C.ar           1 <1>                0.0000
     10 C10         25.8863  36.6036  40.7643 C.ar           1 <1>                0.0000
     11 O11         24.9486  36.2863  41.6971 O.3            1 <1>                0.0000
     12 C12         27.2189  36.2510  40.9658 C.ar           1 <1>                0.0000
     13 N13         27.5964  35.5697  42.1287 N.pl3          1 <1>                0.0000
     14 C14         28.1699  36.5725  40.0084 C.ar           1 <1>                0.0000
     15 H15         32.7379  36.4353  36.1691 H              1 <1>                0.0000
     16 H16         31.1135  37.0868  35.8445 H              1 <1>                0.0000
     17 H17         32.3666  38.1330  36.5540 H              1 <1>                0.0000
     18 H18         31.1193  35.6902  37.8935 H              1 <1>                0.0000
     19 H19         32.3725  36.7364  38.6031 H              1 <1>                0.0000
     20 H20         26.1841  38.1253  37.7660 H              1 <1>                0.0000
     21 H21         24.4862  37.5527  39.4533 H              1 <1>                0.0000
     22 H22         29.2039  36.3006  40.1615 H              1 <1>                0.0000
     23 H23         30.6613  38.2084  39.1529 H              1 <1>                0.0000
     24 H24         25.1652  35.5034  42.2218 H              1 <1>                0.0000
     25 H25         26.9297  35.3424  42.7957 H              1 <1>                0.0000
     26 H26         28.5246  35.3247  42.2677 H              1 <1>                0.0000
@<TRIPOS>BOND
    1    1    2 1     
    2    1   15 1     
    3    1   16 1     
    4    1   17 1     
    5    2    3 1     
    6    2   18 1     
    7    2   19 1     
    8    3    4 1     
    9    3   23 1     
   10    4    5 2     
   11    4    6 2     
   12    4    7 1     
   13    7    8 ar    
   14    7   14 ar    
   15    8    9 ar    
   16    8   20 1     
   17    9   10 ar    
   18    9   21 1     
   19   10   11 1     
   20   10   12 ar    
   21   11   24 1     
   22   12   13 1     
   23   12   14 ar    
   24   13   25 1     
   25   13   26 1     
   26   14   22 1     
@<TRIPOS>SUBSTRUCTURE
      1 ****           1
@<TRIPOS>SET
DONOR_HYDROGENS      STATIC     ATOMS    <user>   **** ""
4 23 24 25 26
ATOM$RED        STATIC     ATOMS    COLORGROUP SYSTEM
4 23 24 25 26
@<TRIPOS>COMMENT
> <Gold.Version>
2022.2.0

> <Gold.Id.Protein>
1qkm|1qkm_protein|mol2

> <Gold.Protein.RotatedTorsions>
[  496  491  490  487 ] final -102.56 input  -89.99 | X-H torsion

> <Gold.Protein.ActiveResidues>
 MET295  LEU298  THR299  LEU301  ALA302  GLU305  TRP335  MET336  LEU339  MET340 
 GLY342  LEU343  ARG346  PHE356  ILE373  ILE376  PHE377  LEU380  LYS471  GLY472 
 MET473  HIS475  LEU476  LEU477  ASN478  MET479  VAL484  VAL487 

> <Gold.Protein.RotatedAtoms>
   36.8731   34.5520   40.9417 H   0  0  0  0  0  0  0  0  0  0  0  0  # atno 496  bound_to 491 

> <Gold.Score>
     Score     S(PLP)   S(hbond)     S(cho)   S(metal)  DE(clash)   DE(tors)     intcor
     45.77     -38.63       2.58       0.00       0.00       0.00       1.78       2.97

> <Gold.PLP.Fitness>
45.7710

> <Gold.PLP.PLP>
-38.6287

> <Gold.PLP.part.hbond>
-3.5412

> <Gold.PLP.part.metal>
0.0000

> <Gold.PLP.part.buried>
-2.4356

> <Gold.PLP.part.nonpolar>
-32.9357

> <Gold.PLP.part.repulsive>
0.0642

> <Gold.PLP.ligand.clash>
0.0000

> <Gold.PLP.ligand.torsion>
1.7768

> <Gold.PLP.Chemscore.Hbond>
2.5760

> <Gold.PLP.Chemscore.CHOScore>
0.0000

> <Gold.PLP.Chemscore.Metal>
0.0000

> <Gold.Chemscore.Hbonds>
donor molecule, donor type, donor heavy atom, donor atom, acceptor molecule, acceptor atom, score
      L1  H    11    24       P1   582  1.00
      L1  H    13    25       P1   582  0.99
      P1  H  1258  1270       L1    11  0.58

> <Gold.PLP.Chemscore.Internal.Correction>
2.9679

