#       Name:                EN300-6743291_i001
#       Creating user name   aseyller
#       Creation time:       Fri Apr 21 16:40:54 2023


#       File generated by GOLD software.
#

@<TRIPOS>MOLECULE
EN300-6743291_i001|aminophenols|mol2|93|dock15
    26    26     1
SMALL
USER_CHARGES


@<TRIPOS>ATOM
      1 C1          32.2411  36.1436  37.5633 C.3            1 <1>                0.0000
      2 C2          31.4025  36.4334  36.3168 C.3            1 <1>                0.0000
      3 N3          29.9921  36.5538  36.6943 N.pl3          1 <1>                0.0000
      4 S4          29.4852  37.8421  37.6030 S.o2           1 <1>                0.0000
      5 O5          30.6121  38.2708  38.3551 O.2            1 <1>                0.0000
      6 O6          28.7675  38.6962  36.7230 O.2            1 <1>                0.0000
      7 C7          28.3134  37.2299  38.7679 C.ar           1 <1>                0.0000
      8 C8          26.9620  37.2868  38.4815 C.ar           1 <1>                0.0000
      9 C9          26.0377  36.8084  39.3919 C.ar           1 <1>                0.0000
     10 C10         26.4644  36.2697  40.5944 C.ar           1 <1>                0.0000
     11 O11         25.5563  35.7983  41.4906 O.3            1 <1>                0.0000
     12 C12         27.8259  36.2115  40.8836 C.ar           1 <1>                0.0000
     13 N13         28.2629  35.6684  42.0973 N.pl3          1 <1>                0.0000
     14 C14         28.7477  36.6888  39.9633 C.ar           1 <1>                0.0000
     15 H15         33.2904  36.0540  37.2824 H              1 <1>                0.0000
     16 H16         32.1245  36.9590  38.2773 H              1 <1>                0.0000
     17 H17         31.9059  35.2116  38.0182 H              1 <1>                0.0000
     18 H18         31.7377  37.3654  35.8619 H              1 <1>                0.0000
     19 H19         31.5191  35.6180  35.6028 H              1 <1>                0.0000
     20 H20         26.6274  37.7065  37.5443 H              1 <1>                0.0000
     21 H21         24.9828  36.8550  39.1653 H              1 <1>                0.0000
     22 H22         29.8039  36.6452  40.1844 H              1 <1>                0.0000
     23 H23         29.3552  35.8788  36.4121 H              1 <1>                0.0000
     24 H24         25.9490  35.4572  42.3058 H              1 <1>                0.0000
     25 H25         27.6174  35.3318  42.7383 H              1 <1>                0.0000
     26 H26         29.2112  35.6284  42.2974 H              1 <1>                0.0000
@<TRIPOS>BOND
    1    1    2 1     
    2    1   15 1     
    3    1   16 1     
    4    1   17 1     
    5    2    3 1     
    6    2   18 1     
    7    2   19 1     
    8    3    4 1     
    9    3   23 1     
   10    4    5 2     
   11    4    6 2     
   12    4    7 1     
   13    7    8 ar    
   14    7   14 ar    
   15    8    9 ar    
   16    8   20 1     
   17    9   10 ar    
   18    9   21 1     
   19   10   11 1     
   20   10   12 ar    
   21   11   24 1     
   22   12   13 1     
   23   12   14 ar    
   24   13   25 1     
   25   13   26 1     
   26   14   22 1     
@<TRIPOS>SUBSTRUCTURE
      1 ****           1
@<TRIPOS>SET
DONOR_HYDROGENS      STATIC     ATOMS    <user>   **** ""
4 23 24 25 26
ATOM$RED        STATIC     ATOMS    COLORGROUP SYSTEM
4 23 24 25 26
@<TRIPOS>COMMENT
> <Gold.Version>
2022.2.0

> <Gold.Id.Protein>
1qkm|1qkm_protein|mol2

> <Gold.Protein.RotatedTorsions>
[  496  491  490  487 ] final   85.46 input  -89.99 | X-H torsion

> <Gold.Protein.ActiveResidues>
 MET295  LEU298  THR299  LEU301  ALA302  GLU305  TRP335  MET336  LEU339  MET340 
 GLY342  LEU343  ARG346  PHE356  ILE373  ILE376  PHE377  LEU380  LYS471  GLY472 
 MET473  HIS475  LEU476  LEU477  ASN478  MET479  VAL484  VAL487 

> <Gold.Protein.RotatedAtoms>
   36.7782   33.0543   42.0769 H   0  0  0  0  0  0  0  0  0  0  0  0  # atno 496  bound_to 491 

> <Gold.Score>
     Score     S(PLP)   S(hbond)     S(cho)   S(metal)  DE(clash)   DE(tors)     intcor
     42.69     -36.92       2.00       0.00       0.00       0.00       1.60       2.97

> <Gold.PLP.Fitness>
42.6877

> <Gold.PLP.PLP>
-36.9219

> <Gold.PLP.part.hbond>
-2.0000

> <Gold.PLP.part.metal>
0.0000

> <Gold.PLP.part.buried>
-1.6184

> <Gold.PLP.part.nonpolar>
-33.5392

> <Gold.PLP.part.repulsive>
0.0827

> <Gold.PLP.ligand.clash>
0.0000

> <Gold.PLP.ligand.torsion>
1.6010

> <Gold.PLP.Chemscore.Hbond>
2.0000

> <Gold.PLP.Chemscore.CHOScore>
0.0000

> <Gold.PLP.Chemscore.Metal>
0.0000

> <Gold.Chemscore.Hbonds>
donor molecule, donor type, donor heavy atom, donor atom, acceptor molecule, acceptor atom, score
      L1  H    11    24       P1   582  1.00
      L1  H    13    25       P1   582  1.00

> <Gold.PLP.Chemscore.Internal.Correction>
2.9679

