#       Name:                EN300-6743291_i001
#       Creating user name   aseyller
#       Creation time:       Fri Apr 21 16:40:58 2023


#       File generated by GOLD software.
#

@<TRIPOS>MOLECULE
EN300-6743291_i001|aminophenols|mol2|93|dock19
    26    26     1
SMALL
USER_CHARGES


@<TRIPOS>ATOM
      1 C1          30.5006  38.2163  34.8243 C.3            1 <1>                0.0000
      2 C2          29.6978  38.3112  36.1233 C.3            1 <1>                0.0000
      3 N3          29.4745  36.9660  36.6588 N.pl3          1 <1>                0.0000
      4 S4          30.1134  36.5425  38.1267 S.o2           1 <1>                0.0000
      5 O5          30.4984  35.1790  38.0184 O.2            1 <1>                0.0000
      6 O6          31.0168  37.5791  38.4852 O.2            1 <1>                0.0000
      7 C7          28.8016  36.5973  39.3019 C.ar           1 <1>                0.0000
      8 C8          29.0542  36.3132  40.6311 C.ar           1 <1>                0.0000
      9 C9          28.0286  36.3541  41.5578 C.ar           1 <1>                0.0000
     10 C10         26.7442  36.6809  41.1558 C.ar           1 <1>                0.0000
     11 O11         25.7346  36.7219  42.0663 O.3            1 <1>                0.0000
     12 C12         26.4888  36.9677  39.8166 C.ar           1 <1>                0.0000
     13 N13         25.1927  37.2983  39.4046 N.pl3          1 <1>                0.0000
     14 C14         27.5236  36.9296  38.8935 C.ar           1 <1>                0.0000
     15 H15         30.6667  39.2171  34.4259 H              1 <1>                0.0000
     16 H16         31.4609  37.7410  35.0246 H              1 <1>                0.0000
     17 H17         29.9463  37.6231  34.0971 H              1 <1>                0.0000
     18 H18         30.2521  38.9044  36.8506 H              1 <1>                0.0000
     19 H19         28.7375  38.7865  35.9230 H              1 <1>                0.0000
     20 H20         30.0552  36.0583  40.9465 H              1 <1>                0.0000
     21 H21         28.2293  36.1310  42.5953 H              1 <1>                0.0000
     22 H22         27.3291  37.1515  37.8546 H              1 <1>                0.0000
     23 H23         28.9525  36.3233  36.1534 H              1 <1>                0.0000
     24 H24         25.6701  35.9303  42.6179 H              1 <1>                0.0000
     25 H25         24.4708  37.3280  40.0518 H              1 <1>                0.0000
     26 H26         25.0163  37.4979  38.4719 H              1 <1>                0.0000
@<TRIPOS>BOND
    1    1    2 1     
    2    1   15 1     
    3    1   16 1     
    4    1   17 1     
    5    2    3 1     
    6    2   18 1     
    7    2   19 1     
    8    3    4 1     
    9    3   23 1     
   10    4    5 2     
   11    4    6 2     
   12    4    7 1     
   13    7    8 ar    
   14    7   14 ar    
   15    8    9 ar    
   16    8   20 1     
   17    9   10 ar    
   18    9   21 1     
   19   10   11 1     
   20   10   12 ar    
   21   11   24 1     
   22   12   13 1     
   23   12   14 ar    
   24   13   25 1     
   25   13   26 1     
   26   14   22 1     
@<TRIPOS>SUBSTRUCTURE
      1 ****           1
@<TRIPOS>SET
DONOR_HYDROGENS      STATIC     ATOMS    <user>   **** ""
4 23 24 25 26
ATOM$RED        STATIC     ATOMS    COLORGROUP SYSTEM
4 23 24 25 26
@<TRIPOS>COMMENT
> <Gold.Version>
2022.2.0

> <Gold.Id.Protein>
1qkm|1qkm_protein|mol2

> <Gold.Protein.RotatedTorsions>
[  496  491  490  487 ] final   22.54 input  -89.99 | X-H torsion

> <Gold.Protein.ActiveResidues>
 MET295  LEU298  THR299  LEU301  ALA302  GLU305  TRP335  MET336  LEU339  MET340 
 GLY342  LEU343  ARG346  PHE356  ILE373  ILE376  PHE377  LEU380  LYS471  GLY472 
 MET473  HIS475  LEU476  LEU477  ASN478  MET479  VAL484  VAL487 

> <Gold.Protein.RotatedAtoms>
   36.3122   33.8722   42.3649 H   0  0  0  0  0  0  0  0  0  0  0  0  # atno 496  bound_to 491 

> <Gold.Score>
     Score     S(PLP)   S(hbond)     S(cho)   S(metal)  DE(clash)   DE(tors)     intcor
     40.15     -37.69       1.01       0.00       0.00       0.00       1.77       2.97

> <Gold.PLP.Fitness>
40.1455

> <Gold.PLP.PLP>
-37.6886

> <Gold.PLP.part.hbond>
-3.0000

> <Gold.PLP.part.metal>
0.0000

> <Gold.PLP.part.buried>
-0.1719

> <Gold.PLP.part.nonpolar>
-34.9041

> <Gold.PLP.part.repulsive>
0.1860

> <Gold.PLP.ligand.clash>
0.0000

> <Gold.PLP.ligand.torsion>
1.7670

> <Gold.PLP.Chemscore.Hbond>
1.0077

> <Gold.PLP.Chemscore.CHOScore>
0.0000

> <Gold.PLP.Chemscore.Metal>
0.0000

> <Gold.Chemscore.Hbonds>
donor molecule, donor type, donor heavy atom, donor atom, acceptor molecule, acceptor atom, score
      L1  H    11    24       P1   582  1.00
      L1  H    13    25       P1  1131  0.01

> <Gold.PLP.Chemscore.Internal.Correction>
2.9679

