#       Name:                EN300-6743291_i001
#       Creating user name   aseyller
#       Creation time:       Fri Apr 21 16:40:43 2023


#       File generated by GOLD software.
#

@<TRIPOS>MOLECULE
EN300-6743291_i001|aminophenols|mol2|93|dock6
    26    26     1
SMALL
USER_CHARGES


@<TRIPOS>ATOM
      1 C1          30.7718  34.7604  38.7724 C.3            1 <1>                0.0000
      2 C2          30.9883  36.0180  37.9283 C.3            1 <1>                0.0000
      3 N3          29.7284  36.3961  37.2834 N.pl3          1 <1>                0.0000
      4 S4          28.9425  37.7778  37.7479 S.o2           1 <1>                0.0000
      5 O5          29.9082  38.5873  38.4044 O.2            1 <1>                0.0000
      6 O6          28.1994  38.2157  36.6187 O.2            1 <1>                0.0000
      7 C7          27.7619  37.3194  38.9730 C.ar           1 <1>                0.0000
      8 C8          26.4288  37.6433  38.8014 C.ar           1 <1>                0.0000
      9 C9          25.4977  37.2867  39.7597 C.ar           1 <1>                0.0000
     10 C10         25.8993  36.6027  40.8950 C.ar           1 <1>                0.0000
     11 O11         24.9845  36.2510  41.8382 O.3            1 <1>                0.0000
     12 C12         27.2423  36.2756  41.0686 C.ar           1 <1>                0.0000
     13 N13         27.6538  35.5846  42.2142 N.pl3          1 <1>                0.0000
     14 C14         28.1699  36.6322  40.1007 C.ar           1 <1>                0.0000
     15 H15         31.7092  34.4790  39.2521 H              1 <1>                0.0000
     16 H16         30.0188  34.9598  39.5350 H              1 <1>                0.0000
     17 H17         30.4330  33.9464  38.1315 H              1 <1>                0.0000
     18 H18         31.3270  36.8319  38.5691 H              1 <1>                0.0000
     19 H19         31.7412  35.8185  37.1657 H              1 <1>                0.0000
     20 H20         26.1138  38.1766  37.9166 H              1 <1>                0.0000
     21 H21         24.4573  37.5418  39.6227 H              1 <1>                0.0000
     22 H22         29.2118  36.3800  40.2321 H              1 <1>                0.0000
     23 H23         29.3545  35.8371  36.5844 H              1 <1>                0.0000
     24 H24         25.2739  35.5334  42.4183 H              1 <1>                0.0000
     25 H25         27.0036  35.3328  42.8884 H              1 <1>                0.0000
     26 H26         28.5892  35.3574  42.3337 H              1 <1>                0.0000
@<TRIPOS>BOND
    1    1    2 1     
    2    1   15 1     
    3    1   16 1     
    4    1   17 1     
    5    2    3 1     
    6    2   18 1     
    7    2   19 1     
    8    3    4 1     
    9    3   23 1     
   10    4    5 2     
   11    4    6 2     
   12    4    7 1     
   13    7    8 ar    
   14    7   14 ar    
   15    8    9 ar    
   16    8   20 1     
   17    9   10 ar    
   18    9   21 1     
   19   10   11 1     
   20   10   12 ar    
   21   11   24 1     
   22   12   13 1     
   23   12   14 ar    
   24   13   25 1     
   25   13   26 1     
   26   14   22 1     
@<TRIPOS>SUBSTRUCTURE
      1 ****           1
@<TRIPOS>SET
DONOR_HYDROGENS      STATIC     ATOMS    <user>   **** ""
4 23 24 25 26
ATOM$RED        STATIC     ATOMS    COLORGROUP SYSTEM
4 23 24 25 26
@<TRIPOS>COMMENT
> <Gold.Version>
2022.2.0

> <Gold.Id.Protein>
1qkm|1qkm_protein|mol2

> <Gold.Protein.RotatedTorsions>
[  496  491  490  487 ] final -165.42 input  -89.99 | X-H torsion

> <Gold.Protein.ActiveResidues>
 MET295  LEU298  THR299  LEU301  ALA302  GLU305  TRP335  MET336  LEU339  MET340 
 GLY342  LEU343  ARG346  PHE356  ILE373  ILE376  PHE377  LEU380  LYS471  GLY472 
 MET473  HIS475  LEU476  LEU477  ASN478  MET479  VAL484  VAL487 

> <Gold.Protein.RotatedAtoms>
   37.2929   33.6792   40.7705 H   0  0  0  0  0  0  0  0  0  0  0  0  # atno 496  bound_to 491 

> <Gold.Score>
     Score     S(PLP)   S(hbond)     S(cho)   S(metal)  DE(clash)   DE(tors)     intcor
     45.71     -37.78       2.73       0.00       0.00       0.00       1.61       2.97

> <Gold.PLP.Fitness>
45.7145

> <Gold.PLP.PLP>
-37.7811

> <Gold.PLP.part.hbond>
-3.1231

> <Gold.PLP.part.metal>
0.0000

> <Gold.PLP.part.buried>
-0.5519

> <Gold.PLP.part.nonpolar>
-33.7512

> <Gold.PLP.part.repulsive>
0.0675

> <Gold.PLP.ligand.clash>
0.0000

> <Gold.PLP.ligand.torsion>
1.6081

> <Gold.PLP.Chemscore.Hbond>
2.7265

> <Gold.PLP.Chemscore.CHOScore>
0.0000

> <Gold.PLP.Chemscore.Metal>
0.0000

> <Gold.Chemscore.Hbonds>
donor molecule, donor type, donor heavy atom, donor atom, acceptor molecule, acceptor atom, score
      L1  H    11    24       P1   582  1.00
      L1  H    13    25       P1   582  0.94
      P1  H  1258  1270       L1    11  0.78

> <Gold.PLP.Chemscore.Internal.Correction>
2.9701

