#       Name:                EN300-6743291_i001
#       Creating user name   aseyller
#       Creation time:       Fri Apr 21 16:40:51 2023


#       File generated by GOLD software.
#

@<TRIPOS>MOLECULE
EN300-6743291_i001|aminophenols|mol2|93|dock13
    26    26     1
SMALL
USER_CHARGES


@<TRIPOS>ATOM
      1 C1          31.7873  38.3134  35.1402 C.3            1 <1>                0.0000
      2 C2          30.9078  39.1969  36.0272 C.3            1 <1>                0.0000
      3 N3          30.6345  38.5041  37.2887 N.pl3          1 <1>                0.0000
      4 S4          30.1605  36.9174  37.2762 S.o2           1 <1>                0.0000
      5 O5          29.4546  36.7191  36.0590 O.2            1 <1>                0.0000
      6 O6          31.3010  36.1550  37.6463 O.2            1 <1>                0.0000
      7 C7          28.9842  36.7143  38.5723 C.ar           1 <1>                0.0000
      8 C8          27.6491  36.9890  38.3411 C.ar           1 <1>                0.0000
      9 C9          26.7214  36.8320  39.3545 C.ar           1 <1>                0.0000
     10 C10         27.1284  36.3980  40.6051 C.ar           1 <1>                0.0000
     11 O11         26.2169  36.2426  41.6027 O.3            1 <1>                0.0000
     12 C12         28.4735  36.1206  40.8389 C.ar           1 <1>                0.0000
     13 N13         28.8905  35.6819  42.1009 N.pl3          1 <1>                0.0000
     14 C14         29.3977  36.2756  39.8160 C.ar           1 <1>                0.0000
     15 H15         31.9906  38.8288  34.2016 H              1 <1>                0.0000
     16 H16         32.7272  38.1062  35.6519 H              1 <1>                0.0000
     17 H17         31.2709  37.3757  34.9353 H              1 <1>                0.0000
     18 H18         31.4243  40.1346  36.2321 H              1 <1>                0.0000
     19 H19         29.9679  39.4041  35.5154 H              1 <1>                0.0000
     20 H20         27.3298  37.3274  37.3664 H              1 <1>                0.0000
     21 H21         25.6793  37.0480  39.1707 H              1 <1>                0.0000
     22 H22         30.4412  36.0613  39.9939 H              1 <1>                0.0000
     23 H23         30.7311  38.9748  38.1313 H              1 <1>                0.0000
     24 H24         26.4162  35.5150  42.2076 H              1 <1>                0.0000
     25 H25         28.2426  35.5706  42.8142 H              1 <1>                0.0000
     26 H26         29.8273  35.4891  42.2622 H              1 <1>                0.0000
@<TRIPOS>BOND
    1    1    2 1     
    2    1   15 1     
    3    1   16 1     
    4    1   17 1     
    5    2    3 1     
    6    2   18 1     
    7    2   19 1     
    8    3    4 1     
    9    3   23 1     
   10    4    5 2     
   11    4    6 2     
   12    4    7 1     
   13    7    8 ar    
   14    7   14 ar    
   15    8    9 ar    
   16    8   20 1     
   17    9   10 ar    
   18    9   21 1     
   19   10   11 1     
   20   10   12 ar    
   21   11   24 1     
   22   12   13 1     
   23   12   14 ar    
   24   13   25 1     
   25   13   26 1     
   26   14   22 1     
@<TRIPOS>SUBSTRUCTURE
      1 ****           1
@<TRIPOS>SET
DONOR_HYDROGENS      STATIC     ATOMS    <user>   **** ""
4 23 24 25 26
ATOM$RED        STATIC     ATOMS    COLORGROUP SYSTEM
4 23 24 25 26
@<TRIPOS>COMMENT
> <Gold.Version>
2022.2.0

> <Gold.Id.Protein>
1qkm|1qkm_protein|mol2

> <Gold.Protein.RotatedTorsions>
[  496  491  490  487 ] final -169.38 input  -89.99 | X-H torsion

> <Gold.Protein.ActiveResidues>
 MET295  LEU298  THR299  LEU301  ALA302  GLU305  TRP335  MET336  LEU339  MET340 
 GLY342  LEU343  ARG346  PHE356  ILE373  ILE376  PHE377  LEU380  LYS471  GLY472 
 MET473  HIS475  LEU476  LEU477  ASN478  MET479  VAL484  VAL487 

> <Gold.Protein.RotatedAtoms>
   37.3030   33.6184   40.7921 H   0  0  0  0  0  0  0  0  0  0  0  0  # atno 496  bound_to 491 

> <Gold.Score>
     Score     S(PLP)   S(hbond)     S(cho)   S(metal)  DE(clash)   DE(tors)     intcor
     41.69     -36.02       2.00       0.00       0.00       0.00       1.65       2.97

> <Gold.PLP.Fitness>
41.6865

> <Gold.PLP.PLP>
-36.0185

> <Gold.PLP.part.hbond>
-2.0000

> <Gold.PLP.part.metal>
0.0000

> <Gold.PLP.part.buried>
-3.0049

> <Gold.PLP.part.nonpolar>
-33.4183

> <Gold.PLP.part.repulsive>
0.1227

> <Gold.PLP.ligand.clash>
0.0000

> <Gold.PLP.ligand.torsion>
1.6500

> <Gold.PLP.Chemscore.Hbond>
2.0000

> <Gold.PLP.Chemscore.CHOScore>
0.0000

> <Gold.PLP.Chemscore.Metal>
0.0000

> <Gold.Chemscore.Hbonds>
donor molecule, donor type, donor heavy atom, donor atom, acceptor molecule, acceptor atom, score
      L1  H    11    24       P1   582  1.00
      L1  H    13    26       P1   470  1.00

> <Gold.PLP.Chemscore.Internal.Correction>
2.9679

