#       Name:                EN300-6743291_i001
#       Creating user name   aseyller
#       Creation time:       Fri Apr 21 16:40:47 2023


#       File generated by GOLD software.
#

@<TRIPOS>MOLECULE
EN300-6743291_i001|aminophenols|mol2|93|dock10
    26    26     1
SMALL
USER_CHARGES


@<TRIPOS>ATOM
      1 C1          30.2321  40.9279  35.8963 C.3            1 <1>                0.0000
      2 C2          29.5440  39.6498  36.3798 C.3            1 <1>                0.0000
      3 N3          30.4810  38.8671  37.1895 N.pl3          1 <1>                0.0000
      4 S4          30.3601  37.2160  37.2316 S.o2           1 <1>                0.0000
      5 O5          29.8621  36.8177  35.9617 O.2            1 <1>                0.0000
      6 O6          31.5844  36.7377  37.7712 O.2            1 <1>                0.0000
      7 C7          29.1085  36.8145  38.4051 C.ar           1 <1>                0.0000
      8 C8          27.7786  37.0327  38.0968 C.ar           1 <1>                0.0000
      9 C9          26.7919  36.7200  39.0139 C.ar           1 <1>                0.0000
     10 C10         27.1346  36.1862  40.2451 C.ar           1 <1>                0.0000
     11 O11         26.1652  35.8779  41.1480 O.3            1 <1>                0.0000
     12 C12         28.4744  35.9657  40.5565 C.ar           1 <1>                0.0000
     13 N13         28.8265  35.4267  41.7993 N.pl3          1 <1>                0.0000
     14 C14         29.4584  36.2771  39.6295 C.ar           1 <1>                0.0000
     15 H15         29.5349  41.5102  35.2939 H              1 <1>                0.0000
     16 H16         30.5492  41.5175  36.7566 H              1 <1>                0.0000
     17 H17         31.1023  40.6667  35.2942 H              1 <1>                0.0000
     18 H18         28.6738  39.9110  36.9819 H              1 <1>                0.0000
     19 H19         29.2269  39.0602  35.5195 H              1 <1>                0.0000
     20 H20         27.5095  37.4487  37.1371 H              1 <1>                0.0000
     21 H21         25.7541  36.8923  38.7701 H              1 <1>                0.0000
     22 H22         30.4980  36.1073  39.8677 H              1 <1>                0.0000
     23 H23         31.1722  39.3160  37.7010 H              1 <1>                0.0000
     24 H24         26.4873  35.3949  41.9213 H              1 <1>                0.0000
     25 H25         28.1372  35.2061  42.4451 H              1 <1>                0.0000
     26 H26         29.7598  35.2736  42.0147 H              1 <1>                0.0000
@<TRIPOS>BOND
    1    1    2 1     
    2    1   15 1     
    3    1   16 1     
    4    1   17 1     
    5    2    3 1     
    6    2   18 1     
    7    2   19 1     
    8    3    4 1     
    9    3   23 1     
   10    4    5 2     
   11    4    6 2     
   12    4    7 1     
   13    7    8 ar    
   14    7   14 ar    
   15    8    9 ar    
   16    8   20 1     
   17    9   10 ar    
   18    9   21 1     
   19   10   11 1     
   20   10   12 ar    
   21   11   24 1     
   22   12   13 1     
   23   12   14 ar    
   24   13   25 1     
   25   13   26 1     
   26   14   22 1     
@<TRIPOS>SUBSTRUCTURE
      1 ****           1
@<TRIPOS>SET
DONOR_HYDROGENS      STATIC     ATOMS    <user>   **** ""
4 23 24 25 26
ATOM$RED        STATIC     ATOMS    COLORGROUP SYSTEM
4 23 24 25 26
@<TRIPOS>COMMENT
> <Gold.Version>
2022.2.0

> <Gold.Id.Protein>
1qkm|1qkm_protein|mol2

> <Gold.Protein.RotatedTorsions>
[  496  491  490  487 ] final   60.96 input  -89.99 | X-H torsion

> <Gold.Protein.ActiveResidues>
 MET295  LEU298  THR299  LEU301  ALA302  GLU305  TRP335  MET336  LEU339  MET340 
 GLY342  LEU343  ARG346  PHE356  ILE373  ILE376  PHE377  LEU380  LYS471  GLY472 
 MET473  HIS475  LEU476  LEU477  ASN478  MET479  VAL484  VAL487 

> <Gold.Protein.RotatedAtoms>
   36.5595   33.3070   42.2970 H   0  0  0  0  0  0  0  0  0  0  0  0  # atno 496  bound_to 491 

> <Gold.Score>
     Score     S(PLP)   S(hbond)     S(cho)   S(metal)  DE(clash)   DE(tors)     intcor
     41.49     -36.56       1.78       0.00       0.00       0.00       1.70       2.97

> <Gold.PLP.Fitness>
41.4926

> <Gold.PLP.PLP>
-36.5639

> <Gold.PLP.part.hbond>
-2.0000

> <Gold.PLP.part.metal>
0.0000

> <Gold.PLP.part.buried>
-4.7370

> <Gold.PLP.part.nonpolar>
-32.2837

> <Gold.PLP.part.repulsive>
0.1505

> <Gold.PLP.ligand.clash>
0.0000

> <Gold.PLP.ligand.torsion>
1.6969

> <Gold.PLP.Chemscore.Hbond>
1.7849

> <Gold.PLP.Chemscore.CHOScore>
0.0000

> <Gold.PLP.Chemscore.Metal>
0.0000

> <Gold.Chemscore.Hbonds>
donor molecule, donor type, donor heavy atom, donor atom, acceptor molecule, acceptor atom, score
      L1  H    11    24       P1   582  0.84
      L1  H    13    26       P1   470  0.94

> <Gold.PLP.Chemscore.Internal.Correction>
2.9679

