#       Name:                EN300-6743291_i001
#       Creating user name   aseyller
#       Creation time:       Fri Apr 21 16:40:39 2023


#       File generated by GOLD software.
#

@<TRIPOS>MOLECULE
EN300-6743291_i001|aminophenols|mol2|93|dock3
    26    26     1
SMALL
USER_CHARGES


@<TRIPOS>ATOM
      1 C1          32.4959  35.0134  37.5952 C.3            1 <1>                0.0000
      2 C2          32.2500  36.2958  36.7979 C.3            1 <1>                0.0000
      3 N3          31.5389  37.2636  37.6368 N.pl3          1 <1>                0.0000
      4 S4          30.0203  37.7694  37.2121 S.o2           1 <1>                0.0000
      5 O5          30.0243  39.1862  37.3206 O.2            1 <1>                0.0000
      6 O6          29.6895  37.0827  36.0129 O.2            1 <1>                0.0000
      7 C7          28.9098  37.1790  38.4461 C.ar           1 <1>                0.0000
      8 C8          27.5525  37.1323  38.1870 C.ar           1 <1>                0.0000
      9 C9          26.6760  36.6704  39.1517 C.ar           1 <1>                0.0000
     10 C10         27.1569  36.2524  40.3814 C.ar           1 <1>                0.0000
     11 O11         26.2960  35.7974  41.3311 O.3            1 <1>                0.0000
     12 C12         28.5244  36.2988  40.6433 C.ar           1 <1>                0.0000
     13 N13         29.0159  35.8777  41.8844 N.pl3          1 <1>                0.0000
     14 C14         29.3982  36.7586  39.6689 C.ar           1 <1>                0.0000
     15 H15         33.0250  34.2933  36.9710 H              1 <1>                0.0000
     16 H16         33.0972  35.2423  38.4752 H              1 <1>                0.0000
     17 H17         31.5410  34.5909  37.9076 H              1 <1>                0.0000
     18 H18         33.2050  36.7183  36.4855 H              1 <1>                0.0000
     19 H19         31.6488  36.0669  35.9180 H              1 <1>                0.0000
     20 H20         27.1757  37.4577  37.2286 H              1 <1>                0.0000
     21 H21         25.6164  36.6358  38.9462 H              1 <1>                0.0000
     22 H22         30.4589  36.7957  39.8686 H              1 <1>                0.0000
     23 H23         31.9577  37.6083  38.4411 H              1 <1>                0.0000
     24 H24         26.7277  35.5045  42.1453 H              1 <1>                0.0000
     25 H25         28.4041  35.5531  42.5635 H              1 <1>                0.0000
     26 H26         29.9683  35.9105  42.0653 H              1 <1>                0.0000
@<TRIPOS>BOND
    1    1    2 1     
    2    1   15 1     
    3    1   16 1     
    4    1   17 1     
    5    2    3 1     
    6    2   18 1     
    7    2   19 1     
    8    3    4 1     
    9    3   23 1     
   10    4    5 2     
   11    4    6 2     
   12    4    7 1     
   13    7    8 ar    
   14    7   14 ar    
   15    8    9 ar    
   16    8   20 1     
   17    9   10 ar    
   18    9   21 1     
   19   10   11 1     
   20   10   12 ar    
   21   11   24 1     
   22   12   13 1     
   23   12   14 ar    
   24   13   25 1     
   25   13   26 1     
   26   14   22 1     
@<TRIPOS>SUBSTRUCTURE
      1 ****           1
@<TRIPOS>SET
DONOR_HYDROGENS      STATIC     ATOMS    <user>   **** ""
4 23 24 25 26
ATOM$RED        STATIC     ATOMS    COLORGROUP SYSTEM
4 23 24 25 26
@<TRIPOS>COMMENT
> <Gold.Version>
2022.2.0

> <Gold.Id.Protein>
1qkm|1qkm_protein|mol2

> <Gold.Protein.RotatedTorsions>
[  496  491  490  487 ] final -169.79 input  -89.99 | X-H torsion

> <Gold.Protein.ActiveResidues>
 MET295  LEU298  THR299  LEU301  ALA302  GLU305  TRP335  MET336  LEU339  MET340 
 GLY342  LEU343  ARG346  PHE356  ILE373  ILE376  PHE377  LEU380  LYS471  GLY472 
 MET473  HIS475  LEU476  LEU477  ASN478  MET479  VAL484  VAL487 

> <Gold.Protein.RotatedAtoms>
   37.3039   33.6122   40.7945 H   0  0  0  0  0  0  0  0  0  0  0  0  # atno 496  bound_to 491 

> <Gold.Score>
     Score     S(PLP)   S(hbond)     S(cho)   S(metal)  DE(clash)   DE(tors)     intcor
     46.03     -41.57       1.67       0.00       0.00       0.00       1.76       2.97

> <Gold.PLP.Fitness>
46.0340

> <Gold.PLP.PLP>
-41.5660

> <Gold.PLP.part.hbond>
-2.0000

> <Gold.PLP.part.metal>
0.0000

> <Gold.PLP.part.buried>
-6.0688

> <Gold.PLP.part.nonpolar>
-34.4760

> <Gold.PLP.part.repulsive>
0.0874

> <Gold.PLP.ligand.clash>
0.0000

> <Gold.PLP.ligand.torsion>
1.7590

> <Gold.PLP.Chemscore.Hbond>
1.6720

> <Gold.PLP.Chemscore.CHOScore>
0.0000

> <Gold.PLP.Chemscore.Metal>
0.0000

> <Gold.Chemscore.Hbonds>
donor molecule, donor type, donor heavy atom, donor atom, acceptor molecule, acceptor atom, score
      L1  H    11    24       P1   582  0.67
      L1  H    13    26       P1   470  1.00

> <Gold.PLP.Chemscore.Internal.Correction>
2.9701

