#       Name:                EN300-6743291_i001
#       Creating user name   aseyller
#       Creation time:       Fri Apr 21 16:40:42 2023


#       File generated by GOLD software.
#

@<TRIPOS>MOLECULE
EN300-6743291_i001|aminophenols|mol2|93|dock5
    26    26     1
SMALL
USER_CHARGES


@<TRIPOS>ATOM
      1 C1          31.4909  38.0443  34.8382 C.3            1 <1>                0.0000
      2 C2          30.7326  36.7666  35.2035 C.3            1 <1>                0.0000
      3 N3          29.6477  37.0914  36.1328 N.pl3          1 <1>                0.0000
      4 S4          29.9981  37.6451  37.6537 S.o2           1 <1>                0.0000
      5 O5          31.1624  36.9484  38.0760 O.2            1 <1>                0.0000
      6 O6          29.9199  39.0626  37.5926 O.2            1 <1>                0.0000
      7 C7          28.6922  37.1199  38.7137 C.ar           1 <1>                0.0000
      8 C8          27.3822  37.1803  38.2759 C.ar           1 <1>                0.0000
      9 C9          26.3530  36.7701  39.1034 C.ar           1 <1>                0.0000
     10 C10         26.6329  36.2965  40.3745 C.ar           1 <1>                0.0000
     11 O11         25.6217  35.8923  41.1893 O.3            1 <1>                0.0000
     12 C12         27.9527  36.2350  40.8163 C.ar           1 <1>                0.0000
     13 N13         28.2415  35.7574  42.0999 N.pl3          1 <1>                0.0000
     14 C14         28.9804  36.6435  39.9787 C.ar           1 <1>                0.0000
     15 H15         32.2981  37.8025  34.1468 H              1 <1>                0.0000
     16 H16         30.8073  38.7500  34.3662 H              1 <1>                0.0000
     17 H17         31.9074  38.4904  35.7412 H              1 <1>                0.0000
     18 H18         30.3161  36.3204  34.3005 H              1 <1>                0.0000
     19 H19         31.4162  36.0608  35.6755 H              1 <1>                0.0000
     20 H20         27.1620  37.5492  37.2850 H              1 <1>                0.0000
     21 H21         25.3308  36.8192  38.7585 H              1 <1>                0.0000
     22 H22         30.0046  36.5970  40.3181 H              1 <1>                0.0000
     23 H23         28.7241  36.9821  35.8573 H              1 <1>                0.0000
     24 H24         25.9050  35.3128  41.9098 H              1 <1>                0.0000
     25 H25         27.5222  35.4688  42.6831 H              1 <1>                0.0000
     26 H26         29.1608  35.7150  42.4062 H              1 <1>                0.0000
@<TRIPOS>BOND
    1    1    2 1     
    2    1   15 1     
    3    1   16 1     
    4    1   17 1     
    5    2    3 1     
    6    2   18 1     
    7    2   19 1     
    8    3    4 1     
    9    3   23 1     
   10    4    5 2     
   11    4    6 2     
   12    4    7 1     
   13    7    8 ar    
   14    7   14 ar    
   15    8    9 ar    
   16    8   20 1     
   17    9   10 ar    
   18    9   21 1     
   19   10   11 1     
   20   10   12 ar    
   21   11   24 1     
   22   12   13 1     
   23   12   14 ar    
   24   13   25 1     
   25   13   26 1     
   26   14   22 1     
@<TRIPOS>SUBSTRUCTURE
      1 ****           1
@<TRIPOS>SET
DONOR_HYDROGENS      STATIC     ATOMS    <user>   **** ""
4 23 24 25 26
ATOM$RED        STATIC     ATOMS    COLORGROUP SYSTEM
4 23 24 25 26
@<TRIPOS>COMMENT
> <Gold.Version>
2022.2.0

> <Gold.Id.Protein>
1qkm|1qkm_protein|mol2

> <Gold.Protein.RotatedTorsions>
[  496  491  490  487 ] final -130.69 input  -89.99 | X-H torsion

> <Gold.Protein.ActiveResidues>
 MET295  LEU298  THR299  LEU301  ALA302  GLU305  TRP335  MET336  LEU339  MET340 
 GLY342  LEU343  ARG346  PHE356  ILE373  ILE376  PHE377  LEU380  LYS471  GLY472 
 MET473  HIS475  LEU476  LEU477  ASN478  MET479  VAL484  VAL487 

> <Gold.Protein.RotatedAtoms>
   37.1098   34.2110   40.7473 H   0  0  0  0  0  0  0  0  0  0  0  0  # atno 496  bound_to 491 

> <Gold.Score>
     Score     S(PLP)   S(hbond)     S(cho)   S(metal)  DE(clash)   DE(tors)     intcor
     46.16     -40.70       2.00       0.00       0.00       0.00       1.76       2.97

> <Gold.PLP.Fitness>
46.1556

> <Gold.PLP.PLP>
-40.7007

> <Gold.PLP.part.hbond>
-2.0000

> <Gold.PLP.part.metal>
0.0000

> <Gold.PLP.part.buried>
-5.3777

> <Gold.PLP.part.nonpolar>
-34.1675

> <Gold.PLP.part.repulsive>
0.1062

> <Gold.PLP.ligand.clash>
0.0000

> <Gold.PLP.ligand.torsion>
1.7576

> <Gold.PLP.Chemscore.Hbond>
2.0000

> <Gold.PLP.Chemscore.CHOScore>
0.0000

> <Gold.PLP.Chemscore.Metal>
0.0000

> <Gold.Chemscore.Hbonds>
donor molecule, donor type, donor heavy atom, donor atom, acceptor molecule, acceptor atom, score
      L1  H    11    24       P1   582  1.00
      L1  H    13    25       P1   582  1.00

> <Gold.PLP.Chemscore.Internal.Correction>
2.9701

