#       Name:                EN300-6743291_i001
#       Creating user name   aseyller
#       Creation time:       Fri Apr 21 16:40:45 2023


#       File generated by GOLD software.
#

@<TRIPOS>MOLECULE
EN300-6743291_i001|aminophenols|mol2|93|dock8
    26    26     1
SMALL
USER_CHARGES


@<TRIPOS>ATOM
      1 C1          33.0167  36.9628  35.1021 C.3            1 <1>                0.0000
      2 C2          32.7313  36.3979  36.4950 C.3            1 <1>                0.0000
      3 N3          31.9304  37.3591  37.2571 N.pl3          1 <1>                0.0000
      4 S4          30.4553  37.8466  36.6836 S.o2           1 <1>                0.0000
      5 O5          30.4838  39.2671  36.6593 O.2            1 <1>                0.0000
      6 O6          30.1899  37.0547  35.5341 O.2            1 <1>                0.0000
      7 C7          29.2518  37.3938  37.8883 C.ar           1 <1>                0.0000
      8 C8          27.9085  37.5955  37.6308 C.ar           1 <1>                0.0000
      9 C9          26.9594  37.2425  38.5726 C.ar           1 <1>                0.0000
     10 C10         27.3531  36.6849  39.7776 C.ar           1 <1>                0.0000
     11 O11         26.4207  36.3368  40.7047 O.3            1 <1>                0.0000
     12 C12         28.7065  36.4809  40.0378 C.ar           1 <1>                0.0000
     13 N13         29.1102  35.9179  41.2540 N.pl3          1 <1>                0.0000
     14 C14         29.6526  36.8328  39.0863 C.ar           1 <1>                0.0000
     15 H15         33.6126  36.2477  34.5351 H              1 <1>                0.0000
     16 H16         32.0752  37.1433  34.5833 H              1 <1>                0.0000
     17 H17         33.5655  37.8999  35.1954 H              1 <1>                0.0000
     18 H18         32.1824  35.4608  36.4016 H              1 <1>                0.0000
     19 H19         33.6728  36.2174  37.0138 H              1 <1>                0.0000
     20 H20         27.5995  38.0301  36.6916 H              1 <1>                0.0000
     21 H21         25.9110  37.4020  38.3685 H              1 <1>                0.0000
     22 H22         30.7026  36.6759  39.2847 H              1 <1>                0.0000
     23 H23         32.2641  37.7100  38.0975 H              1 <1>                0.0000
     24 H24         26.7779  35.8433  41.4557 H              1 <1>                0.0000
     25 H25         28.4473  35.6691  41.9170 H              1 <1>                0.0000
     26 H26         30.0528  35.7764  41.4338 H              1 <1>                0.0000
@<TRIPOS>BOND
    1    1    2 1     
    2    1   15 1     
    3    1   16 1     
    4    1   17 1     
    5    2    3 1     
    6    2   18 1     
    7    2   19 1     
    8    3    4 1     
    9    3   23 1     
   10    4    5 2     
   11    4    6 2     
   12    4    7 1     
   13    7    8 ar    
   14    7   14 ar    
   15    8    9 ar    
   16    8   20 1     
   17    9   10 ar    
   18    9   21 1     
   19   10   11 1     
   20   10   12 ar    
   21   11   24 1     
   22   12   13 1     
   23   12   14 ar    
   24   13   25 1     
   25   13   26 1     
   26   14   22 1     
@<TRIPOS>SUBSTRUCTURE
      1 ****           1
@<TRIPOS>SET
DONOR_HYDROGENS      STATIC     ATOMS    <user>   **** ""
4 23 24 25 26
ATOM$RED        STATIC     ATOMS    COLORGROUP SYSTEM
4 23 24 25 26
@<TRIPOS>COMMENT
> <Gold.Version>
2022.2.0

> <Gold.Id.Protein>
1qkm|1qkm_protein|mol2

> <Gold.Protein.RotatedTorsions>
[  496  491  490  487 ] final  122.18 input  -89.99 | X-H torsion

> <Gold.Protein.ActiveResidues>
 MET295  LEU298  THR299  LEU301  ALA302  GLU305  TRP335  MET336  LEU339  MET340 
 GLY342  LEU343  ARG346  PHE356  ILE373  ILE376  PHE377  LEU380  LYS471  GLY472 
 MET473  HIS475  LEU476  LEU477  ASN478  MET479  VAL484  VAL487 

> <Gold.Protein.RotatedAtoms>
   37.0972   32.9470   41.5872 H   0  0  0  0  0  0  0  0  0  0  0  0  # atno 496  bound_to 491 

> <Gold.Score>
     Score     S(PLP)   S(hbond)     S(cho)   S(metal)  DE(clash)   DE(tors)     intcor
     42.75     -40.36       1.00       0.00       0.00       0.00       1.79       2.97

> <Gold.PLP.Fitness>
42.7528

> <Gold.PLP.PLP>
-40.3620

> <Gold.PLP.part.hbond>
-1.0000

> <Gold.PLP.part.metal>
0.0000

> <Gold.PLP.part.buried>
-5.7199

> <Gold.PLP.part.nonpolar>
-33.9021

> <Gold.PLP.part.repulsive>
0.1004

> <Gold.PLP.ligand.clash>
0.0000

> <Gold.PLP.ligand.torsion>
1.7886

> <Gold.PLP.Chemscore.Hbond>
1.0000

> <Gold.PLP.Chemscore.CHOScore>
0.0000

> <Gold.PLP.Chemscore.Metal>
0.0000

> <Gold.Chemscore.Hbonds>
donor molecule, donor type, donor heavy atom, donor atom, acceptor molecule, acceptor atom, score
      L1  H    13    26       P1   470  1.00

> <Gold.PLP.Chemscore.Internal.Correction>
2.9679

