#       Name:                EN300-6743291_i001
#       Creating user name   aseyller
#       Creation time:       Fri Apr 21 16:40:55 2023


#       File generated by GOLD software.
#

@<TRIPOS>MOLECULE
EN300-6743291_i001|aminophenols|mol2|93|dock16
    26    26     1
SMALL
USER_CHARGES


@<TRIPOS>ATOM
      1 C1          32.0391  34.6472  37.9364 C.3            1 <1>                0.0000
      2 C2          32.5135  35.5601  36.8040 C.3            1 <1>                0.0000
      3 N3          32.2115  36.9535  37.1409 N.pl3          1 <1>                0.0000
      4 S4          30.8317  37.6646  36.5639 S.o2           1 <1>                0.0000
      5 O5          31.0349  39.0679  36.6558 O.2            1 <1>                0.0000
      6 O6          30.5182  37.0027  35.3462 O.2            1 <1>                0.0000
      7 C7          29.5339  37.2749  37.6903 C.ar           1 <1>                0.0000
      8 C8          28.2205  37.5355  37.3460 C.ar           1 <1>                0.0000
      9 C9          27.1978  37.2324  38.2261 C.ar           1 <1>                0.0000
     10 C10         27.4876  36.6657  39.4561 C.ar           1 <1>                0.0000
     11 O11         26.4826  36.3667  40.3225 O.3            1 <1>                0.0000
     12 C12         28.8107  36.4025  39.8038 C.ar           1 <1>                0.0000
     13 N13         29.1093  35.8300  41.0456 N.pl3          1 <1>                0.0000
     14 C14         29.8310  36.7045  38.9137 C.ar           1 <1>                0.0000
     15 H15         32.2637  33.6106  37.6857 H              1 <1>                0.0000
     16 H16         32.5520  34.9171  38.8597 H              1 <1>                0.0000
     17 H17         30.9637  34.7637  38.0708 H              1 <1>                0.0000
     18 H18         33.5888  35.4437  36.6695 H              1 <1>                0.0000
     19 H19         32.0005  35.2903  35.8807 H              1 <1>                0.0000
     20 H20         27.9927  37.9773  36.3872 H              1 <1>                0.0000
     21 H21         26.1731  37.4379  37.9542 H              1 <1>                0.0000
     22 H22         30.8578  36.5017  39.1801 H              1 <1>                0.0000
     23 H23         32.8198  37.4596  37.7019 H              1 <1>                0.0000
     24 H24         25.9209  35.6338  40.0354 H              1 <1>                0.0000
     25 H25         28.3946  35.6160  41.6655 H              1 <1>                0.0000
     26 H26         30.0310  35.6472  41.2863 H              1 <1>                0.0000
@<TRIPOS>BOND
    1    1    2 1     
    2    1   15 1     
    3    1   16 1     
    4    1   17 1     
    5    2    3 1     
    6    2   18 1     
    7    2   19 1     
    8    3    4 1     
    9    3   23 1     
   10    4    5 2     
   11    4    6 2     
   12    4    7 1     
   13    7    8 ar    
   14    7   14 ar    
   15    8    9 ar    
   16    8   20 1     
   17    9   10 ar    
   18    9   21 1     
   19   10   11 1     
   20   10   12 ar    
   21   11   24 1     
   22   12   13 1     
   23   12   14 ar    
   24   13   25 1     
   25   13   26 1     
   26   14   22 1     
@<TRIPOS>SUBSTRUCTURE
      1 ****           1
@<TRIPOS>SET
DONOR_HYDROGENS      STATIC     ATOMS    <user>   **** ""
4 23 24 25 26
ATOM$RED        STATIC     ATOMS    COLORGROUP SYSTEM
4 23 24 25 26
@<TRIPOS>COMMENT
> <Gold.Version>
2022.2.0

> <Gold.Id.Protein>
1qkm|1qkm_protein|mol2

> <Gold.Protein.RotatedTorsions>
[  496  491  490  487 ] final   42.74 input  -89.99 | X-H torsion

> <Gold.Protein.ActiveResidues>
 MET295  LEU298  THR299  LEU301  ALA302  GLU305  TRP335  MET336  LEU339  MET340 
 GLY342  LEU343  ARG346  PHE356  ILE373  ILE376  PHE377  LEU380  LYS471  GLY472 
 MET473  HIS475  LEU476  LEU477  ASN478  MET479  VAL484  VAL487 

> <Gold.Protein.RotatedAtoms>
   36.4216   33.5601   42.3750 H   0  0  0  0  0  0  0  0  0  0  0  0  # atno 496  bound_to 491 

> <Gold.Score>
     Score     S(PLP)   S(hbond)     S(cho)   S(metal)  DE(clash)   DE(tors)     intcor
     40.01     -37.87       1.00       0.00       0.00       0.00       1.91       2.97

> <Gold.PLP.Fitness>
40.0139

> <Gold.PLP.PLP>
-37.8743

> <Gold.PLP.part.hbond>
-1.0000

> <Gold.PLP.part.metal>
0.0000

> <Gold.PLP.part.buried>
-4.5702

> <Gold.PLP.part.nonpolar>
-32.9059

> <Gold.PLP.part.repulsive>
0.1131

> <Gold.PLP.ligand.clash>
0.0000

> <Gold.PLP.ligand.torsion>
1.9141

> <Gold.PLP.Chemscore.Hbond>
1.0000

> <Gold.PLP.Chemscore.CHOScore>
0.0000

> <Gold.PLP.Chemscore.Metal>
0.0000

> <Gold.Chemscore.Hbonds>
donor molecule, donor type, donor heavy atom, donor atom, acceptor molecule, acceptor atom, score
      L1  H    13    26       P1   470  1.00

> <Gold.PLP.Chemscore.Internal.Correction>
2.9679

