#       Name:                EN300-6743291_i001
#       Creating user name   aseyller
#       Creation time:       Fri Apr 21 16:40:37 2023


#       File generated by GOLD software.
#

@<TRIPOS>MOLECULE
EN300-6743291_i001|aminophenols|mol2|93|dock1
    26    26     1
SMALL
USER_CHARGES


@<TRIPOS>ATOM
      1 C1          30.5417  39.3340  35.5285 C.3            1 <1>                0.0000
      2 C2          29.6837  39.7940  36.7088 C.3            1 <1>                0.0000
      3 N3          29.9736  38.9599  37.8777 N.pl3          1 <1>                0.0000
      4 S4          29.7070  37.3266  37.8160 S.o2           1 <1>                0.0000
      5 O5          29.2537  37.0435  36.4994 O.2            1 <1>                0.0000
      6 O6          30.8503  36.7114  38.3936 O.2            1 <1>                0.0000
      7 C7          28.3568  36.9775  38.8929 C.ar           1 <1>                0.0000
      8 C8          27.0652  37.2722  38.4974 C.ar           1 <1>                0.0000
      9 C9          26.0016  37.0010  39.3385 C.ar           1 <1>                0.0000
     10 C10         26.2282  36.4322  40.5807 C.ar           1 <1>                0.0000
     11 O11         25.1830  36.1645  41.4088 O.3            1 <1>                0.0000
     12 C12         27.5293  36.1346  40.9800 C.ar           1 <1>                0.0000
     13 N13         27.7643  35.5599  42.2344 N.pl3          1 <1>                0.0000
     14 C14         28.5910  36.4048  40.1289 C.ar           1 <1>                0.0000
     15 H15         30.3260  39.9546  34.6588 H              1 <1>                0.0000
     16 H16         31.5963  39.4263  35.7882 H              1 <1>                0.0000
     17 H17         30.3142  38.2933  35.2977 H              1 <1>                0.0000
     18 H18         29.9112  40.8347  36.9396 H              1 <1>                0.0000
     19 H19         28.6291  39.7017  36.4491 H              1 <1>                0.0000
     20 H20         26.8865  37.7156  37.5290 H              1 <1>                0.0000
     21 H21         24.9940  37.2329  39.0266 H              1 <1>                0.0000
     22 H22         29.6008  36.1753  40.4353 H              1 <1>                0.0000
     23 H23         30.3216  39.3643  38.6878 H              1 <1>                0.0000
     24 H24         25.4072  35.5864  42.1509 H              1 <1>                0.0000
     25 H25         27.0207  35.3682  42.8270 H              1 <1>                0.0000
     26 H26         28.6707  35.3532  42.5111 H              1 <1>                0.0000
@<TRIPOS>BOND
    1    1    2 1     
    2    1   15 1     
    3    1   16 1     
    4    1   17 1     
    5    2    3 1     
    6    2   18 1     
    7    2   19 1     
    8    3    4 1     
    9    3   23 1     
   10    4    5 2     
   11    4    6 2     
   12    4    7 1     
   13    7    8 ar    
   14    7   14 ar    
   15    8    9 ar    
   16    8   20 1     
   17    9   10 ar    
   18    9   21 1     
   19   10   11 1     
   20   10   12 ar    
   21   11   24 1     
   22   12   13 1     
   23   12   14 ar    
   24   13   25 1     
   25   13   26 1     
   26   14   22 1     
@<TRIPOS>SUBSTRUCTURE
      1 ****           1
@<TRIPOS>SET
DONOR_HYDROGENS      STATIC     ATOMS    <user>   **** ""
4 23 24 25 26
ATOM$RED        STATIC     ATOMS    COLORGROUP SYSTEM
4 23 24 25 26
@<TRIPOS>COMMENT
> <Gold.Version>
2022.2.0

> <Gold.Id.Protein>
1qkm|1qkm_protein|mol2

> <Gold.Protein.RotatedTorsions>
[  496  491  490  487 ] final   75.61 input  -89.99 | X-H torsion

> <Gold.Protein.ActiveResidues>
 MET295  LEU298  THR299  LEU301  ALA302  GLU305  TRP335  MET336  LEU339  MET340 
 GLY342  LEU343  ARG346  PHE356  ILE373  ILE376  PHE377  LEU380  LYS471  GLY472 
 MET473  HIS475  LEU476  LEU477  ASN478  MET479  VAL484  VAL487 

> <Gold.Protein.RotatedAtoms>
   36.6877   33.1410   42.1795 H   0  0  0  0  0  0  0  0  0  0  0  0  # atno 496  bound_to 491 

> <Gold.Score>
     Score     S(PLP)   S(hbond)     S(cho)   S(metal)  DE(clash)   DE(tors)     intcor
     48.20     -42.26       2.00       0.00       0.00       0.00       1.52       2.97

> <Gold.PLP.Fitness>
48.1954

> <Gold.PLP.PLP>
-42.2601

> <Gold.PLP.part.hbond>
-2.7581

> <Gold.PLP.part.metal>
0.0000

> <Gold.PLP.part.buried>
-3.9652

> <Gold.PLP.part.nonpolar>
-36.7135

> <Gold.PLP.part.repulsive>
0.1182

> <Gold.PLP.ligand.clash>
0.0000

> <Gold.PLP.ligand.torsion>
1.5174

> <Gold.PLP.Chemscore.Hbond>
2.0000

> <Gold.PLP.Chemscore.CHOScore>
0.0000

> <Gold.PLP.Chemscore.Metal>
0.0000

> <Gold.Chemscore.Hbonds>
donor molecule, donor type, donor heavy atom, donor atom, acceptor molecule, acceptor atom, score
      L1  H    11    24       P1   582  1.00
      L1  H    13    25       P1   582  1.00

> <Gold.PLP.Chemscore.Internal.Correction>
2.9701

