#       Name:                EN300-6743291_i001
#       Creating user name   aseyller
#       Creation time:       Fri Apr 21 16:40:36 2023


#       File generated by GOLD software.
#

@<TRIPOS>MOLECULE
EN300-6743291_i001
    26    26     1
SMALL
USER_CHARGES


@<TRIPOS>ATOM
      1 C1           3.4539   1.7506  -1.0248 C.3            1 <1>                0.0000
      2 C2           2.2969   1.1159  -0.2506 C.3            1 <1>                0.0000
      3 N3           2.3744  -0.3425  -0.3654 N.pl3          1 <1>                0.0000
      4 S4           1.4923  -1.3016   0.6566 S.o2           1 <1>                0.0000
      5 O5           1.7545  -2.6444   0.2729 O.2            1 <1>                0.0000
      6 O6           1.7240  -0.8089   1.9691 O.2            1 <1>                0.0000
      7 C7          -0.2098  -1.0079   0.3082 C.ar           1 <1>                0.0000
      8 C8          -0.8613  -1.7729  -0.6414 C.ar           1 <1>                0.0000
      9 C9          -2.1969  -1.5467  -0.9195 C.ar           1 <1>                0.0000
     10 C10         -2.8860  -0.5520  -0.2458 C.ar           1 <1>                0.0000
     11 O11         -4.1998  -0.3287  -0.5180 O.3            1 <1>                0.0000
     12 C12         -2.2304   0.2191   0.7115 C.ar           1 <1>                0.0000
     13 N13         -2.9218   1.2258   1.3953 N.pl3          1 <1>                0.0000
     14 C14         -0.8918  -0.0169   0.9888 C.ar           1 <1>                0.0000
     15 H15          3.3962   2.8357  -0.9394 H              1 <1>                0.0000
     16 H16          4.4011   1.4035  -0.6118 H              1 <1>                0.0000
     17 H17          3.3888   1.4648  -2.0746 H              1 <1>                0.0000
     18 H18          2.3620   1.4017   0.7992 H              1 <1>                0.0000
     19 H19          1.3497   1.4630  -0.6636 H              1 <1>                0.0000
     20 H20         -0.3256  -2.5491  -1.1677 H              1 <1>                0.0000
     21 H21         -2.7026  -2.1457  -1.6623 H              1 <1>                0.0000
     22 H22         -0.3806   0.5790   1.7304 H              1 <1>                0.0000
     23 H23          2.9425  -0.7464  -1.0400 H              1 <1>                0.0000
     24 H24         -4.8079  -0.8454   0.0282 H              1 <1>                0.0000
     25 H25         -3.8587   1.3873   1.2029 H              1 <1>                0.0000
     26 H26         -2.4641   1.7619   2.0616 H              1 <1>                0.0000
@<TRIPOS>BOND
    1    1    2 1     
    2    1   15 1     
    3    1   16 1     
    4    1   17 1     
    5    2    3 1     
    6    2   18 1     
    7    2   19 1     
    8    3    4 1     
    9    3   23 1     
   10    4    5 2     
   11    4    6 2     
   12    4    7 1     
   13    7    8 ar    
   14    7   14 ar    
   15    8    9 ar    
   16    8   20 1     
   17    9   10 ar    
   18    9   21 1     
   19   10   11 1     
   20   10   12 ar    
   21   11   24 1     
   22   12   13 1     
   23   12   14 ar    
   24   13   25 1     
   25   13   26 1     
   26   14   22 1     
@<TRIPOS>SUBSTRUCTURE
      1 ****           1
@<TRIPOS>SET
DONOR_HYDROGENS      STATIC     ATOMS    <user>   **** ""
4 23 24 25 26
ATOM$RED        STATIC     ATOMS    COLORGROUP SYSTEM
4 23 24 25 26
