#       Name:                EN300-6743291_i001
#       Creating user name   aseyller
#       Creation time:       Fri Apr 21 16:40:52 2023


#       File generated by GOLD software.
#

@<TRIPOS>MOLECULE
EN300-6743291_i001|aminophenols|mol2|93|dock14
    26    26     1
SMALL
USER_CHARGES


@<TRIPOS>ATOM
      1 C1          32.3033  37.9105  35.5173 C.3            1 <1>                0.0000
      2 C2          32.1739  37.5974  37.0093 C.3            1 <1>                0.0000
      3 N3          30.9985  38.2830  37.5520 N.pl3          1 <1>                0.0000
      4 S4          29.4933  37.9515  36.9461 S.o2           1 <1>                0.0000
      5 O5          28.9261  39.2004  36.5752 O.2            1 <1>                0.0000
      6 O6          29.6556  36.8710  36.0376 O.2            1 <1>                0.0000
      7 C7          28.5179  37.3383  38.2792 C.ar           1 <1>                0.0000
      8 C8          27.1385  37.4027  38.2110 C.ar           1 <1>                0.0000
      9 C9          26.3677  36.9235  39.2544 C.ar           1 <1>                0.0000
     10 C10         26.9769  36.3768  40.3716 C.ar           1 <1>                0.0000
     11 O11         26.2200  35.9048  41.3984 O.3            1 <1>                0.0000
     12 C12         28.3668  36.3112  40.4410 C.ar           1 <1>                0.0000
     13 N13         28.9879  35.7599  41.5677 N.pl3          1 <1>                0.0000
     14 C14         29.1334  36.7892  39.3883 C.ar           1 <1>                0.0000
     15 H15         33.1778  37.4004  35.1135 H              1 <1>                0.0000
     16 H16         31.4097  37.5680  34.9953 H              1 <1>                0.0000
     17 H17         32.4144  38.9861  35.3800 H              1 <1>                0.0000
     18 H18         32.0628  36.5218  37.1466 H              1 <1>                0.0000
     19 H19         33.0674  37.9399  37.5312 H              1 <1>                0.0000
     20 H20         26.6617  37.8286  37.3406 H              1 <1>                0.0000
     21 H21         25.2905  36.9759  39.1981 H              1 <1>                0.0000
     22 H22         30.2111  36.7398  39.4389 H              1 <1>                0.0000
     23 H23         31.1018  38.9312  38.2662 H              1 <1>                0.0000
     24 H24         26.7352  35.5582  42.1397 H              1 <1>                0.0000
     25 H25         28.4504  35.4228  42.3015 H              1 <1>                0.0000
     26 H26         29.9556  35.7148  41.6147 H              1 <1>                0.0000
@<TRIPOS>BOND
    1    1    2 1     
    2    1   15 1     
    3    1   16 1     
    4    1   17 1     
    5    2    3 1     
    6    2   18 1     
    7    2   19 1     
    8    3    4 1     
    9    3   23 1     
   10    4    5 2     
   11    4    6 2     
   12    4    7 1     
   13    7    8 ar    
   14    7   14 ar    
   15    8    9 ar    
   16    8   20 1     
   17    9   10 ar    
   18    9   21 1     
   19   10   11 1     
   20   10   12 ar    
   21   11   24 1     
   22   12   13 1     
   23   12   14 ar    
   24   13   25 1     
   25   13   26 1     
   26   14   22 1     
@<TRIPOS>SUBSTRUCTURE
      1 ****           1
@<TRIPOS>SET
DONOR_HYDROGENS      STATIC     ATOMS    <user>   **** ""
4 23 24 25 26
ATOM$RED        STATIC     ATOMS    COLORGROUP SYSTEM
4 23 24 25 26
@<TRIPOS>COMMENT
> <Gold.Version>
2022.2.0

> <Gold.Id.Protein>
1qkm|1qkm_protein|mol2

> <Gold.Protein.RotatedTorsions>
[  496  491  490  487 ] final  -76.82 input  -89.99 | X-H torsion

> <Gold.Protein.ActiveResidues>
 MET295  LEU298  THR299  LEU301  ALA302  GLU305  TRP335  MET336  LEU339  MET340 
 GLY342  LEU343  ARG346  PHE356  ILE373  ILE376  PHE377  LEU380  LYS471  GLY472 
 MET473  HIS475  LEU476  LEU477  ASN478  MET479  VAL484  VAL487 

> <Gold.Protein.RotatedAtoms>
   36.6375   34.7176   41.2477 H   0  0  0  0  0  0  0  0  0  0  0  0  # atno 496  bound_to 491 

> <Gold.Score>
     Score     S(PLP)   S(hbond)     S(cho)   S(metal)  DE(clash)   DE(tors)     intcor
     41.22     -37.04       1.57       0.00       0.00       0.00       1.75       2.97

> <Gold.PLP.Fitness>
41.2168

> <Gold.PLP.PLP>
-37.0383

> <Gold.PLP.part.hbond>
-2.0000

> <Gold.PLP.part.metal>
0.0000

> <Gold.PLP.part.buried>
-3.3656

> <Gold.PLP.part.nonpolar>
-32.4019

> <Gold.PLP.part.repulsive>
0.0837

> <Gold.PLP.ligand.clash>
0.0000

> <Gold.PLP.ligand.torsion>
1.7512

> <Gold.PLP.Chemscore.Hbond>
1.5710

> <Gold.PLP.Chemscore.CHOScore>
0.0000

> <Gold.PLP.Chemscore.Metal>
0.0000

> <Gold.Chemscore.Hbonds>
donor molecule, donor type, donor heavy atom, donor atom, acceptor molecule, acceptor atom, score
      L1  H    11    24       P1   582  0.57
      L1  H    13    26       P1   470  1.00

> <Gold.PLP.Chemscore.Internal.Correction>
2.9679

