#       Name:                EN300-6743291_i001
#       Creating user name   aseyller
#       Creation time:       Fri Apr 21 16:40:50 2023


#       File generated by GOLD software.
#

@<TRIPOS>MOLECULE
EN300-6743291_i001|aminophenols|mol2|93|dock12
    26    26     1
SMALL
USER_CHARGES


@<TRIPOS>ATOM
      1 C1          32.9436  36.9792  34.9137 C.3            1 <1>                0.0000
      2 C2          31.8672  36.0643  35.5011 C.3            1 <1>                0.0000
      3 N3          30.5802  36.7641  35.5045 N.pl3          1 <1>                0.0000
      4 S4          30.3243  38.0220  36.5507 S.o2           1 <1>                0.0000
      5 O5          31.5619  38.2543  37.2091 O.2            1 <1>                0.0000
      6 O6          29.6360  39.0231  35.8138 O.2            1 <1>                0.0000
      7 C7          29.2029  37.4536  37.7854 C.ar           1 <1>                0.0000
      8 C8          27.8402  37.5843  37.5920 C.ar           1 <1>                0.0000
      9 C9          26.9553  37.1406  38.5576 C.ar           1 <1>                0.0000
     10 C10         27.4331  36.5629  39.7221 C.ar           1 <1>                0.0000
     11 O11         26.5638  36.1257  40.6725 O.3            1 <1>                0.0000
     12 C12         28.8061  36.4305  39.9177 C.ar           1 <1>                0.0000
     13 N13         29.2945  35.8476  41.0927 N.pl3          1 <1>                0.0000
     14 C14         29.6876  36.8733  38.9424 C.ar           1 <1>                0.0000
     15 H15         33.9012  36.4586  34.9112 H              1 <1>                0.0000
     16 H16         32.6738  37.2485  33.8924 H              1 <1>                0.0000
     17 H17         33.0227  37.8824  35.5187 H              1 <1>                0.0000
     18 H18         31.7881  35.1611  34.8961 H              1 <1>                0.0000
     19 H19         32.1370  35.7951  36.5224 H              1 <1>                0.0000
     20 H20         27.4658  38.0344  36.6844 H              1 <1>                0.0000
     21 H21         25.8915  37.2448  38.4036 H              1 <1>                0.0000
     22 H22         30.7526  36.7721  39.0908 H              1 <1>                0.0000
     23 H23         29.8778  36.4906  34.8939 H              1 <1>                0.0000
     24 H24         26.3949  35.1740  40.6429 H              1 <1>                0.0000
     25 H25         28.6768  35.5352  41.7722 H              1 <1>                0.0000
     26 H26         30.2507  35.7560  41.2275 H              1 <1>                0.0000
@<TRIPOS>BOND
    1    1    2 1     
    2    1   15 1     
    3    1   16 1     
    4    1   17 1     
    5    2    3 1     
    6    2   18 1     
    7    2   19 1     
    8    3    4 1     
    9    3   23 1     
   10    4    5 2     
   11    4    6 2     
   12    4    7 1     
   13    7    8 ar    
   14    7   14 ar    
   15    8    9 ar    
   16    8   20 1     
   17    9   10 ar    
   18    9   21 1     
   19   10   11 1     
   20   10   12 ar    
   21   11   24 1     
   22   12   13 1     
   23   12   14 ar    
   24   13   25 1     
   25   13   26 1     
   26   14   22 1     
@<TRIPOS>SUBSTRUCTURE
      1 ****           1
@<TRIPOS>SET
DONOR_HYDROGENS      STATIC     ATOMS    <user>   **** ""
4 23 24 25 26
ATOM$RED        STATIC     ATOMS    COLORGROUP SYSTEM
4 23 24 25 26
@<TRIPOS>COMMENT
> <Gold.Version>
2022.2.0

> <Gold.Id.Protein>
1qkm|1qkm_protein|mol2

> <Gold.Protein.RotatedTorsions>
[  496  491  490  487 ] final -148.59 input  -89.99 | X-H torsion

> <Gold.Protein.ActiveResidues>
 MET295  LEU298  THR299  LEU301  ALA302  GLU305  TRP335  MET336  LEU339  MET340 
 GLY342  LEU343  ARG346  PHE356  ILE373  ILE376  PHE377  LEU380  LYS471  GLY472 
 MET473  HIS475  LEU476  LEU477  ASN478  MET479  VAL484  VAL487 

> <Gold.Protein.RotatedAtoms>
   37.2239   33.9418   40.7215 H   0  0  0  0  0  0  0  0  0  0  0  0  # atno 496  bound_to 491 

> <Gold.Score>
     Score     S(PLP)   S(hbond)     S(cho)   S(metal)  DE(clash)   DE(tors)     intcor
     40.86     -38.00       1.00       0.00       0.00       0.00       1.55       2.97

> <Gold.PLP.Fitness>
40.8640

> <Gold.PLP.PLP>
-37.9963

> <Gold.PLP.part.hbond>
-1.0000

> <Gold.PLP.part.metal>
0.0000

> <Gold.PLP.part.buried>
-3.0453

> <Gold.PLP.part.nonpolar>
-34.0527

> <Gold.PLP.part.repulsive>
0.0741

> <Gold.PLP.ligand.clash>
0.0000

> <Gold.PLP.ligand.torsion>
1.5501

> <Gold.PLP.Chemscore.Hbond>
1.0000

> <Gold.PLP.Chemscore.CHOScore>
0.0000

> <Gold.PLP.Chemscore.Metal>
0.0000

> <Gold.Chemscore.Hbonds>
donor molecule, donor type, donor heavy atom, donor atom, acceptor molecule, acceptor atom, score
      L1  H    13    26       P1   470  1.00

> <Gold.PLP.Chemscore.Internal.Correction>
2.9679

