#       Name:                EN300-6743291_i001
#       Creating user name   aseyller
#       Creation time:       Fri Apr 21 16:40:57 2023


#       File generated by GOLD software.
#

@<TRIPOS>MOLECULE
EN300-6743291_i001|aminophenols|mol2|93|dock18
    26    26     1
SMALL
USER_CHARGES


@<TRIPOS>ATOM
      1 C1          32.1237  38.2972  34.1244 C.3            1 <1>                0.0000
      2 C2          31.0685  39.0700  34.9183 C.3            1 <1>                0.0000
      3 N3          31.2031  38.7569  36.3431 N.pl3          1 <1>                0.0000
      4 S4          31.1876  37.1802  36.8495 S.o2           1 <1>                0.0000
      5 O5          30.9117  36.3922  35.6997 O.2            1 <1>                0.0000
      6 O6          32.3472  37.0051  37.6518 O.2            1 <1>                0.0000
      7 C7          29.8050  36.9916  37.9254 C.ar           1 <1>                0.0000
      8 C8          28.5346  37.3016  37.4766 C.ar           1 <1>                0.0000
      9 C9          27.4458  37.1561  38.3166 C.ar           1 <1>                0.0000
     10 C10         27.6259  36.6982  39.6112 C.ar           1 <1>                0.0000
     11 O11         26.5558  36.5542  40.4384 O.3            1 <1>                0.0000
     12 C12         28.9056  36.3853  40.0642 C.ar           1 <1>                0.0000
     13 N13         29.0935  35.9223  41.3716 N.pl3          1 <1>                0.0000
     14 C14         29.9925  36.5289  39.2143 C.ar           1 <1>                0.0000
     15 H15         32.0236  38.5302  33.0644 H              1 <1>                0.0000
     16 H16         33.1181  38.5837  34.4670 H              1 <1>                0.0000
     17 H17         31.9814  37.2273  34.2763 H              1 <1>                0.0000
     18 H18         31.2109  40.1399  34.7664 H              1 <1>                0.0000
     19 H19         30.0742  38.7835  34.5757 H              1 <1>                0.0000
     20 H20         28.3922  37.6587  36.4673 H              1 <1>                0.0000
     21 H21         26.4549  37.3997  37.9630 H              1 <1>                0.0000
     22 H22         30.9860  36.2871  39.5622 H              1 <1>                0.0000
     23 H23         31.3012  39.4731  36.9899 H              1 <1>                0.0000
     24 H24         25.8142  37.1379  40.2273 H              1 <1>                0.0000
     25 H25         28.3321  35.8190  41.9637 H              1 <1>                0.0000
     26 H26         29.9851  35.7047  41.6857 H              1 <1>                0.0000
@<TRIPOS>BOND
    1    1    2 1     
    2    1   15 1     
    3    1   16 1     
    4    1   17 1     
    5    2    3 1     
    6    2   18 1     
    7    2   19 1     
    8    3    4 1     
    9    3   23 1     
   10    4    5 2     
   11    4    6 2     
   12    4    7 1     
   13    7    8 ar    
   14    7   14 ar    
   15    8    9 ar    
   16    8   20 1     
   17    9   10 ar    
   18    9   21 1     
   19   10   11 1     
   20   10   12 ar    
   21   11   24 1     
   22   12   13 1     
   23   12   14 ar    
   24   13   25 1     
   25   13   26 1     
   26   14   22 1     
@<TRIPOS>SUBSTRUCTURE
      1 ****           1
@<TRIPOS>SET
DONOR_HYDROGENS      STATIC     ATOMS    <user>   **** ""
4 23 24 25 26
ATOM$RED        STATIC     ATOMS    COLORGROUP SYSTEM
4 23 24 25 26
@<TRIPOS>COMMENT
> <Gold.Version>
2022.2.0

> <Gold.Id.Protein>
1qkm|1qkm_protein|mol2

> <Gold.Protein.RotatedTorsions>
[  496  491  490  487 ] final   -6.70 input  -89.99 | X-H torsion

> <Gold.Protein.ActiveResidues>
 MET295  LEU298  THR299  LEU301  ALA302  GLU305  TRP335  MET336  LEU339  MET340 
 GLY342  LEU343  ARG346  PHE356  ILE373  ILE376  PHE377  LEU380  LYS471  GLY472 
 MET473  HIS475  LEU476  LEU477  ASN478  MET479  VAL484  VAL487 

> <Gold.Protein.RotatedAtoms>
   36.2597   34.3062   42.1763 H   0  0  0  0  0  0  0  0  0  0  0  0  # atno 496  bound_to 491 

> <Gold.Score>
     Score     S(PLP)   S(hbond)     S(cho)   S(metal)  DE(clash)   DE(tors)     intcor
     39.11     -36.37       1.00       0.00       0.00       0.00       1.62       2.97

> <Gold.PLP.Fitness>
39.1081

> <Gold.PLP.PLP>
-36.3718

> <Gold.PLP.part.hbond>
-1.0000

> <Gold.PLP.part.metal>
0.0000

> <Gold.PLP.part.buried>
-4.7937

> <Gold.PLP.part.nonpolar>
-31.5101

> <Gold.PLP.part.repulsive>
0.1290

> <Gold.PLP.ligand.clash>
0.0000

> <Gold.PLP.ligand.torsion>
1.6158

> <Gold.PLP.Chemscore.Hbond>
1.0000

> <Gold.PLP.Chemscore.CHOScore>
0.0000

> <Gold.PLP.Chemscore.Metal>
0.0000

> <Gold.Chemscore.Hbonds>
donor molecule, donor type, donor heavy atom, donor atom, acceptor molecule, acceptor atom, score
      L1  H    13    26       P1   470  1.00

> <Gold.PLP.Chemscore.Internal.Correction>
2.9679

