#       Name:                EN300-6743291_i001
#       Creating user name   aseyller
#       Creation time:       Fri Apr 21 16:40:59 2023


#       File generated by GOLD software.
#

@<TRIPOS>MOLECULE
EN300-6743291_i001|aminophenols|mol2|93|dock20
    26    26     1
SMALL
USER_CHARGES


@<TRIPOS>ATOM
      1 C1          31.0815  37.3350  35.3402 C.3            1 <1>                0.0000
      2 C2          31.0457  36.5352  36.6441 C.3            1 <1>                0.0000
      3 N3          29.6633  36.4366  37.1186 N.pl3          1 <1>                0.0000
      4 S4          28.8490  37.8006  37.5865 S.o2           1 <1>                0.0000
      5 O5          29.8025  38.6372  38.2267 O.2            1 <1>                0.0000
      6 O6          28.0811  38.2141  36.4647 O.2            1 <1>                0.0000
      7 C7          27.6958  37.3192  38.8287 C.ar           1 <1>                0.0000
      8 C8          26.4070  37.8189  38.8041 C.ar           1 <1>                0.0000
      9 C9          25.4977  37.4452  39.7766 C.ar           1 <1>                0.0000
     10 C10         25.8767  36.5676  40.7787 C.ar           1 <1>                0.0000
     11 O11         24.9832  36.1988  41.7357 O.3            1 <1>                0.0000
     12 C12         27.1750  36.0632  40.8042 C.ar           1 <1>                0.0000
     13 N13         27.5636  35.1761  41.8147 N.pl3          1 <1>                0.0000
     14 C14         28.0803  36.4387  39.8224 C.ar           1 <1>                0.0000
     15 H15         32.1101  37.4085  34.9872 H              1 <1>                0.0000
     16 H16         30.4744  36.8311  34.5881 H              1 <1>                0.0000
     17 H17         30.6856  38.3351  35.5164 H              1 <1>                0.0000
     18 H18         31.4417  35.5352  36.4679 H              1 <1>                0.0000
     19 H19         31.6529  37.0392  37.3962 H              1 <1>                0.0000
     20 H20         26.1096  38.5033  38.0233 H              1 <1>                0.0000
     21 H21         24.4919  37.8379  39.7547 H              1 <1>                0.0000
     22 H22         29.0876  36.0495  39.8391 H              1 <1>                0.0000
     23 H23         29.2248  35.5722  37.1588 H              1 <1>                0.0000
     24 H24         25.2899  35.4786  42.3034 H              1 <1>                0.0000
     25 H25         26.9285  34.9117  42.4985 H              1 <1>                0.0000
     26 H26         28.4679  34.8257  41.8311 H              1 <1>                0.0000
@<TRIPOS>BOND
    1    1    2 1     
    2    1   15 1     
    3    1   16 1     
    4    1   17 1     
    5    2    3 1     
    6    2   18 1     
    7    2   19 1     
    8    3    4 1     
    9    3   23 1     
   10    4    5 2     
   11    4    6 2     
   12    4    7 1     
   13    7    8 ar    
   14    7   14 ar    
   15    8    9 ar    
   16    8   20 1     
   17    9   10 ar    
   18    9   21 1     
   19   10   11 1     
   20   10   12 ar    
   21   11   24 1     
   22   12   13 1     
   23   12   14 ar    
   24   13   25 1     
   25   13   26 1     
   26   14   22 1     
@<TRIPOS>SUBSTRUCTURE
      1 ****           1
@<TRIPOS>SET
DONOR_HYDROGENS      STATIC     ATOMS    <user>   **** ""
4 23 24 25 26
ATOM$RED        STATIC     ATOMS    COLORGROUP SYSTEM
4 23 24 25 26
@<TRIPOS>COMMENT
> <Gold.Version>
2022.2.0

> <Gold.Id.Protein>
1qkm|1qkm_protein|mol2

> <Gold.Protein.RotatedTorsions>
[  496  491  490  487 ] final  -64.26 input  -89.99 | X-H torsion

> <Gold.Protein.ActiveResidues>
 MET295  LEU298  THR299  LEU301  ALA302  GLU305  TRP335  MET336  LEU339  MET340 
 GLY342  LEU343  ARG346  PHE356  ILE373  ILE376  PHE377  LEU380  LYS471  GLY472 
 MET473  HIS475  LEU476  LEU477  ASN478  MET479  VAL484  VAL487 

> <Gold.Protein.RotatedAtoms>
   36.5307   34.7357   41.4233 H   0  0  0  0  0  0  0  0  0  0  0  0  # atno 496  bound_to 491 

> <Gold.Score>
     Score     S(PLP)   S(hbond)     S(cho)   S(metal)  DE(clash)   DE(tors)     intcor
     41.37     -33.94       2.65       0.00       0.00       0.00       1.74       2.97

> <Gold.PLP.Fitness>
41.3729

> <Gold.PLP.PLP>
-33.9412

> <Gold.PLP.part.hbond>
-3.6290

> <Gold.PLP.part.metal>
0.0000

> <Gold.PLP.part.buried>
-0.4425

> <Gold.PLP.part.nonpolar>
-29.7205

> <Gold.PLP.part.repulsive>
0.0689

> <Gold.PLP.ligand.clash>
0.0000

> <Gold.PLP.ligand.torsion>
1.7427

> <Gold.PLP.Chemscore.Hbond>
2.6497

> <Gold.PLP.Chemscore.CHOScore>
0.0000

> <Gold.PLP.Chemscore.Metal>
0.0000

> <Gold.Chemscore.Hbonds>
donor molecule, donor type, donor heavy atom, donor atom, acceptor molecule, acceptor atom, score
      L1  H    11    24       P1   582  1.00
      L1  H    13    25       P1   582  1.00
      P1  H  1258  1270       L1    11  0.65

> <Gold.PLP.Chemscore.Internal.Correction>
2.9679

