#       Name:                EN300-6743291_i001
#       Creating user name   aseyller
#       Creation time:       Fri Apr 21 16:40:46 2023


#       File generated by GOLD software.
#

@<TRIPOS>MOLECULE
EN300-6743291_i001|aminophenols|mol2|93|dock9
    26    26     1
SMALL
USER_CHARGES


@<TRIPOS>ATOM
      1 C1          29.1703  39.8105  36.6770 C.3            1 <1>                0.0000
      2 C2          29.7021  38.6777  35.7967 C.3            1 <1>                0.0000
      3 N3          29.3696  37.3880  36.4068 N.pl3          1 <1>                0.0000
      4 S4          29.9418  37.0134  37.9151 S.o2           1 <1>                0.0000
      5 O5          30.6023  35.7611  37.7941 O.2            1 <1>                0.0000
      6 O6          30.5801  38.1848  38.4044 O.2            1 <1>                0.0000
      7 C7          28.5425  36.7399  38.9505 C.ar           1 <1>                0.0000
      8 C8          27.2720  37.0140  38.4795 C.ar           1 <1>                0.0000
      9 C9          26.1701  36.8019  39.2877 C.ar           1 <1>                0.0000
     10 C10         26.3373  36.3130  40.5727 C.ar           1 <1>                0.0000
     11 O11         25.2543  36.1035  41.3685 O.3            1 <1>                0.0000
     12 C12         27.6172  36.0361  41.0480 C.ar           1 <1>                0.0000
     13 N13         27.7921  35.5421  42.3458 N.pl3          1 <1>                0.0000
     14 C14         28.7175  36.2466  40.2298 C.ar           1 <1>                0.0000
     15 H15         29.4177  40.7700  36.2230 H              1 <1>                0.0000
     16 H16         28.0879  39.7208  36.7699 H              1 <1>                0.0000
     17 H17         29.6262  39.7476  37.6650 H              1 <1>                0.0000
     18 H18         29.2462  38.7405  34.8087 H              1 <1>                0.0000
     19 H19         30.7845  38.7673  35.7038 H              1 <1>                0.0000
     20 H20         27.1396  37.3952  37.4777 H              1 <1>                0.0000
     21 H21         25.1790  37.0177  38.9168 H              1 <1>                0.0000
     22 H22         29.7111  36.0329  40.5952 H              1 <1>                0.0000
     23 H23         28.8144  36.7533  35.9273 H              1 <1>                0.0000
     24 H24         25.4371  35.5578  42.1456 H              1 <1>                0.0000
     25 H25         27.0215  35.3920  42.9156 H              1 <1>                0.0000
     26 H26         28.6838  35.3497  42.6755 H              1 <1>                0.0000
@<TRIPOS>BOND
    1    1    2 1     
    2    1   15 1     
    3    1   16 1     
    4    1   17 1     
    5    2    3 1     
    6    2   18 1     
    7    2   19 1     
    8    3    4 1     
    9    3   23 1     
   10    4    5 2     
   11    4    6 2     
   12    4    7 1     
   13    7    8 ar    
   14    7   14 ar    
   15    8    9 ar    
   16    8   20 1     
   17    9   10 ar    
   18    9   21 1     
   19   10   11 1     
   20   10   12 ar    
   21   11   24 1     
   22   12   13 1     
   23   12   14 ar    
   24   13   25 1     
   25   13   26 1     
   26   14   22 1     
@<TRIPOS>SUBSTRUCTURE
      1 ****           1
@<TRIPOS>SET
DONOR_HYDROGENS      STATIC     ATOMS    <user>   **** ""
4 23 24 25 26
ATOM$RED        STATIC     ATOMS    COLORGROUP SYSTEM
4 23 24 25 26
@<TRIPOS>COMMENT
> <Gold.Version>
2022.2.0

> <Gold.Id.Protein>
1qkm|1qkm_protein|mol2

> <Gold.Protein.RotatedTorsions>
[  496  491  490  487 ] final   88.68 input  -89.99 | X-H torsion

> <Gold.Protein.ActiveResidues>
 MET295  LEU298  THR299  LEU301  ALA302  GLU305  TRP335  MET336  LEU339  MET340 
 GLY342  LEU343  ARG346  PHE356  ILE373  ILE376  PHE377  LEU380  LYS471  GLY472 
 MET473  HIS475  LEU476  LEU477  ASN478  MET479  VAL484  VAL487 

> <Gold.Protein.RotatedAtoms>
   36.8081   33.0308   42.0398 H   0  0  0  0  0  0  0  0  0  0  0  0  # atno 496  bound_to 491 

> <Gold.Score>
     Score     S(PLP)   S(hbond)     S(cho)   S(metal)  DE(clash)   DE(tors)     intcor
     44.93     -39.53       2.00       0.00       0.00       0.00       1.78       2.97

> <Gold.PLP.Fitness>
44.9313

> <Gold.PLP.PLP>
-39.5322

> <Gold.PLP.part.hbond>
-2.3085

> <Gold.PLP.part.metal>
0.0000

> <Gold.PLP.part.buried>
-1.1314

> <Gold.PLP.part.nonpolar>
-36.1907

> <Gold.PLP.part.repulsive>
0.1016

> <Gold.PLP.ligand.clash>
0.0000

> <Gold.PLP.ligand.torsion>
1.7844

> <Gold.PLP.Chemscore.Hbond>
2.0000

> <Gold.PLP.Chemscore.CHOScore>
0.0000

> <Gold.PLP.Chemscore.Metal>
0.0000

> <Gold.Chemscore.Hbonds>
donor molecule, donor type, donor heavy atom, donor atom, acceptor molecule, acceptor atom, score
      L1  H    11    24       P1   582  1.00
      L1  H    13    25       P1   582  1.00

> <Gold.PLP.Chemscore.Internal.Correction>
2.9679

