#       Name:                EN300-6743291_i001
#       Creating user name   aseyller
#       Creation time:       Fri Apr 21 16:40:56 2023


#       File generated by GOLD software.
#

@<TRIPOS>MOLECULE
EN300-6743291_i001|aminophenols|mol2|93|dock17
    26    26     1
SMALL
USER_CHARGES


@<TRIPOS>ATOM
      1 C1          32.8177  36.5528  35.3071 C.3            1 <1>                0.0000
      2 C2          32.0627  35.4976  36.1180 C.3            1 <1>                0.0000
      3 N3          30.7926  36.0580  36.5860 N.pl3          1 <1>                0.0000
      4 S4          30.7658  37.0624  37.9025 S.o2           1 <1>                0.0000
      5 O5          31.8841  36.7048  38.7028 O.2            1 <1>                0.0000
      6 O6          30.5569  38.3754  37.4011 O.2            1 <1>                0.0000
      7 C7          29.3314  36.6540  38.8409 C.ar           1 <1>                0.0000
      8 C8          28.0792  36.7483  38.2626 C.ar           1 <1>                0.0000
      9 C9          26.9498  36.4296  38.9942 C.ar           1 <1>                0.0000
     10 C10         27.0710  36.0142  40.3098 C.ar           1 <1>                0.0000
     11 O11         25.9610  35.7001  41.0305 O.3            1 <1>                0.0000
     12 C12         28.3325  35.9186  40.8932 C.ar           1 <1>                0.0000
     13 N13         28.4609  35.4995  42.2225 N.pl3          1 <1>                0.0000
     14 C14         29.4613  36.2351  40.1516 C.ar           1 <1>                0.0000
     15 H15         33.7626  36.1358  34.9589 H              1 <1>                0.0000
     16 H16         32.2147  36.8521  34.4498 H              1 <1>                0.0000
     17 H17         33.0134  37.4220  35.9349 H              1 <1>                0.0000
     18 H18         31.8669  34.6283  35.4903 H              1 <1>                0.0000
     19 H19         32.6656  35.1983  36.9754 H              1 <1>                0.0000
     20 H20         27.9827  37.0719  37.2367 H              1 <1>                0.0000
     21 H21         25.9731  36.5049  38.5396 H              1 <1>                0.0000
     22 H22         30.4407  36.1619  40.6008 H              1 <1>                0.0000
     23 H23         29.9673  35.8407  36.1249 H              1 <1>                0.0000
     24 H24         26.1506  35.3043  41.8922 H              1 <1>                0.0000
     25 H25         27.6709  35.2752  42.7388 H              1 <1>                0.0000
     26 H26         29.3398  35.4333  42.6274 H              1 <1>                0.0000
@<TRIPOS>BOND
    1    1    2 1     
    2    1   15 1     
    3    1   16 1     
    4    1   17 1     
    5    2    3 1     
    6    2   18 1     
    7    2   19 1     
    8    3    4 1     
    9    3   23 1     
   10    4    5 2     
   11    4    6 2     
   12    4    7 1     
   13    7    8 ar    
   14    7   14 ar    
   15    8    9 ar    
   16    8   20 1     
   17    9   10 ar    
   18    9   21 1     
   19   10   11 1     
   20   10   12 ar    
   21   11   24 1     
   22   12   13 1     
   23   12   14 ar    
   24   13   25 1     
   25   13   26 1     
   26   14   22 1     
@<TRIPOS>SUBSTRUCTURE
      1 ****           1
@<TRIPOS>SET
DONOR_HYDROGENS      STATIC     ATOMS    <user>   **** ""
4 23 24 25 26
ATOM$RED        STATIC     ATOMS    COLORGROUP SYSTEM
4 23 24 25 26
@<TRIPOS>COMMENT
> <Gold.Version>
2022.2.0

> <Gold.Id.Protein>
1qkm|1qkm_protein|mol2

> <Gold.Protein.RotatedTorsions>
[  496  491  490  487 ] final  -34.56 input  -89.99 | X-H torsion

> <Gold.Protein.ActiveResidues>
 MET295  LEU298  THR299  LEU301  ALA302  GLU305  TRP335  MET336  LEU339  MET340 
 GLY342  LEU343  ARG346  PHE356  ILE373  ILE376  PHE377  LEU380  LYS471  GLY472 
 MET473  HIS475  LEU476  LEU477  ASN478  MET479  VAL484  VAL487 

> <Gold.Protein.RotatedAtoms>
   36.3352   34.6100   41.8472 H   0  0  0  0  0  0  0  0  0  0  0  0  # atno 496  bound_to 491 

> <Gold.Score>
     Score     S(PLP)   S(hbond)     S(cho)   S(metal)  DE(clash)   DE(tors)     intcor
     39.00     -33.56       2.00       0.00       0.00       0.00       1.77       2.97

> <Gold.PLP.Fitness>
38.9957

> <Gold.PLP.PLP>
-33.5635

> <Gold.PLP.part.hbond>
-2.0000

> <Gold.PLP.part.metal>
0.0000

> <Gold.PLP.part.buried>
1.7834

> <Gold.PLP.part.nonpolar>
-34.6262

> <Gold.PLP.part.repulsive>
0.1666

> <Gold.PLP.ligand.clash>
0.0000

> <Gold.PLP.ligand.torsion>
1.7678

> <Gold.PLP.Chemscore.Hbond>
2.0000

> <Gold.PLP.Chemscore.CHOScore>
0.0000

> <Gold.PLP.Chemscore.Metal>
0.0000

> <Gold.Chemscore.Hbonds>
donor molecule, donor type, donor heavy atom, donor atom, acceptor molecule, acceptor atom, score
      L1  H    11    24       P1   582  1.00
      L1  H    13    25       P1   582  1.00

> <Gold.PLP.Chemscore.Internal.Correction>
2.9679

