#       Name:                EN300-6743291_i001
#       Creating user name   aseyller
#       Creation time:       Fri Apr 21 16:40:38 2023


#       File generated by GOLD software.
#

@<TRIPOS>MOLECULE
EN300-6743291_i001|aminophenols|mol2|93|dock2
    26    26     1
SMALL
USER_CHARGES


@<TRIPOS>ATOM
      1 C1          32.2128  34.7648  37.5951 C.3            1 <1>                0.0000
      2 C2          31.0942  35.3302  38.4726 C.3            1 <1>                0.0000
      3 N3          31.0105  36.7804  38.2828 N.pl3          1 <1>                0.0000
      4 S4          29.6245  37.4580  37.6809 S.o2           1 <1>                0.0000
      5 O5          29.7982  38.8660  37.7621 O.2            1 <1>                0.0000
      6 O6          29.3407  36.7787  36.4655 O.2            1 <1>                0.0000
      7 C7          28.3198  37.0527  38.7937 C.ar           1 <1>                0.0000
      8 C8          27.0116  37.3507  38.4604 C.ar           1 <1>                0.0000
      9 C9          25.9836  37.0355  39.3300 C.ar           1 <1>                0.0000
     10 C10         26.2628  36.4191  40.5384 C.ar           1 <1>                0.0000
     11 O11         25.2526  36.1081  41.3944 O.3            1 <1>                0.0000
     12 C12         27.5807  36.1182  40.8749 C.ar           1 <1>                0.0000
     13 N13         27.8688  35.4954  42.0949 N.pl3          1 <1>                0.0000
     14 C14         28.6064  36.4328  39.9954 C.ar           1 <1>                0.0000
     15 H15         32.2751  33.6858  37.7363 H              1 <1>                0.0000
     16 H16         31.9989  34.9825  36.5486 H              1 <1>                0.0000
     17 H17         33.1612  35.2232  37.8750 H              1 <1>                0.0000
     18 H18         30.1458  34.8717  38.1926 H              1 <1>                0.0000
     19 H19         31.3081  35.1125  39.5190 H              1 <1>                0.0000
     20 H20         26.7919  37.8312  37.5185 H              1 <1>                0.0000
     21 H21         24.9628  37.2702  39.0667 H              1 <1>                0.0000
     22 H22         29.6292  36.2007  40.2532 H              1 <1>                0.0000
     23 H23         31.7669  37.3437  38.5096 H              1 <1>                0.0000
     24 H24         25.5490  35.7106  42.2246 H              1 <1>                0.0000
     25 H25         27.1502  35.2728  42.7073 H              1 <1>                0.0000
     26 H26         28.7868  35.2864  42.3279 H              1 <1>                0.0000
@<TRIPOS>BOND
    1    1    2 1     
    2    1   15 1     
    3    1   16 1     
    4    1   17 1     
    5    2    3 1     
    6    2   18 1     
    7    2   19 1     
    8    3    4 1     
    9    3   23 1     
   10    4    5 2     
   11    4    6 2     
   12    4    7 1     
   13    7    8 ar    
   14    7   14 ar    
   15    8    9 ar    
   16    8   20 1     
   17    9   10 ar    
   18    9   21 1     
   19   10   11 1     
   20   10   12 ar    
   21   11   24 1     
   22   12   13 1     
   23   12   14 ar    
   24   13   25 1     
   25   13   26 1     
   26   14   22 1     
@<TRIPOS>SUBSTRUCTURE
      1 ****           1
@<TRIPOS>SET
DONOR_HYDROGENS      STATIC     ATOMS    <user>   **** ""
4 23 24 25 26
ATOM$RED        STATIC     ATOMS    COLORGROUP SYSTEM
4 23 24 25 26
@<TRIPOS>COMMENT
> <Gold.Version>
2022.2.0

> <Gold.Id.Protein>
1qkm|1qkm_protein|mol2

> <Gold.Protein.RotatedTorsions>
[  496  491  490  487 ] final  112.83 input  -89.99 | X-H torsion

> <Gold.Protein.ActiveResidues>
 MET295  LEU298  THR299  LEU301  ALA302  GLU305  TRP335  MET336  LEU339  MET340 
 GLY342  LEU343  ARG346  PHE356  ILE373  ILE376  PHE377  LEU380  LYS471  GLY472 
 MET473  HIS475  LEU476  LEU477  ASN478  MET479  VAL484  VAL487 

> <Gold.Protein.RotatedAtoms>
   37.0231   32.9400   41.7217 H   0  0  0  0  0  0  0  0  0  0  0  0  # atno 496  bound_to 491 

> <Gold.Score>
     Score     S(PLP)   S(hbond)     S(cho)   S(metal)  DE(clash)   DE(tors)     intcor
     47.60     -42.20       2.00       0.00       0.00       0.00       1.79       2.97

> <Gold.PLP.Fitness>
47.5967

> <Gold.PLP.PLP>
-42.1983

> <Gold.PLP.part.hbond>
-2.5616

> <Gold.PLP.part.metal>
0.0000

> <Gold.PLP.part.buried>
-4.6226

> <Gold.PLP.part.nonpolar>
-36.4377

> <Gold.PLP.part.repulsive>
0.0815

> <Gold.PLP.ligand.clash>
0.0000

> <Gold.PLP.ligand.torsion>
1.7859

> <Gold.PLP.Chemscore.Hbond>
2.0000

> <Gold.PLP.Chemscore.CHOScore>
0.0000

> <Gold.PLP.Chemscore.Metal>
0.0000

> <Gold.Chemscore.Hbonds>
donor molecule, donor type, donor heavy atom, donor atom, acceptor molecule, acceptor atom, score
      L1  H    11    24       P1   582  1.00
      L1  H    13    25       P1   582  1.00

> <Gold.PLP.Chemscore.Internal.Correction>
2.9701

