#       Name:                EN300-6743291_i001
#       Creating user name   aseyller
#       Creation time:       Fri Apr 21 16:40:44 2023


#       File generated by GOLD software.
#

@<TRIPOS>MOLECULE
EN300-6743291_i001|aminophenols|mol2|93|dock7
    26    26     1
SMALL
USER_CHARGES


@<TRIPOS>ATOM
      1 C1          31.8000  33.9281  38.7994 C.3            1 <1>                0.0000
      2 C2          32.1076  35.2207  38.0409 C.3            1 <1>                0.0000
      3 N3          30.9617  35.5788  37.2014 N.pl3          1 <1>                0.0000
      4 S4          30.1846  37.0228  37.4331 S.o2           1 <1>                0.0000
      5 O5          31.1354  37.9004  38.0204 O.2            1 <1>                0.0000
      6 O6          29.5058  37.3124  36.2188 O.2            1 <1>                0.0000
      7 C7          28.9375  36.7547  38.6486 C.ar           1 <1>                0.0000
      8 C8          27.6188  37.0543  38.3613 C.ar           1 <1>                0.0000
      9 C9          26.6357  36.8466  39.3114 C.ar           1 <1>                0.0000
     10 C10         26.9706  36.3365  40.5547 C.ar           1 <1>                0.0000
     11 O11         26.0047  36.1313  41.4901 O.3            1 <1>                0.0000
     12 C12         28.2992  36.0340  40.8450 C.ar           1 <1>                0.0000
     13 N13         28.6434  35.5184  42.0999 N.pl3          1 <1>                0.0000
     14 C14         29.2793  36.2403  39.8851 C.ar           1 <1>                0.0000
     15 H15         32.6526  33.6616  39.4240 H              1 <1>                0.0000
     16 H16         30.9215  34.0758  39.4276 H              1 <1>                0.0000
     17 H17         31.6066  33.1260  38.0871 H              1 <1>                0.0000
     18 H18         32.3010  36.0228  38.7532 H              1 <1>                0.0000
     19 H19         32.9862  35.0731  37.4127 H              1 <1>                0.0000
     20 H20         27.3557  37.4520  37.3923 H              1 <1>                0.0000
     21 H21         25.6066  37.0823  39.0839 H              1 <1>                0.0000
     22 H22         30.3101  36.0067  40.1069 H              1 <1>                0.0000
     23 H23         30.6581  34.9701  36.5099 H              1 <1>                0.0000
     24 H24         26.2594  35.5139  42.1895 H              1 <1>                0.0000
     25 H25         27.9566  35.3714  42.7688 H              1 <1>                0.0000
     26 H26         29.5688  35.3082  42.3006 H              1 <1>                0.0000
@<TRIPOS>BOND
    1    1    2 1     
    2    1   15 1     
    3    1   16 1     
    4    1   17 1     
    5    2    3 1     
    6    2   18 1     
    7    2   19 1     
    8    3    4 1     
    9    3   23 1     
   10    4    5 2     
   11    4    6 2     
   12    4    7 1     
   13    7    8 ar    
   14    7   14 ar    
   15    8    9 ar    
   16    8   20 1     
   17    9   10 ar    
   18    9   21 1     
   19   10   11 1     
   20   10   12 ar    
   21   11   24 1     
   22   12   13 1     
   23   12   14 ar    
   24   13   25 1     
   25   13   26 1     
   26   14   22 1     
@<TRIPOS>SUBSTRUCTURE
      1 ****           1
@<TRIPOS>SET
DONOR_HYDROGENS      STATIC     ATOMS    <user>   **** ""
4 23 24 25 26
ATOM$RED        STATIC     ATOMS    COLORGROUP SYSTEM
4 23 24 25 26
@<TRIPOS>COMMENT
> <Gold.Version>
2022.2.0

> <Gold.Id.Protein>
1qkm|1qkm_protein|mol2

> <Gold.Protein.RotatedTorsions>
[  496  491  490  487 ] final  -88.18 input  -89.99 | X-H torsion

> <Gold.Protein.ActiveResidues>
 MET295  LEU298  THR299  LEU301  ALA302  GLU305  TRP335  MET336  LEU339  MET340 
 GLY342  LEU343  ARG346  PHE356  ILE373  ILE376  PHE377  LEU380  LYS471  GLY472 
 MET473  HIS475  LEU476  LEU477  ASN478  MET479  VAL484  VAL487 

> <Gold.Protein.RotatedAtoms>
   36.7406   34.6648   41.1012 H   0  0  0  0  0  0  0  0  0  0  0  0  # atno 496  bound_to 491 

> <Gold.Score>
     Score     S(PLP)   S(hbond)     S(cho)   S(metal)  DE(clash)   DE(tors)     intcor
     43.65     -38.28       1.85       0.00       0.00       0.00       1.57       2.97

> <Gold.PLP.Fitness>
43.6507

> <Gold.PLP.PLP>
-38.2829

> <Gold.PLP.part.hbond>
-1.8838

> <Gold.PLP.part.metal>
0.0000

> <Gold.PLP.part.buried>
-1.3251

> <Gold.PLP.part.nonpolar>
-36.1448

> <Gold.PLP.part.repulsive>
0.1000

> <Gold.PLP.ligand.clash>
0.0000

> <Gold.PLP.ligand.torsion>
1.5682

> <Gold.PLP.Chemscore.Hbond>
1.8450

> <Gold.PLP.Chemscore.CHOScore>
0.0000

> <Gold.PLP.Chemscore.Metal>
0.0000

> <Gold.Chemscore.Hbonds>
donor molecule, donor type, donor heavy atom, donor atom, acceptor molecule, acceptor atom, score
      L1  H    11    24       P1   582  1.00
      L1  H    13    25       P1   582  0.39
      L1  H    13    26       P1   470  0.46

> <Gold.PLP.Chemscore.Internal.Correction>
2.9692

