#       Name:                EN300-91328_i001
#       Creating user name   fsindt
#       Creation time:       Mon Feb 27 17:09:18 2023


#       File generated by GOLD software.
#

@<TRIPOS>MOLECULE
EN300-91328_i001|acide_1|mol2|31|dock10
     9     8     1
SMALL
USER_CHARGES


@<TRIPOS>ATOM
      1 C1          -4.7114 -10.4222   9.9015 C.3            1 <1>                0.0000
      2 C2          -3.4456 -11.1027  10.2200 C.1            1 <1>                0.0000
      3 C3          -2.4360 -11.6454  10.4740 C.1            1 <1>                0.0000
      4 C4          -1.2046 -12.3074  10.7838 C.2            1 <1>                0.0000
      5 O5          -1.1593 -13.1185  11.6990 O.co2          1 <1>                0.0000
      6 O6          -0.1974 -12.0620  10.1333 O.co2          1 <1>               -1.0000
      7 H7          -5.0371 -10.7100   8.9019 H              1 <1>                0.0000
      8 H8          -5.4713 -10.7098  10.6281 H              1 <1>                0.0000
      9 H9          -4.5630  -9.3430   9.9386 H              1 <1>                0.0000
@<TRIPOS>BOND
    1    1    2 1     
    2    1    7 1     
    3    1    8 1     
    4    1    9 1     
    5    2    3 3     
    6    3    4 1     
    7    4    5 ar    
    8    4    6 ar    
@<TRIPOS>SUBSTRUCTURE
      1 ****           1
@<TRIPOS>COMMENT
> <Gold.Version>
2022.2.0

> <Gold.Id.Protein>
3pbl|protein|mol2

> <Gold.Protein.RotatedTorsions>
[ 1303 1298 1297 1294 ] final  -95.08 input  179.99 | X-H torsion
[ 2461 2456 2455 2452 ] final  -87.79 input   30.03 | X-H torsion
[ 2515 2510 2509 2506 ] final   71.35 input  -89.99 | X-H torsion
[ 3721 3712 3711 3710 ] final -178.04 input -179.91 | X-H torsion
[ 3841 3832 3831 3830 ] final  156.65 input -179.91 | X-H torsion
[ 3767 3762 3761 3758 ] final  101.71 input  -89.99 | X-H torsion
[ 2472 2467 2466 2463 ] final  149.64 input  -89.97 | X-H torsion

> <Gold.Protein.ActiveResidues>
 VAL82   VAL86   LEU89   PHE106  VAL107  ASP110  VAL111  MET112  CYS114  THR115 
 CYS181  SER182  ILE183  PHE188  VAL189  ILE190  SER192  SER193  SER196  TRP342 
 PHE345  PHE346  HIS349  VAL350  TYR365  THR369  GLY372  TYR373 

> <Gold.Protein.RotatedAtoms>
    3.8926   -8.5856    3.8999 H   0  0  0  0  0  0  0  0  0  0  0  0  # atno 1303 bound_to 1298
    0.3463   -8.8838    7.6829 H   0  0  0  0  0  0  0  0  0  0  0  0  # atno 2461 bound_to 2456
   -5.5078   -5.2449    8.5748 H   0  0  0  0  0  0  0  0  0  0  0  0  # atno 2472 bound_to 2467
    2.0988   -7.5402    5.6104 H   0  0  0  0  0  0  0  0  0  0  0  0  # atno 2515 bound_to 2510
   -3.3257  -16.5966   13.5739 H   0  0  0  0  0  0  0  0  0  0  0  0  # atno 3721 bound_to 3712
   -4.0789  -23.2960   10.6528 H   0  0  0  0  0  0  0  0  0  0  0  0  # atno 3767 bound_to 3762
    3.1040  -20.3269    8.5687 H   0  0  0  0  0  0  0  0  0  0  0  0  # atno 3841 bound_to 3832
    4.8910   -9.3950    4.9072 LP  0  0  0  0  0  0  0  0  0  0  0  0  # atno 4297 bound_to 1298
    3.5786  -10.1411    4.2847 LP  0  0  0  0  0  0  0  0  0  0  0  0  # atno 4298 bound_to 1298
    1.8430   -9.0040    8.3254 LP  0  0  0  0  0  0  0  0  0  0  0  0  # atno 4299 bound_to 2456
    1.5481   -7.9204    7.1399 LP  0  0  0  0  0  0  0  0  0  0  0  0  # atno 4300 bound_to 2456
    2.7958   -8.3178    4.3553 LP  0  0  0  0  0  0  0  0  0  0  0  0  # atno 4301 bound_to 2510
    2.4022   -9.1415    5.7093 LP  0  0  0  0  0  0  0  0  0  0  0  0  # atno 4302 bound_to 2510
   -2.7440  -18.0746   13.3400 LP  0  0  0  0  0  0  0  0  0  0  0  0  # atno 4306 bound_to 3712
   -2.9442  -17.4906   14.8518 LP  0  0  0  0  0  0  0  0  0  0  0  0  # atno 4307 bound_to 3712
    2.0224  -21.0097    9.5382 LP  0  0  0  0  0  0  0  0  0  0  0  0  # atno 4314 bound_to 3832
    1.6214  -19.7150    8.6273 LP  0  0  0  0  0  0  0  0  0  0  0  0  # atno 4315 bound_to 3832
   -5.4542  -22.4915   10.2951 LP  0  0  0  0  0  0  0  0  0  0  0  0  # atno 4318 bound_to 3762
   -4.5940  -22.0877   11.6231 LP  0  0  0  0  0  0  0  0  0  0  0  0  # atno 4319 bound_to 3762
   -4.1609   -4.8037    7.7639 LP  0  0  0  0  0  0  0  0  0  0  0  0  # atno 4320 bound_to 2467
   -4.0484   -5.3450    9.3004 LP  0  0  0  0  0  0  0  0  0  0  0  0  # atno 4321 bound_to 2467

> <Gold.Score>
     Score     S(PLP)   S(hbond)     S(cho)   S(metal)  DE(clash)   DE(tors)     intcor
     25.26     -25.26       0.00       0.00       0.00       0.00       0.00       0.00

> <Gold.PLP.Fitness>
25.2590

> <Gold.PLP.PLP>
-25.2590

> <Gold.PLP.part.hbond>
-0.2821

> <Gold.PLP.part.metal>
0.0000

> <Gold.PLP.part.buried>
-3.1370

> <Gold.PLP.part.nonpolar>
-22.3781

> <Gold.PLP.part.repulsive>
0.0712

> <Gold.PLP.ligand.clash>
0.0000

> <Gold.PLP.ligand.torsion>
0.0000

> <Gold.PLP.Chemscore.Hbond>
0.0000

> <Gold.PLP.Chemscore.CHOScore>
0.0000

> <Gold.PLP.Chemscore.Metal>
0.0000

> <Gold.PLP.Chemscore.Internal.Correction>
0.0000

