#       Name:                EN300-91328_i001
#       Creating user name   fsindt
#       Creation time:       Mon Feb 27 17:09:19 2023


#       File generated by GOLD software.
#

@<TRIPOS>MOLECULE
EN300-91328_i001|acide_1|mol2|31|dock16
     9     8     1
SMALL
USER_CHARGES


@<TRIPOS>ATOM
      1 C1           1.7001 -22.5925  14.0999 C.3            1 <1>                0.0000
      2 C2           1.0325 -21.5364  13.3216 C.1            1 <1>                0.0000
      3 C3           0.5000 -20.6942  12.7008 C.1            1 <1>                0.0000
      4 C4          -0.1494 -19.6668  11.9436 C.2            1 <1>                0.0000
      5 O5          -0.9996 -18.9624  12.4714 O.co2          1 <1>                0.0000
      6 O6           0.1458 -19.4932  10.7687 O.co2          1 <1>               -1.0000
      7 H7           2.0297 -23.3854  13.4285 H              1 <1>                0.0000
      8 H8           2.5627 -22.1724  14.6171 H              1 <1>                0.0000
      9 H9           1.0022 -23.0017  14.8304 H              1 <1>                0.0000
@<TRIPOS>BOND
    1    1    2 1     
    2    1    7 1     
    3    1    8 1     
    4    1    9 1     
    5    2    3 3     
    6    3    4 1     
    7    4    5 ar    
    8    4    6 ar    
@<TRIPOS>SUBSTRUCTURE
      1 ****           1
@<TRIPOS>COMMENT
> <Gold.Version>
2022.2.0

> <Gold.Id.Protein>
3pbl|protein|mol2

> <Gold.Protein.RotatedTorsions>
[ 1303 1298 1297 1294 ] final  -23.91 input  179.99 | X-H torsion
[ 2461 2456 2455 2452 ] final   16.68 input   30.03 | X-H torsion
[ 2515 2510 2509 2506 ] final -129.18 input  -89.99 | X-H torsion
[ 3721 3712 3711 3710 ] final   45.28 input -179.91 | X-H torsion
[ 3841 3832 3831 3830 ] final  -27.66 input -179.91 | X-H torsion
[ 3767 3762 3761 3758 ] final  -16.52 input  -89.99 | X-H torsion
[ 2472 2467 2466 2463 ] final   24.67 input  -89.97 | X-H torsion

> <Gold.Protein.ActiveResidues>
 VAL82   VAL86   LEU89   PHE106  VAL107  ASP110  VAL111  MET112  CYS114  THR115 
 CYS181  SER182  ILE183  PHE188  VAL189  ILE190  SER192  SER193  SER196  TRP342 
 PHE345  PHE346  HIS349  VAL350  TYR365  THR369  GLY372  TYR373 

> <Gold.Protein.RotatedAtoms>
    3.3300   -9.5270    3.8742 H   0  0  0  0  0  0  0  0  0  0  0  0  # atno 1303 bound_to 1298
    1.3057   -7.9265    7.0614 H   0  0  0  0  0  0  0  0  0  0  0  0  # atno 2461 bound_to 2456
   -4.0892   -4.8106    7.8029 H   0  0  0  0  0  0  0  0  0  0  0  0  # atno 2472 bound_to 2467
    2.6650   -9.2422    5.1383 H   0  0  0  0  0  0  0  0  0  0  0  0  # atno 2515 bound_to 2510
   -2.5250  -17.9934   13.5776 H   0  0  0  0  0  0  0  0  0  0  0  0  # atno 3721 bound_to 3712
   -5.4445  -22.5126   10.2776 H   0  0  0  0  0  0  0  0  0  0  0  0  # atno 3767 bound_to 3762
    1.5767  -20.1585    9.3637 H   0  0  0  0  0  0  0  0  0  0  0  0  # atno 3841 bound_to 3832
    4.5411   -8.5306    4.3286 LP  0  0  0  0  0  0  0  0  0  0  0  0  # atno 4297 bound_to 1298
    4.4914  -10.0636    4.8889 LP  0  0  0  0  0  0  0  0  0  0  0  0  # atno 4298 bound_to 1298
    0.4251   -9.0411    7.8674 LP  0  0  0  0  0  0  0  0  0  0  0  0  # atno 4299 bound_to 2456
    2.0070   -8.8404    8.2191 LP  0  0  0  0  0  0  0  0  0  0  0  0  # atno 4300 bound_to 2456
    2.0302   -8.0231    6.0196 LP  0  0  0  0  0  0  0  0  0  0  0  0  # atno 4301 bound_to 2510
    2.6014   -7.7334    4.5174 LP  0  0  0  0  0  0  0  0  0  0  0  0  # atno 4302 bound_to 2510
   -3.1066  -17.2073   14.8510 LP  0  0  0  0  0  0  0  0  0  0  0  0  # atno 4306 bound_to 3712
   -3.5059  -16.7454   13.3365 LP  0  0  0  0  0  0  0  0  0  0  0  0  # atno 4307 bound_to 3712
    2.5578  -19.8183    8.1399 LP  0  0  0  0  0  0  0  0  0  0  0  0  # atno 4314 bound_to 3832
    2.8503  -21.1009    9.1072 LP  0  0  0  0  0  0  0  0  0  0  0  0  # atno 4315 bound_to 3832
   -4.6187  -22.0736   11.6163 LP  0  0  0  0  0  0  0  0  0  0  0  0  # atno 4318 bound_to 3762
   -4.0644  -23.2889   10.6770 LP  0  0  0  0  0  0  0  0  0  0  0  0  # atno 4319 bound_to 3762
   -4.1177   -5.3662    9.3381 LP  0  0  0  0  0  0  0  0  0  0  0  0  # atno 4320 bound_to 2467
   -5.5099   -5.2166    8.4979 LP  0  0  0  0  0  0  0  0  0  0  0  0  # atno 4321 bound_to 2467

> <Gold.Score>
     Score     S(PLP)   S(hbond)     S(cho)   S(metal)  DE(clash)   DE(tors)     intcor
     21.33     -15.53       1.93       0.00       0.00       0.00       0.00       0.00

> <Gold.PLP.Fitness>
21.3263

> <Gold.PLP.PLP>
-15.5251

> <Gold.PLP.part.hbond>
-1.9657

> <Gold.PLP.part.metal>
0.0000

> <Gold.PLP.part.buried>
-2.1681

> <Gold.PLP.part.nonpolar>
-11.7418

> <Gold.PLP.part.repulsive>
0.1116

> <Gold.PLP.ligand.clash>
0.0000

> <Gold.PLP.ligand.torsion>
0.0000

> <Gold.PLP.Chemscore.Hbond>
1.9338

> <Gold.PLP.Chemscore.CHOScore>
0.0000

> <Gold.PLP.Chemscore.Metal>
0.0000

> <Gold.Chemscore.Hbonds>
donor molecule, donor type, donor heavy atom, donor atom, acceptor molecule, acceptor atom, score
      P1  H  3712  3721       L1     5  0.96
      P1  H  3832  3841       L1     6  0.98

> <Gold.PLP.Chemscore.Internal.Correction>
0.0000

