#       Name:                EN300-91328_i001
#       Creating user name   fsindt
#       Creation time:       Mon Feb 27 17:09:18 2023


#       File generated by GOLD software.
#

@<TRIPOS>MOLECULE
EN300-91328_i001|acide_1|mol2|31|dock11
     9     8     1
SMALL
USER_CHARGES


@<TRIPOS>ATOM
      1 C1          -1.5834 -23.7842  12.2179 C.3            1 <1>                0.0000
      2 C2          -1.1643 -22.3792  12.0873 C.1            1 <1>                0.0000
      3 C3          -0.8301 -21.2586  11.9831 C.1            1 <1>                0.0000
      4 C4          -0.4225 -19.8917  11.8560 C.2            1 <1>                0.0000
      5 O5          -0.9628 -19.0267  12.5323 O.co2          1 <1>                0.0000
      6 O6           0.4662 -19.5887  11.0712 O.co2          1 <1>               -1.0000
      7 H7          -0.7582 -24.4374  11.9340 H              1 <1>                0.0000
      8 H8          -1.8661 -23.9844  13.2514 H              1 <1>                0.0000
      9 H9          -2.4360 -23.9713  11.5651 H              1 <1>                0.0000
@<TRIPOS>BOND
    1    1    2 1     
    2    1    7 1     
    3    1    8 1     
    4    1    9 1     
    5    2    3 3     
    6    3    4 1     
    7    4    5 ar    
    8    4    6 ar    
@<TRIPOS>SUBSTRUCTURE
      1 ****           1
@<TRIPOS>COMMENT
> <Gold.Version>
2022.2.0

> <Gold.Id.Protein>
3pbl|protein|mol2

> <Gold.Protein.RotatedTorsions>
[ 1303 1298 1297 1294 ] final  158.54 input  179.99 | X-H torsion
[ 2461 2456 2455 2452 ] final  -27.89 input   30.03 | X-H torsion
[ 2515 2510 2509 2506 ] final -129.32 input  -89.99 | X-H torsion
[ 3721 3712 3711 3710 ] final   49.50 input -179.91 | X-H torsion
[ 3841 3832 3831 3830 ] final  -23.25 input -179.91 | X-H torsion
[ 3767 3762 3761 3758 ] final  -17.95 input  -89.99 | X-H torsion
[ 2472 2467 2466 2463 ] final  -86.45 input  -89.97 | X-H torsion

> <Gold.Protein.ActiveResidues>
 VAL82   VAL86   LEU89   PHE106  VAL107  ASP110  VAL111  MET112  CYS114  THR115 
 CYS181  SER182  ILE183  PHE188  VAL189  ILE190  SER192  SER193  SER196  TRP342 
 PHE345  PHE346  HIS349  VAL350  TYR365  THR369  GLY372  TYR373 

> <Gold.Protein.RotatedAtoms>
    4.9116   -9.1826    4.8397 H   0  0  0  0  0  0  0  0  0  0  0  0  # atno 1303 bound_to 1298
    0.6474   -8.2023    7.1071 H   0  0  0  0  0  0  0  0  0  0  0  0  # atno 2461 bound_to 2456
   -3.9964   -5.3279    9.2664 H   0  0  0  0  0  0  0  0  0  0  0  0  # atno 2472 bound_to 2467
    2.6642   -9.2426    5.1404 H   0  0  0  0  0  0  0  0  0  0  0  0  # atno 2515 bound_to 2510
   -2.5416  -17.9734   13.5194 H   0  0  0  0  0  0  0  0  0  0  0  0  # atno 3721 bound_to 3712
   -5.4523  -22.4950   10.2913 H   0  0  0  0  0  0  0  0  0  0  0  0  # atno 3767 bound_to 3762
    1.5909  -20.2112    9.4021 H   0  0  0  0  0  0  0  0  0  0  0  0  # atno 3841 bound_to 3832
    3.7295  -10.2295    4.4239 LP  0  0  0  0  0  0  0  0  0  0  0  0  # atno 4297 bound_to 1298
    3.7207   -8.7092    3.8278 LP  0  0  0  0  0  0  0  0  0  0  0  0  # atno 4298 bound_to 1298
    0.9453   -9.2852    8.2929 LP  0  0  0  0  0  0  0  0  0  0  0  0  # atno 4299 bound_to 2456
    2.1449   -8.3206    7.7480 LP  0  0  0  0  0  0  0  0  0  0  0  0  # atno 4300 bound_to 2456
    2.0301   -8.0210    6.0187 LP  0  0  0  0  0  0  0  0  0  0  0  0  # atno 4301 bound_to 2510
    2.6023   -7.7351    4.5162 LP  0  0  0  0  0  0  0  0  0  0  0  0  # atno 4302 bound_to 2510
   -3.0713  -17.2674   14.8606 LP  0  0  0  0  0  0  0  0  0  0  0  0  # atno 4306 bound_to 3712
   -3.5221  -16.7082   13.3941 LP  0  0  0  0  0  0  0  0  0  0  0  0  # atno 4307 bound_to 3712
    2.4940  -19.7817    8.1467 LP  0  0  0  0  0  0  0  0  0  0  0  0  # atno 4314 bound_to 3832
    2.8976  -21.0766    9.0561 LP  0  0  0  0  0  0  0  0  0  0  0  0  # atno 4315 bound_to 3832
   -4.5988  -22.0850   11.6218 LP  0  0  0  0  0  0  0  0  0  0  0  0  # atno 4318 bound_to 3762
   -4.0766  -23.2950   10.6577 LP  0  0  0  0  0  0  0  0  0  0  0  0  # atno 4319 bound_to 3762
   -5.5012   -5.2653    8.6356 LP  0  0  0  0  0  0  0  0  0  0  0  0  # atno 4320 bound_to 2467
   -4.2192   -4.8004    7.7372 LP  0  0  0  0  0  0  0  0  0  0  0  0  # atno 4321 bound_to 2467

> <Gold.Score>
     Score     S(PLP)   S(hbond)     S(cho)   S(metal)  DE(clash)   DE(tors)     intcor
     19.87     -14.17       1.90       0.00       0.00       0.00       0.00       0.00

> <Gold.PLP.Fitness>
19.8739

> <Gold.PLP.PLP>
-14.1701

> <Gold.PLP.part.hbond>
-1.8634

> <Gold.PLP.part.metal>
0.0000

> <Gold.PLP.part.buried>
-2.4664

> <Gold.PLP.part.nonpolar>
-10.2515

> <Gold.PLP.part.repulsive>
0.1133

> <Gold.PLP.ligand.clash>
0.0000

> <Gold.PLP.ligand.torsion>
0.0000

> <Gold.PLP.Chemscore.Hbond>
1.9013

> <Gold.PLP.Chemscore.CHOScore>
0.0000

> <Gold.PLP.Chemscore.Metal>
0.0000

> <Gold.Chemscore.Hbonds>
donor molecule, donor type, donor heavy atom, donor atom, acceptor molecule, acceptor atom, score
      P1  H  3712  3721       L1     5  0.91
      P1  H  3832  3841       L1     6  0.99

> <Gold.PLP.Chemscore.Internal.Correction>
0.0000

