#       Name:                EN300-91328_i001
#       Creating user name   fsindt
#       Creation time:       Mon Feb 27 17:09:18 2023


#       File generated by GOLD software.
#

@<TRIPOS>MOLECULE
EN300-91328_i001|acide_1|mol2|31|dock8
     9     8     1
SMALL
USER_CHARGES


@<TRIPOS>ATOM
      1 C1          -5.2006 -10.7951   9.5992 C.3            1 <1>                0.0000
      2 C2          -3.8435 -10.9675  10.1428 C.1            1 <1>                0.0000
      3 C3          -2.7612 -11.1049  10.5763 C.1            1 <1>                0.0000
      4 C4          -1.4410 -11.2726  11.1051 C.2            1 <1>                0.0000
      5 O5          -0.9966 -12.3967  11.2962 O.co2          1 <1>                0.0000
      6 O6          -0.7572 -10.2918  11.3659 O.co2          1 <1>               -1.0000
      7 H7          -5.3258 -11.4345   8.7253 H              1 <1>                0.0000
      8 H8          -5.9334 -11.0694  10.3580 H              1 <1>                0.0000
      9 H9          -5.3473  -9.7540   9.3118 H              1 <1>                0.0000
@<TRIPOS>BOND
    1    1    2 1     
    2    1    7 1     
    3    1    8 1     
    4    1    9 1     
    5    2    3 3     
    6    3    4 1     
    7    4    5 ar    
    8    4    6 ar    
@<TRIPOS>SUBSTRUCTURE
      1 ****           1
@<TRIPOS>COMMENT
> <Gold.Version>
2022.2.0

> <Gold.Id.Protein>
3pbl|protein|mol2

> <Gold.Protein.RotatedTorsions>
[ 1303 1298 1297 1294 ] final  -10.27 input  179.99 | X-H torsion
[ 2461 2456 2455 2452 ] final   43.85 input   30.03 | X-H torsion
[ 2515 2510 2509 2506 ] final  -11.45 input  -89.99 | X-H torsion
[ 3721 3712 3711 3710 ] final   93.79 input -179.91 | X-H torsion
[ 3841 3832 3831 3830 ] final   72.96 input -179.91 | X-H torsion
[ 3767 3762 3761 3758 ] final   21.38 input  -89.99 | X-H torsion
[ 2472 2467 2466 2463 ] final -108.38 input  -89.97 | X-H torsion

> <Gold.Protein.ActiveResidues>
 VAL82   VAL86   LEU89   PHE106  VAL107  ASP110  VAL111  MET112  CYS114  THR115 
 CYS181  SER182  ILE183  PHE188  VAL189  ILE190  SER192  SER193  SER196  TRP342 
 PHE345  PHE346  HIS349  VAL350  TYR365  THR369  GLY372  TYR373 

> <Gold.Protein.RotatedAtoms>
    3.3455   -9.7314    3.9643 H   0  0  0  0  0  0  0  0  0  0  0  0  # atno 1303 bound_to 1298
    1.7163   -7.9482    7.2264 H   0  0  0  0  0  0  0  0  0  0  0  0  # atno 2461 bound_to 2456
   -4.3145   -5.4139    9.4081 H   0  0  0  0  0  0  0  0  0  0  0  0  # atno 2472 bound_to 2467
    2.6159   -7.7620    4.4982 H   0  0  0  0  0  0  0  0  0  0  0  0  # atno 2515 bound_to 2510
   -2.8117  -17.5698   13.0828 H   0  0  0  0  0  0  0  0  0  0  0  0  # atno 3721 bound_to 3712
   -5.0927  -22.9673   10.0665 H   0  0  0  0  0  0  0  0  0  0  0  0  # atno 3767 bound_to 3762
    2.6418  -20.9570    9.4191 H   0  0  0  0  0  0  0  0  0  0  0  0  # atno 3841 bound_to 3832
    4.3712   -8.4813    4.1914 LP  0  0  0  0  0  0  0  0  0  0  0  0  # atno 4297 bound_to 1298
    4.6458   -9.9085    4.9360 LP  0  0  0  0  0  0  0  0  0  0  0  0  # atno 4298 bound_to 1298
    0.3307   -8.7518    7.5455 LP  0  0  0  0  0  0  0  0  0  0  0  0  # atno 4299 bound_to 2456
    1.6909   -9.1080    8.3761 LP  0  0  0  0  0  0  0  0  0  0  0  0  # atno 4300 bound_to 2456
    2.6517   -9.2485    5.1727 LP  0  0  0  0  0  0  0  0  0  0  0  0  # atno 4301 bound_to 2510
    2.0290   -7.9889    6.0048 LP  0  0  0  0  0  0  0  0  0  0  0  0  # atno 4302 bound_to 2510
   -2.7406  -17.8761   14.6573 LP  0  0  0  0  0  0  0  0  0  0  0  0  # atno 4306 bound_to 3712
   -3.5409  -16.5656   14.1015 LP  0  0  0  0  0  0  0  0  0  0  0  0  # atno 4307 bound_to 3712
    1.4014  -20.0148    9.0318 LP  0  0  0  0  0  0  0  0  0  0  0  0  # atno 4314 bound_to 3832
    2.7763  -19.9821    8.1513 LP  0  0  0  0  0  0  0  0  0  0  0  0  # atno 4315 bound_to 3832
   -5.1274  -21.9148   11.3147 LP  0  0  0  0  0  0  0  0  0  0  0  0  # atno 4318 bound_to 3762
   -3.9074  -22.9931   11.1896 LP  0  0  0  0  0  0  0  0  0  0  0  0  # atno 4319 bound_to 3762
   -5.4821   -5.1420    8.2993 LP  0  0  0  0  0  0  0  0  0  0  0  0  # atno 4320 bound_to 2467
   -3.9203   -4.8377    7.9319 LP  0  0  0  0  0  0  0  0  0  0  0  0  # atno 4321 bound_to 2467

> <Gold.Score>
     Score     S(PLP)   S(hbond)     S(cho)   S(metal)  DE(clash)   DE(tors)     intcor
     27.46     -27.46       0.00       0.00       0.00       0.00       0.00       0.00

> <Gold.PLP.Fitness>
27.4621

> <Gold.PLP.PLP>
-27.4621

> <Gold.PLP.part.hbond>
0.0000

> <Gold.PLP.part.metal>
0.0000

> <Gold.PLP.part.buried>
-3.1215

> <Gold.PLP.part.nonpolar>
-24.1063

> <Gold.PLP.part.repulsive>
0.0759

> <Gold.PLP.ligand.clash>
0.0000

> <Gold.PLP.ligand.torsion>
0.0000

> <Gold.PLP.Chemscore.Hbond>
0.0000

> <Gold.PLP.Chemscore.CHOScore>
0.0000

> <Gold.PLP.Chemscore.Metal>
0.0000

> <Gold.PLP.Chemscore.Internal.Correction>
0.0000

