#       Name:                EN300-91328_i001
#       Creating user name   fsindt
#       Creation time:       Mon Feb 27 17:09:17 2023


#       File generated by GOLD software.
#

@<TRIPOS>MOLECULE
EN300-91328_i001|acide_1|mol2|31|dock2
     9     8     1
SMALL
USER_CHARGES


@<TRIPOS>ATOM
      1 C1          -4.9007 -10.4971  10.0574 C.3            1 <1>                0.0000
      2 C2          -3.4885 -10.8805   9.8973 C.1            1 <1>                0.0000
      3 C3          -2.3623 -11.1863   9.7696 C.1            1 <1>                0.0000
      4 C4          -0.9885 -11.5593   9.6138 C.2            1 <1>                0.0000
      5 O5          -0.2074 -10.7992   9.0574 O.co2          1 <1>                0.0000
      6 O6          -0.5956 -12.6382  10.0372 O.co2          1 <1>               -1.0000
      7 H7          -5.0011  -9.4192   9.9300 H              1 <1>                0.0000
      8 H8          -5.5035 -11.0093   9.3075 H              1 <1>                0.0000
      9 H9          -5.2430 -10.7787  11.0532 H              1 <1>                0.0000
@<TRIPOS>BOND
    1    1    2 1     
    2    1    7 1     
    3    1    8 1     
    4    1    9 1     
    5    2    3 3     
    6    3    4 1     
    7    4    5 ar    
    8    4    6 ar    
@<TRIPOS>SUBSTRUCTURE
      1 ****           1
@<TRIPOS>COMMENT
> <Gold.Version>
2022.2.0

> <Gold.Id.Protein>
3pbl|protein|mol2

> <Gold.Protein.RotatedTorsions>
[ 1303 1298 1297 1294 ] final -101.08 input  179.99 | X-H torsion
[ 2461 2456 2455 2452 ] final -149.53 input   30.03 | X-H torsion
[ 2515 2510 2509 2506 ] final  104.94 input  -89.99 | X-H torsion
[ 3721 3712 3711 3710 ] final  132.17 input -179.91 | X-H torsion
[ 3841 3832 3831 3830 ] final -148.35 input -179.91 | X-H torsion
[ 3767 3762 3761 3758 ] final   62.07 input  -89.99 | X-H torsion
[ 2472 2467 2466 2463 ] final   17.30 input  -89.97 | X-H torsion

> <Gold.Protein.ActiveResidues>
 VAL82   VAL86   LEU89   PHE106  VAL107  ASP110  VAL111  MET112  CYS114  THR115 
 CYS181  SER182  ILE183  PHE188  VAL189  ILE190  SER192  SER193  SER196  TRP342 
 PHE345  PHE346  HIS349  VAL350  TYR365  THR369  GLY372  TYR373 

> <Gold.Protein.RotatedAtoms>
    3.9730   -8.5449    3.9400 H   0  0  0  0  0  0  0  0  0  0  0  0  # atno 1303 bound_to 1298
    0.9700   -9.2870    8.3034 H   0  0  0  0  0  0  0  0  0  0  0  0  # atno 2461 bound_to 2456
   -3.9901   -4.8243    7.8713 H   0  0  0  0  0  0  0  0  0  0  0  0  # atno 2472 bound_to 2467
    2.0288   -7.9357    5.9785 H   0  0  0  0  0  0  0  0  0  0  0  0  # atno 2515 bound_to 2510
   -3.0953  -17.0761   13.0751 H   0  0  0  0  0  0  0  0  0  0  0  0  # atno 3721 bound_to 3712
   -4.5407  -23.2904   10.2104 H   0  0  0  0  0  0  0  0  0  0  0  0  # atno 3767 bound_to 3762
    2.6072  -19.7397    8.3507 H   0  0  0  0  0  0  0  0  0  0  0  0  # atno 3841 bound_to 3832
    4.8679   -9.4886    4.9274 LP  0  0  0  0  0  0  0  0  0  0  0  0  # atno 4297 bound_to 1298
    3.5214  -10.0881    4.2244 LP  0  0  0  0  0  0  0  0  0  0  0  0  # atno 4298 bound_to 1298
    2.1397   -8.3028    7.7284 LP  0  0  0  0  0  0  0  0  0  0  0  0  # atno 4299 bound_to 2456
    0.6280   -8.2185    7.1165 LP  0  0  0  0  0  0  0  0  0  0  0  0  # atno 4300 bound_to 2456
    2.6381   -7.8088    4.4690 LP  0  0  0  0  0  0  0  0  0  0  0  0  # atno 4301 bound_to 2510
    2.6300   -9.2549    5.2274 LP  0  0  0  0  0  0  0  0  0  0  0  0  # atno 4302 bound_to 2510
   -2.6092  -18.1878   14.1266 LP  0  0  0  0  0  0  0  0  0  0  0  0  # atno 4306 bound_to 3712
   -3.3450  -16.8238   14.6410 LP  0  0  0  0  0  0  0  0  0  0  0  0  # atno 4307 bound_to 3712
    2.8085  -21.1179    9.1483 LP  0  0  0  0  0  0  0  0  0  0  0  0  # atno 4314 bound_to 3832
    1.4091  -20.2850    9.2691 LP  0  0  0  0  0  0  0  0  0  0  0  0  # atno 4315 bound_to 3832
   -5.4725  -22.0770   10.7816 LP  0  0  0  0  0  0  0  0  0  0  0  0  # atno 4318 bound_to 3762
   -4.1141  -22.5079   11.5788 LP  0  0  0  0  0  0  0  0  0  0  0  0  # atno 4319 bound_to 3762
   -4.2266   -5.3944    9.3830 LP  0  0  0  0  0  0  0  0  0  0  0  0  # atno 4320 bound_to 2467
   -5.5001   -5.1747    8.3847 LP  0  0  0  0  0  0  0  0  0  0  0  0  # atno 4321 bound_to 2467

> <Gold.Score>
     Score     S(PLP)   S(hbond)     S(cho)   S(metal)  DE(clash)   DE(tors)     intcor
     28.39     -25.39       1.00       0.00       0.00       0.00       0.00       0.00

> <Gold.PLP.Fitness>
28.3869

> <Gold.PLP.PLP>
-25.3869

> <Gold.PLP.part.hbond>
-1.0000

> <Gold.PLP.part.metal>
0.0000

> <Gold.PLP.part.buried>
-2.9122

> <Gold.PLP.part.nonpolar>
-21.4790

> <Gold.PLP.part.repulsive>
0.0000

> <Gold.PLP.ligand.clash>
0.0000

> <Gold.PLP.ligand.torsion>
0.0000

> <Gold.PLP.Chemscore.Hbond>
1.0000

> <Gold.PLP.Chemscore.CHOScore>
0.0000

> <Gold.PLP.Chemscore.Metal>
0.0000

> <Gold.Chemscore.Hbonds>
donor molecule, donor type, donor heavy atom, donor atom, acceptor molecule, acceptor atom, score
      P1  H  2456  2461       L1     5  1.00

> <Gold.PLP.Chemscore.Internal.Correction>
0.0000

