#       Name:                EN300-91328_i001
#       Creating user name   fsindt
#       Creation time:       Mon Feb 27 17:09:18 2023


#       File generated by GOLD software.
#

@<TRIPOS>MOLECULE
EN300-91328_i001|acide_1|mol2|31|dock12
     9     8     1
SMALL
USER_CHARGES


@<TRIPOS>ATOM
      1 C1          -4.0013 -10.8226  10.0653 C.3            1 <1>                0.0000
      2 C2          -2.5704 -11.1408   9.9308 C.1            1 <1>                0.0000
      3 C3          -1.4292 -11.3946   9.8237 C.1            1 <1>                0.0000
      4 C4          -0.0372 -11.7041   9.6929 C.2            1 <1>                0.0000
      5 O5           0.3310 -12.8710   9.6730 O.co2          1 <1>                0.0000
      6 O6           0.7843 -10.8017   9.6010 O.co2          1 <1>               -1.0000
      7 H7          -4.2050  -9.8600   9.5963 H              1 <1>                0.0000
      8 H8          -4.5931 -11.5970   9.5772 H              1 <1>                0.0000
      9 H9          -4.2653 -10.7753  11.1217 H              1 <1>                0.0000
@<TRIPOS>BOND
    1    1    2 1     
    2    1    7 1     
    3    1    8 1     
    4    1    9 1     
    5    2    3 3     
    6    3    4 1     
    7    4    5 ar    
    8    4    6 ar    
@<TRIPOS>SUBSTRUCTURE
      1 ****           1
@<TRIPOS>COMMENT
> <Gold.Version>
2022.2.0

> <Gold.Id.Protein>
3pbl|protein|mol2

> <Gold.Protein.RotatedTorsions>
[ 1303 1298 1297 1294 ] final   94.05 input  179.99 | X-H torsion
[ 2461 2456 2455 2452 ] final -165.84 input   30.03 | X-H torsion
[ 2515 2510 2509 2506 ] final   92.22 input  -89.99 | X-H torsion
[ 3721 3712 3711 3710 ] final  101.11 input -179.91 | X-H torsion
[ 3841 3832 3831 3830 ] final  -93.48 input -179.91 | X-H torsion
[ 3767 3762 3761 3758 ] final   67.22 input  -89.99 | X-H torsion
[ 2472 2467 2466 2463 ] final   -7.23 input  -89.97 | X-H torsion

> <Gold.Protein.ActiveResidues>
 VAL82   VAL86   LEU89   PHE106  VAL107  ASP110  VAL111  MET112  CYS114  THR115 
 CYS181  SER182  ILE183  PHE188  VAL189  ILE190  SER192  SER193  SER196  TRP342 
 PHE345  PHE346  HIS349  VAL350  TYR365  THR369  GLY372  TYR373 

> <Gold.Protein.RotatedAtoms>
    4.4658  -10.0834    4.8795 H   0  0  0  0  0  0  0  0  0  0  0  0  # atno 1303 bound_to 1298
    1.2263   -9.2732    8.3790 H   0  0  0  0  0  0  0  0  0  0  0  0  # atno 2461 bound_to 2456
   -3.7374   -4.9048    8.1715 H   0  0  0  0  0  0  0  0  0  0  0  0  # atno 2472 bound_to 2467
    2.0398   -7.7616    5.8636 H   0  0  0  0  0  0  0  0  0  0  0  0  # atno 2515 bound_to 2510
   -2.8665  -17.4789   13.0519 H   0  0  0  0  0  0  0  0  0  0  0  0  # atno 3721 bound_to 3712
   -4.4709  -23.3101   10.2544 H   0  0  0  0  0  0  0  0  0  0  0  0  # atno 3767 bound_to 3762
    1.8902  -19.6031    8.6723 H   0  0  0  0  0  0  0  0  0  0  0  0  # atno 3841 bound_to 3832
    3.3316   -9.4955    3.8625 LP  0  0  0  0  0  0  0  0  0  0  0  0  # atno 4297 bound_to 1298
    4.5647   -8.5421    4.3494 LP  0  0  0  0  0  0  0  0  0  0  0  0  # atno 4298 bound_to 1298
    2.0482   -8.1416    7.5355 LP  0  0  0  0  0  0  0  0  0  0  0  0  # atno 4299 bound_to 2456
    0.4632   -8.3936    7.2339 LP  0  0  0  0  0  0  0  0  0  0  0  0  # atno 4300 bound_to 2456
    2.7095   -7.9894    4.3921 LP  0  0  0  0  0  0  0  0  0  0  0  0  # atno 4301 bound_to 2510
    2.5476   -9.2484    5.4193 LP  0  0  0  0  0  0  0  0  0  0  0  0  # atno 4302 bound_to 2510
   -2.7011  -17.9577   14.5754 LP  0  0  0  0  0  0  0  0  0  0  0  0  # atno 4306 bound_to 3712
   -3.5171  -16.5889   14.2190 LP  0  0  0  0  0  0  0  0  0  0  0  0  # atno 4307 bound_to 3712
    3.1261  -20.6123    8.4989 LP  0  0  0  0  0  0  0  0  0  0  0  0  # atno 4314 bound_to 3832
    1.9198  -20.9485    9.5469 LP  0  0  0  0  0  0  0  0  0  0  0  0  # atno 4315 bound_to 3832
   -5.4916  -22.1198   10.7109 LP  0  0  0  0  0  0  0  0  0  0  0  0  # atno 4318 bound_to 3762
   -4.1648  -22.4454   11.6055 LP  0  0  0  0  0  0  0  0  0  0  0  0  # atno 4319 bound_to 3762
   -4.6198   -5.4548    9.4306 LP  0  0  0  0  0  0  0  0  0  0  0  0  # atno 4320 bound_to 2467
   -5.3596   -5.0339    8.0370 LP  0  0  0  0  0  0  0  0  0  0  0  0  # atno 4321 bound_to 2467

> <Gold.Score>
     Score     S(PLP)   S(hbond)     S(cho)   S(metal)  DE(clash)   DE(tors)     intcor
     25.29     -22.29       1.00       0.00       0.00       0.00       0.00       0.00

> <Gold.PLP.Fitness>
25.2906

> <Gold.PLP.PLP>
-22.2906

> <Gold.PLP.part.hbond>
-1.0000

> <Gold.PLP.part.metal>
0.0000

> <Gold.PLP.part.buried>
-2.6108

> <Gold.PLP.part.nonpolar>
-19.1739

> <Gold.PLP.part.repulsive>
0.0000

> <Gold.PLP.ligand.clash>
0.0000

> <Gold.PLP.ligand.torsion>
0.0000

> <Gold.PLP.Chemscore.Hbond>
1.0000

> <Gold.PLP.Chemscore.CHOScore>
0.0000

> <Gold.PLP.Chemscore.Metal>
0.0000

> <Gold.Chemscore.Hbonds>
donor molecule, donor type, donor heavy atom, donor atom, acceptor molecule, acceptor atom, score
      P1  H  2456  2461       L1     6  1.00

> <Gold.PLP.Chemscore.Internal.Correction>
0.0000

