#       Name:                EN300-91328_i001
#       Creating user name   fsindt
#       Creation time:       Mon Feb 27 17:09:17 2023


#       File generated by GOLD software.
#

@<TRIPOS>MOLECULE
EN300-91328_i001|acide_1|mol2|31|dock5
     9     8     1
SMALL
USER_CHARGES


@<TRIPOS>ATOM
      1 C1           0.7930 -14.5094  10.0986 C.3            1 <1>                0.0000
      2 C2           0.5161 -15.1663  11.3865 C.1            1 <1>                0.0000
      3 C3           0.2953 -15.6903  12.4136 C.1            1 <1>                0.0000
      4 C4           0.0259 -16.3294  13.6664 C.2            1 <1>                0.0000
      5 O5          -0.6768 -17.3306  13.7040 O.co2          1 <1>                0.0000
      6 O6           0.4984 -15.8743  14.6995 O.co2          1 <1>               -1.0000
      7 H7          -0.1120 -14.5048   9.4911 H              1 <1>                0.0000
      8 H8           1.1165 -13.4837  10.2761 H              1 <1>                0.0000
      9 H9           1.5793 -15.0531   9.5751 H              1 <1>                0.0000
@<TRIPOS>BOND
    1    1    2 1     
    2    1    7 1     
    3    1    8 1     
    4    1    9 1     
    5    2    3 3     
    6    3    4 1     
    7    4    5 ar    
    8    4    6 ar    
@<TRIPOS>SUBSTRUCTURE
      1 ****           1
@<TRIPOS>COMMENT
> <Gold.Version>
2022.2.0

> <Gold.Id.Protein>
3pbl|protein|mol2

> <Gold.Protein.RotatedTorsions>
[ 1303 1298 1297 1294 ] final  -45.86 input  179.99 | X-H torsion
[ 2461 2456 2455 2452 ] final -140.87 input   30.03 | X-H torsion
[ 2515 2510 2509 2506 ] final -155.51 input  -89.99 | X-H torsion
[ 3721 3712 3711 3710 ] final  -21.69 input -179.91 | X-H torsion
[ 3841 3832 3831 3830 ] final   26.31 input -179.91 | X-H torsion
[ 3767 3762 3761 3758 ] final  -76.81 input  -89.99 | X-H torsion
[ 2472 2467 2466 2463 ] final  104.12 input  -89.97 | X-H torsion

> <Gold.Protein.ActiveResidues>
 VAL82   VAL86   LEU89   PHE106  VAL107  ASP110  VAL111  MET112  CYS114  THR115 
 CYS181  SER182  ILE183  PHE188  VAL189  ILE190  SER192  SER193  SER196  TRP342 
 PHE345  PHE346  HIS349  VAL350  TYR365  THR369  GLY372  TYR373 

> <Gold.Protein.RotatedAtoms>
    3.3980   -9.1851    3.7889 H   0  0  0  0  0  0  0  0  0  0  0  0  # atno 1303 bound_to 1298
    0.8418   -9.2719    8.2435 H   0  0  0  0  0  0  0  0  0  0  0  0  # atno 2461 bound_to 2456
   -5.2741   -4.9880    7.9333 H   0  0  0  0  0  0  0  0  0  0  0  0  # atno 2472 bound_to 2467
    2.4946   -9.2220    5.5319 H   0  0  0  0  0  0  0  0  0  0  0  0  # atno 2515 bound_to 2510
   -2.5610  -17.7858   14.5099 H   0  0  0  0  0  0  0  0  0  0  0  0  # atno 3721 bound_to 3712
   -5.3514  -21.9596   11.0409 H   0  0  0  0  0  0  0  0  0  0  0  0  # atno 3767 bound_to 3762
    2.0195  -20.7537    9.6225 H   0  0  0  0  0  0  0  0  0  0  0  0  # atno 3841 bound_to 3832
    4.7613   -8.7075    4.5502 LP  0  0  0  0  0  0  0  0  0  0  0  0  # atno 4297 bound_to 1298
    4.2032  -10.2287    4.7527 LP  0  0  0  0  0  0  0  0  0  0  0  0  # atno 4298 bound_to 1298
    2.1592   -8.3991    7.8314 LP  0  0  0  0  0  0  0  0  0  0  0  0  # atno 4299 bound_to 2456
    0.7367   -8.1374    7.0734 LP  0  0  0  0  0  0  0  0  0  0  0  0  # atno 4300 bound_to 2456
    2.0556   -7.6688    5.7781 LP  0  0  0  0  0  0  0  0  0  0  0  0  # atno 4301 bound_to 2510
    2.7464   -8.1080    4.3651 LP  0  0  0  0  0  0  0  0  0  0  0  0  # atno 4302 bound_to 2510
   -3.5365  -16.5694   14.1267 LP  0  0  0  0  0  0  0  0  0  0  0  0  # atno 4306 bound_to 3712
   -3.0345  -17.6229   12.9844 LP  0  0  0  0  0  0  0  0  0  0  0  0  # atno 4307 bound_to 3712
    1.7744  -19.6548    8.4786 LP  0  0  0  0  0  0  0  0  0  0  0  0  # atno 4314 bound_to 3832
    3.1221  -20.5769    8.4697 LP  0  0  0  0  0  0  0  0  0  0  0  0  # atno 4315 bound_to 3832
   -3.9722  -22.7409   11.4334 LP  0  0  0  0  0  0  0  0  0  0  0  0  # atno 4318 bound_to 3762
   -4.8040  -23.1744   10.0968 LP  0  0  0  0  0  0  0  0  0  0  0  0  # atno 4319 bound_to 3762
   -3.6828   -4.9431    8.2969 LP  0  0  0  0  0  0  0  0  0  0  0  0  # atno 4320 bound_to 2467
   -4.7602   -5.4624    9.4088 LP  0  0  0  0  0  0  0  0  0  0  0  0  # atno 4321 bound_to 2467

> <Gold.Score>
     Score     S(PLP)   S(hbond)     S(cho)   S(metal)  DE(clash)   DE(tors)     intcor
     21.07     -17.16       1.30       0.00       0.00       0.00       0.00       0.00

> <Gold.PLP.Fitness>
21.0686

> <Gold.PLP.PLP>
-17.1566

> <Gold.PLP.part.hbond>
-2.0000

> <Gold.PLP.part.metal>
0.0000

> <Gold.PLP.part.buried>
-2.9250

> <Gold.PLP.part.nonpolar>
-12.4616

> <Gold.PLP.part.repulsive>
0.0873

> <Gold.PLP.ligand.clash>
0.0000

> <Gold.PLP.ligand.torsion>
0.0000

> <Gold.PLP.Chemscore.Hbond>
1.3040

> <Gold.PLP.Chemscore.CHOScore>
0.0000

> <Gold.PLP.Chemscore.Metal>
0.0000

> <Gold.Chemscore.Hbonds>
donor molecule, donor type, donor heavy atom, donor atom, acceptor molecule, acceptor atom, score
      P1  H  2305  2313       L1     6  1.00
      P1  H  3712  3721       L1     5  0.30

> <Gold.PLP.Chemscore.Internal.Correction>
0.0000

