#       Name:                EN300-91328_i001
#       Creating user name   fsindt
#       Creation time:       Mon Feb 27 17:09:17 2023


#       File generated by GOLD software.
#

@<TRIPOS>MOLECULE
EN300-91328_i001|acide_1|mol2|31|dock7
     9     8     1
SMALL
USER_CHARGES


@<TRIPOS>ATOM
      1 C1          -5.1962 -10.8054   9.8691 C.3            1 <1>                0.0000
      2 C2          -3.7347 -10.6709   9.9811 C.1            1 <1>                0.0000
      3 C3          -2.5690 -10.5637  10.0704 C.1            1 <1>                0.0000
      4 C4          -1.1472 -10.4329  10.1794 C.2            1 <1>                0.0000
      5 O5          -0.6424 -10.1104  11.2465 O.co2          1 <1>                0.0000
      6 O6          -0.4369 -10.6436   9.2054 O.co2          1 <1>               -1.0000
      7 H7          -5.6777  -9.9635  10.3666 H              1 <1>                0.0000
      8 H8          -5.4805 -10.8165   8.8168 H              1 <1>                0.0000
      9 H9          -5.5127 -11.7356  10.3408 H              1 <1>                0.0000
@<TRIPOS>BOND
    1    1    2 1     
    2    1    7 1     
    3    1    8 1     
    4    1    9 1     
    5    2    3 3     
    6    3    4 1     
    7    4    5 ar    
    8    4    6 ar    
@<TRIPOS>SUBSTRUCTURE
      1 ****           1
@<TRIPOS>COMMENT
> <Gold.Version>
2022.2.0

> <Gold.Id.Protein>
3pbl|protein|mol2

> <Gold.Protein.RotatedTorsions>
[ 1303 1298 1297 1294 ] final    1.52 input  179.99 | X-H torsion
[ 2461 2456 2455 2452 ] final  -42.00 input   30.03 | X-H torsion
[ 2515 2510 2509 2506 ] final -168.13 input  -89.99 | X-H torsion
[ 3721 3712 3711 3710 ] final   57.81 input -179.91 | X-H torsion
[ 3841 3832 3831 3830 ] final   25.37 input -179.91 | X-H torsion
[ 3767 3762 3761 3758 ] final   98.70 input  -89.99 | X-H torsion
[ 2472 2467 2466 2463 ] final   72.17 input  -89.97 | X-H torsion

> <Gold.Protein.ActiveResidues>
 VAL82   VAL86   LEU89   PHE106  VAL107  ASP110  VAL111  MET112  CYS114  THR115 
 CYS181  SER182  ILE183  PHE188  VAL189  ILE190  SER192  SER193  SER196  TRP342 
 PHE345  PHE346  HIS349  VAL350  TYR365  THR369  GLY372  TYR373 

> <Gold.Protein.RotatedAtoms>
    3.3942   -9.8922    4.0606 H   0  0  0  0  0  0  0  0  0  0  0  0  # atno 1303 bound_to 1298
    0.4965   -8.3502    7.2022 H   0  0  0  0  0  0  0  0  0  0  0  0  # atno 2461 bound_to 2456
   -4.8386   -4.8511    7.6864 H   0  0  0  0  0  0  0  0  0  0  0  0  # atno 2472 bound_to 2467
    2.4060   -9.1451    5.7026 H   0  0  0  0  0  0  0  0  0  0  0  0  # atno 2515 bound_to 2510
   -2.5800  -17.9233   13.4109 H   0  0  0  0  0  0  0  0  0  0  0  0  # atno 3721 bound_to 3712
   -4.1059  -23.3074   10.6128 H   0  0  0  0  0  0  0  0  0  0  0  0  # atno 3767 bound_to 3762
    2.0077  -20.7455    9.6225 H   0  0  0  0  0  0  0  0  0  0  0  0  # atno 3841 bound_to 3832
    4.2125   -8.4793    4.0803 LP  0  0  0  0  0  0  0  0  0  0  0  0  # atno 4297 bound_to 1298
    4.7557   -9.7497    4.9508 LP  0  0  0  0  0  0  0  0  0  0  0  0  # atno 4298 bound_to 1298
    1.1651   -9.2812    8.3656 LP  0  0  0  0  0  0  0  0  0  0  0  0  # atno 4299 bound_to 2456
    2.0759   -8.1767    7.5801 LP  0  0  0  0  0  0  0  0  0  0  0  0  # atno 4300 bound_to 2456
    2.0965   -7.5443    5.6176 LP  0  0  0  0  0  0  0  0  0  0  0  0  # atno 4301 bound_to 2510
    2.7942   -8.3093    4.3548 LP  0  0  0  0  0  0  0  0  0  0  0  0  # atno 4302 bound_to 2510
   -3.0020  -17.3876   14.8644 LP  0  0  0  0  0  0  0  0  0  0  0  0  # atno 4306 bound_to 3712
   -3.5470  -16.6459   13.5155 LP  0  0  0  0  0  0  0  0  0  0  0  0  # atno 4307 bound_to 3712
    1.7864  -19.6520    8.4687 LP  0  0  0  0  0  0  0  0  0  0  0  0  # atno 4314 bound_to 3832
    3.1237  -20.5890    8.4796 LP  0  0  0  0  0  0  0  0  0  0  0  0  # atno 4315 bound_to 3832
   -5.4688  -22.4550   10.3253 LP  0  0  0  0  0  0  0  0  0  0  0  0  # atno 4318 bound_to 3762
   -4.5524  -22.1129   11.6329 LP  0  0  0  0  0  0  0  0  0  0  0  0  # atno 4319 bound_to 3762
   -3.6605   -5.1167    8.7854 LP  0  0  0  0  0  0  0  0  0  0  0  0  # atno 4320 bound_to 2467
   -5.2179   -5.4256    9.1671 LP  0  0  0  0  0  0  0  0  0  0  0  0  # atno 4321 bound_to 2467

> <Gold.Score>
     Score     S(PLP)   S(hbond)     S(cho)   S(metal)  DE(clash)   DE(tors)     intcor
     28.01     -28.01       0.00       0.00       0.00       0.00       0.00       0.00

> <Gold.PLP.Fitness>
28.0125

> <Gold.PLP.PLP>
-28.0125

> <Gold.PLP.part.hbond>
-1.0000

> <Gold.PLP.part.metal>
0.0000

> <Gold.PLP.part.buried>
-3.4699

> <Gold.PLP.part.nonpolar>
-23.7694

> <Gold.PLP.part.repulsive>
0.0579

> <Gold.PLP.ligand.clash>
0.0000

> <Gold.PLP.ligand.torsion>
0.0000

> <Gold.PLP.Chemscore.Hbond>
0.0000

> <Gold.PLP.Chemscore.CHOScore>
0.0000

> <Gold.PLP.Chemscore.Metal>
0.0000

> <Gold.PLP.Chemscore.Internal.Correction>
0.0000

