#       Name:                EN300-91328_i001
#       Creating user name   fsindt
#       Creation time:       Mon Feb 27 17:09:20 2023


#       File generated by GOLD software.
#

@<TRIPOS>MOLECULE
EN300-91328_i001|acide_1|mol2|31|dock17
     9     8     1
SMALL
USER_CHARGES


@<TRIPOS>ATOM
      1 C1          -3.3046 -10.8831  10.2221 C.3            1 <1>                0.0000
      2 C2          -2.0639 -11.2786   9.5358 C.1            1 <1>                0.0000
      3 C3          -1.0744 -11.5941   8.9884 C.1            1 <1>                0.0000
      4 C4           0.1326 -11.9789   8.3208 C.2            1 <1>                0.0000
      5 O5           0.8322 -11.1303   7.7841 O.co2          1 <1>                0.0000
      6 O6           0.4645 -13.1563   8.2869 O.co2          1 <1>               -1.0000
      7 H7          -3.5433 -11.6164  10.9925 H              1 <1>                0.0000
      8 H8          -3.1692  -9.9041  10.6819 H              1 <1>                0.0000
      9 H9          -4.1199 -10.8360   9.5002 H              1 <1>                0.0000
@<TRIPOS>BOND
    1    1    2 1     
    2    1    7 1     
    3    1    8 1     
    4    1    9 1     
    5    2    3 3     
    6    3    4 1     
    7    4    5 ar    
    8    4    6 ar    
@<TRIPOS>SUBSTRUCTURE
      1 ****           1
@<TRIPOS>COMMENT
> <Gold.Version>
2022.2.0

> <Gold.Id.Protein>
3pbl|protein|mol2

> <Gold.Protein.RotatedTorsions>
[ 1303 1298 1297 1294 ] final   81.32 input  179.99 | X-H torsion
[ 2461 2456 2455 2452 ] final -105.08 input   30.03 | X-H torsion
[ 2515 2510 2509 2506 ] final  169.88 input  -89.99 | X-H torsion
[ 3721 3712 3711 3710 ] final  120.39 input -179.91 | X-H torsion
[ 3841 3832 3831 3830 ] final -100.25 input -179.91 | X-H torsion
[ 3767 3762 3761 3758 ] final   40.39 input  -89.99 | X-H torsion
[ 2472 2467 2466 2463 ] final -123.84 input  -89.97 | X-H torsion

> <Gold.Protein.ActiveResidues>
 VAL82   VAL86   LEU89   PHE106  VAL107  ASP110  VAL111  MET112  CYS114  THR115 
 CYS181  SER182  ILE183  PHE188  VAL189  ILE190  SER192  SER193  SER196  TRP342 
 PHE345  PHE346  HIS349  VAL350  TYR365  THR369  GLY372  TYR373 

> <Gold.Protein.RotatedAtoms>
    4.3005  -10.1872    4.8049 H   0  0  0  0  0  0  0  0  0  0  0  0  # atno 1303 bound_to 1298
    0.4376   -9.0571    7.8879 H   0  0  0  0  0  0  0  0  0  0  0  0  # atno 2461 bound_to 2456
   -4.5643   -5.4505    9.4334 H   0  0  0  0  0  0  0  0  0  0  0  0  # atno 2472 bound_to 2467
    2.2572   -8.9207    5.9408 H   0  0  0  0  0  0  0  0  0  0  0  0  # atno 2515 bound_to 2510
   -3.0116  -17.2281   13.0367 H   0  0  0  0  0  0  0  0  0  0  0  0  # atno 3721 bound_to 3712
   -4.8423  -23.1514   10.0861 H   0  0  0  0  0  0  0  0  0  0  0  0  # atno 3767 bound_to 3762
    1.9687  -19.5867    8.6090 H   0  0  0  0  0  0  0  0  0  0  0  0  # atno 3841 bound_to 3832
    3.3635   -9.2964    3.8074 LP  0  0  0  0  0  0  0  0  0  0  0  0  # atno 4297 bound_to 1298
    4.6981   -8.6373    4.4791 LP  0  0  0  0  0  0  0  0  0  0  0  0  # atno 4298 bound_to 1298
    2.0222   -8.8206    8.2047 LP  0  0  0  0  0  0  0  0  0  0  0  0  # atno 4299 bound_to 2456
    1.2777   -7.9306    7.0557 LP  0  0  0  0  0  0  0  0  0  0  0  0  # atno 4300 bound_to 2456
    2.2049   -7.4209    5.2976 LP  0  0  0  0  0  0  0  0  0  0  0  0  # atno 4301 bound_to 2510
    2.8347   -8.6572    4.4365 LP  0  0  0  0  0  0  0  0  0  0  0  0  # atno 4302 bound_to 2510
   -2.6285  -18.1254   14.3118 LP  0  0  0  0  0  0  0  0  0  0  0  0  # atno 4306 bound_to 3712
   -3.4223  -16.7108   14.5001 LP  0  0  0  0  0  0  0  0  0  0  0  0  # atno 4307 bound_to 3712
    3.1273  -20.6968    8.5739 LP  0  0  0  0  0  0  0  0  0  0  0  0  # atno 4314 bound_to 3832
    1.8278  -20.8829    9.5451 LP  0  0  0  0  0  0  0  0  0  0  0  0  # atno 4315 bound_to 3832
   -5.3275  -21.9488   11.0786 LP  0  0  0  0  0  0  0  0  0  0  0  0  # atno 4318 bound_to 3762
   -3.9576  -22.7750   11.4061 LP  0  0  0  0  0  0  0  0  0  0  0  0  # atno 4319 bound_to 3762
   -5.3884   -5.0530    8.0810 LP  0  0  0  0  0  0  0  0  0  0  0  0  # atno 4320 bound_to 2467
   -3.7642   -4.8901    8.1249 LP  0  0  0  0  0  0  0  0  0  0  0  0  # atno 4321 bound_to 2467

> <Gold.Score>
     Score     S(PLP)   S(hbond)     S(cho)   S(metal)  DE(clash)   DE(tors)     intcor
     22.05     -20.74       0.44       0.00       0.00       0.00       0.00       0.00

> <Gold.PLP.Fitness>
22.0550

> <Gold.PLP.PLP>
-20.7446

> <Gold.PLP.part.hbond>
-1.0000

> <Gold.PLP.part.metal>
0.0000

> <Gold.PLP.part.buried>
-2.7633

> <Gold.PLP.part.nonpolar>
-17.4665

> <Gold.PLP.part.repulsive>
0.0000

> <Gold.PLP.ligand.clash>
0.0000

> <Gold.PLP.ligand.torsion>
0.0000

> <Gold.PLP.Chemscore.Hbond>
0.4368

> <Gold.PLP.Chemscore.CHOScore>
0.0000

> <Gold.PLP.Chemscore.Metal>
0.0000

> <Gold.Chemscore.Hbonds>
donor molecule, donor type, donor heavy atom, donor atom, acceptor molecule, acceptor atom, score
      P1  H  2456  2461       L1     5  0.44

> <Gold.PLP.Chemscore.Internal.Correction>
0.0000

