#       Name:                EN300-91328_i001
#       Creating user name   fsindt
#       Creation time:       Mon Feb 27 17:09:17 2023


#       File generated by GOLD software.
#

@<TRIPOS>MOLECULE
EN300-91328_i001|acide_1|mol2|31|dock4
     9     8     1
SMALL
USER_CHARGES


@<TRIPOS>ATOM
      1 C1           3.5030 -17.3997  12.6004 C.3            1 <1>                0.0000
      2 C2           2.2544 -17.1603  13.3424 C.1            1 <1>                0.0000
      3 C3           1.2586 -16.9693  13.9342 C.1            1 <1>                0.0000
      4 C4           0.0440 -16.7363  14.6561 C.2            1 <1>                0.0000
      5 O5          -0.6935 -17.6733  14.9313 O.co2          1 <1>                0.0000
      6 O6          -0.2565 -15.6003  14.9977 O.co2          1 <1>               -1.0000
      7 H7           4.3552 -17.2230  13.2566 H              1 <1>                0.0000
      8 H8           3.5238 -18.4308  12.2475 H              1 <1>                0.0000
      9 H9           3.5544 -16.7227  11.7477 H              1 <1>                0.0000
@<TRIPOS>BOND
    1    1    2 1     
    2    1    7 1     
    3    1    8 1     
    4    1    9 1     
    5    2    3 3     
    6    3    4 1     
    7    4    5 ar    
    8    4    6 ar    
@<TRIPOS>SUBSTRUCTURE
      1 ****           1
@<TRIPOS>COMMENT
> <Gold.Version>
2022.2.0

> <Gold.Id.Protein>
3pbl|protein|mol2

> <Gold.Protein.RotatedTorsions>
[ 1303 1298 1297 1294 ] final -109.65 input  179.99 | X-H torsion
[ 2461 2456 2455 2452 ] final -113.19 input   30.03 | X-H torsion
[ 2515 2510 2509 2506 ] final  -28.46 input  -89.99 | X-H torsion
[ 3721 3712 3711 3710 ] final  -11.01 input -179.91 | X-H torsion
[ 3841 3832 3831 3830 ] final  138.64 input -179.91 | X-H torsion
[ 3767 3762 3761 3758 ] final  157.42 input  -89.99 | X-H torsion
[ 2472 2467 2466 2463 ] final -112.32 input  -89.97 | X-H torsion

> <Gold.Protein.ActiveResidues>
 VAL82   VAL86   LEU89   PHE106  VAL107  ASP110  VAL111  MET112  CYS114  THR115 
 CYS181  SER182  ILE183  PHE188  VAL189  ILE190  SER192  SER193  SER196  TRP342 
 PHE345  PHE346  HIS349  VAL350  TYR365  THR369  GLY372  TYR373 

> <Gold.Protein.RotatedAtoms>
    4.0905   -8.5026    4.0052 H   0  0  0  0  0  0  0  0  0  0  0  0  # atno 1303 bound_to 1298
    0.5063   -9.1251    7.9797 H   0  0  0  0  0  0  0  0  0  0  0  0  # atno 2461 bound_to 2456
   -4.3771   -5.4253    9.4206 H   0  0  0  0  0  0  0  0  0  0  0  0  # atno 2472 bound_to 2467
    2.7130   -7.9997    4.3895 H   0  0  0  0  0  0  0  0  0  0  0  0  # atno 2515 bound_to 2510
   -2.5176  -17.8807   14.3869 H   0  0  0  0  0  0  0  0  0  0  0  0  # atno 3721 bound_to 3712
   -3.9435  -22.8103   11.3754 H   0  0  0  0  0  0  0  0  0  0  0  0  # atno 3767 bound_to 3762
    3.1327  -20.5361    8.7384 H   0  0  0  0  0  0  0  0  0  0  0  0  # atno 3841 bound_to 3832
    4.8206   -9.6201    4.9456 LP  0  0  0  0  0  0  0  0  0  0  0  0  # atno 4297 bound_to 1298
    3.4511   -9.9990    4.1409 LP  0  0  0  0  0  0  0  0  0  0  0  0  # atno 4298 bound_to 1298
    2.0829   -8.7267    8.1320 LP  0  0  0  0  0  0  0  0  0  0  0  0  # atno 4299 bound_to 2456
    1.1483   -7.9566    7.0365 LP  0  0  0  0  0  0  0  0  0  0  0  0  # atno 4300 bound_to 2456
    2.5429   -9.2468    5.4295 LP  0  0  0  0  0  0  0  0  0  0  0  0  # atno 4301 bound_to 2510
    2.0406   -7.7528    5.8567 LP  0  0  0  0  0  0  0  0  0  0  0  0  # atno 4302 bound_to 2510
   -3.4972  -16.6118   14.2954 LP  0  0  0  0  0  0  0  0  0  0  0  0  # atno 4306 bound_to 3712
   -3.1239  -17.4709   12.9578 LP  0  0  0  0  0  0  0  0  0  0  0  0  # atno 4307 bound_to 3712
    1.7754  -20.8401    9.5392 LP  0  0  0  0  0  0  0  0  0  0  0  0  # atno 4314 bound_to 3832
    1.8352  -19.6429    8.4303 LP  0  0  0  0  0  0  0  0  0  0  0  0  # atno 4315 bound_to 3832
   -4.8834  -23.1264   10.0779 LP  0  0  0  0  0  0  0  0  0  0  0  0  # atno 4318 bound_to 3762
   -5.3001  -21.9384   11.1179 LP  0  0  0  0  0  0  0  0  0  0  0  0  # atno 4319 bound_to 3762
   -5.4643   -5.1191    8.2413 LP  0  0  0  0  0  0  0  0  0  0  0  0  # atno 4320 bound_to 2467
   -3.8755   -4.8492    7.9774 LP  0  0  0  0  0  0  0  0  0  0  0  0  # atno 4321 bound_to 2467

> <Gold.Score>
     Score     S(PLP)   S(hbond)     S(cho)   S(metal)  DE(clash)   DE(tors)     intcor
     24.15     -18.15       2.00       0.00       0.00       0.00       0.00       0.00

> <Gold.PLP.Fitness>
24.1521

> <Gold.PLP.PLP>
-18.1521

> <Gold.PLP.part.hbond>
-2.0000

> <Gold.PLP.part.metal>
0.0000

> <Gold.PLP.part.buried>
-0.5032

> <Gold.PLP.part.nonpolar>
-15.7694

> <Gold.PLP.part.repulsive>
0.1461

> <Gold.PLP.ligand.clash>
0.0000

> <Gold.PLP.ligand.torsion>
0.0000

> <Gold.PLP.Chemscore.Hbond>
2.0000

> <Gold.PLP.Chemscore.CHOScore>
0.0000

> <Gold.PLP.Chemscore.Metal>
0.0000

> <Gold.Chemscore.Hbonds>
donor molecule, donor type, donor heavy atom, donor atom, acceptor molecule, acceptor atom, score
      P1  H  2305  2313       L1     6  1.00
      P1  H  3712  3721       L1     5  1.00

> <Gold.PLP.Chemscore.Internal.Correction>
0.0000

