#       Name:                EN300-91328_i001
#       Creating user name   fsindt
#       Creation time:       Mon Feb 27 17:09:20 2023


#       File generated by GOLD software.
#

@<TRIPOS>MOLECULE
EN300-91328_i001|acide_1|mol2|31|dock19
     9     8     1
SMALL
USER_CHARGES


@<TRIPOS>ATOM
      1 C1          -1.2663 -12.2946  10.9233 C.3            1 <1>                0.0000
      2 C2          -0.9432 -13.5023  11.7004 C.1            1 <1>                0.0000
      3 C3          -0.6856 -14.4655  12.3202 C.1            1 <1>                0.0000
      4 C4          -0.3713 -15.6404  13.0762 C.2            1 <1>                0.0000
      5 O5          -0.7706 -16.7345  12.7008 O.co2          1 <1>                0.0000
      6 O6           0.2966 -15.5502  14.0976 O.co2          1 <1>               -1.0000
      7 H7          -2.3148 -12.3231  10.6266 H              1 <1>                0.0000
      8 H8          -1.0855 -11.4103  11.5343 H              1 <1>                0.0000
      9 H9          -0.6379 -12.2562  10.0335 H              1 <1>                0.0000
@<TRIPOS>BOND
    1    1    2 1     
    2    1    7 1     
    3    1    8 1     
    4    1    9 1     
    5    2    3 3     
    6    3    4 1     
    7    4    5 ar    
    8    4    6 ar    
@<TRIPOS>SUBSTRUCTURE
      1 ****           1
@<TRIPOS>COMMENT
> <Gold.Version>
2022.2.0

> <Gold.Id.Protein>
3pbl|protein|mol2

> <Gold.Protein.RotatedTorsions>
[ 1303 1298 1297 1294 ] final  110.03 input  179.99 | X-H torsion
[ 2461 2456 2455 2452 ] final  -86.35 input   30.03 | X-H torsion
[ 2515 2510 2509 2506 ] final  -98.65 input  -89.99 | X-H torsion
[ 3721 3712 3711 3710 ] final   52.11 input -179.91 | X-H torsion
[ 3841 3832 3831 3830 ] final   46.57 input -179.91 | X-H torsion
[ 3767 3762 3761 3758 ] final   33.75 input  -89.99 | X-H torsion
[ 2472 2467 2466 2463 ] final  -37.33 input  -89.97 | X-H torsion

> <Gold.Protein.ActiveResidues>
 VAL82   VAL86   LEU89   PHE106  VAL107  ASP110  VAL111  MET112  CYS114  THR115 
 CYS181  SER182  ILE183  PHE188  VAL189  ILE190  SER192  SER193  SER196  TRP342 
 PHE345  PHE346  HIS349  VAL350  TYR365  THR369  GLY372  TYR373 

> <Gold.Protein.RotatedAtoms>
    4.6484   -9.9045    4.9369 H   0  0  0  0  0  0  0  0  0  0  0  0  # atno 1303 bound_to 1298
    0.3423   -8.8680    7.6657 H   0  0  0  0  0  0  0  0  0  0  0  0  # atno 2461 bound_to 2456
   -3.6357   -5.0572    8.6255 H   0  0  0  0  0  0  0  0  0  0  0  0  # atno 2472 bound_to 2467
    2.8002   -9.0312    4.7099 H   0  0  0  0  0  0  0  0  0  0  0  0  # atno 2515 bound_to 2510
   -2.5529  -17.9592   13.4843 H   0  0  0  0  0  0  0  0  0  0  0  0  # atno 3721 bound_to 3712
   -4.9329  -23.0927   10.0694 H   0  0  0  0  0  0  0  0  0  0  0  0  # atno 3767 bound_to 3762
    2.2871  -20.8929    9.5814 H   0  0  0  0  0  0  0  0  0  0  0  0  # atno 3841 bound_to 3832
    3.3464   -9.7358    3.9660 LP  0  0  0  0  0  0  0  0  0  0  0  0  # atno 4297 bound_to 1298
    4.3672   -8.4808    4.1884 LP  0  0  0  0  0  0  0  0  0  0  0  0  # atno 4298 bound_to 1298
    1.8254   -9.0179    8.3330 LP  0  0  0  0  0  0  0  0  0  0  0  0  # atno 4299 bound_to 2456
    1.5697   -7.9223    7.1494 LP  0  0  0  0  0  0  0  0  0  0  0  0  # atno 4300 bound_to 2456
    2.1045   -8.5087    6.0915 LP  0  0  0  0  0  0  0  0  0  0  0  0  # atno 4301 bound_to 2510
    2.3918   -7.4589    4.8741 LP  0  0  0  0  0  0  0  0  0  0  0  0  # atno 4302 bound_to 2510
   -3.0494  -17.3051   14.8640 LP  0  0  0  0  0  0  0  0  0  0  0  0  # atno 4306 bound_to 3712
   -3.5309  -16.6870   13.4313 LP  0  0  0  0  0  0  0  0  0  0  0  0  # atno 4307 bound_to 3712
    1.5545  -19.7614    8.7102 LP  0  0  0  0  0  0  0  0  0  0  0  0  # atno 4314 bound_to 3832
    3.0329  -20.3095    8.2855 LP  0  0  0  0  0  0  0  0  0  0  0  0  # atno 4315 bound_to 3832
   -5.2643  -21.9282   11.1652 LP  0  0  0  0  0  0  0  0  0  0  0  0  # atno 4318 bound_to 3762
   -3.9302  -22.8543   11.3361 LP  0  0  0  0  0  0  0  0  0  0  0  0  # atno 4319 bound_to 3762
   -5.0830   -5.4488    9.2724 LP  0  0  0  0  0  0  0  0  0  0  0  0  # atno 4320 bound_to 2467
   -4.9980   -4.8876    7.7412 LP  0  0  0  0  0  0  0  0  0  0  0  0  # atno 4321 bound_to 2467

> <Gold.Score>
     Score     S(PLP)   S(hbond)     S(cho)   S(metal)  DE(clash)   DE(tors)     intcor
     22.23     -18.57       1.22       0.00       0.00       0.00       0.00       0.00

> <Gold.PLP.Fitness>
22.2254

> <Gold.PLP.PLP>
-18.5747

> <Gold.PLP.part.hbond>
-2.0000

> <Gold.PLP.part.metal>
0.0000

> <Gold.PLP.part.buried>
-3.0219

> <Gold.PLP.part.nonpolar>
-13.4473

> <Gold.PLP.part.repulsive>
0.1306

> <Gold.PLP.ligand.clash>
0.0000

> <Gold.PLP.ligand.torsion>
0.0000

> <Gold.PLP.Chemscore.Hbond>
1.2169

> <Gold.PLP.Chemscore.CHOScore>
0.0000

> <Gold.PLP.Chemscore.Metal>
0.0000

> <Gold.Chemscore.Hbonds>
donor molecule, donor type, donor heavy atom, donor atom, acceptor molecule, acceptor atom, score
      P1  H  2305  2313       L1     6  0.99
      P1  H  3712  3721       L1     5  0.23

> <Gold.PLP.Chemscore.Internal.Correction>
0.0000

