#       Name:                EN300-91328_i001
#       Creating user name   fsindt
#       Creation time:       Mon Feb 27 17:09:16 2023


#       File generated by GOLD software.
#

@<TRIPOS>MOLECULE
EN300-91328_i001|acide_1|mol2|31|dock1
     9     8     1
SMALL
USER_CHARGES


@<TRIPOS>ATOM
      1 C1          -0.6998 -13.3086  10.9810 C.3            1 <1>                0.0000
      2 C2          -0.4818 -14.3996  11.9448 C.1            1 <1>                0.0000
      3 C3          -0.3079 -15.2698  12.7135 C.1            1 <1>                0.0000
      4 C4          -0.0958 -16.3312  13.6510 C.2            1 <1>                0.0000
      5 O5          -0.5290 -17.4513  13.4156 O.co2          1 <1>                0.0000
      6 O6           0.5186 -16.1183  14.6877 O.co2          1 <1>               -1.0000
      7 H7          -1.1654 -12.4635  11.4882 H              1 <1>                0.0000
      8 H8           0.2570 -12.9981  10.5612 H              1 <1>                0.0000
      9 H9          -1.3524 -13.6562  10.1802 H              1 <1>                0.0000
@<TRIPOS>BOND
    1    1    2 1     
    2    1    7 1     
    3    1    8 1     
    4    1    9 1     
    5    2    3 3     
    6    3    4 1     
    7    4    5 ar    
    8    4    6 ar    
@<TRIPOS>SUBSTRUCTURE
      1 ****           1
@<TRIPOS>COMMENT
> <Gold.Version>
2022.2.0

> <Gold.Id.Protein>
3pbl|protein|mol2

> <Gold.Protein.RotatedTorsions>
[ 1303 1298 1297 1294 ] final   88.73 input  179.99 | X-H torsion
[ 2461 2456 2455 2452 ] final   33.98 input   30.03 | X-H torsion
[ 2515 2510 2509 2506 ] final  -12.42 input  -89.99 | X-H torsion
[ 3721 3712 3711 3710 ] final   46.91 input -179.91 | X-H torsion
[ 3841 3832 3831 3830 ] final -152.64 input -179.91 | X-H torsion
[ 3767 3762 3761 3758 ] final   76.17 input  -89.99 | X-H torsion
[ 2472 2467 2466 2463 ] final    7.83 input  -89.97 | X-H torsion

> <Gold.Protein.ActiveResidues>
 VAL82   VAL86   LEU89   PHE106  VAL107  ASP110  VAL111  MET112  CYS114  THR115 
 CYS181  SER182  ILE183  PHE188  VAL189  ILE190  SER192  SER193  SER196  TRP342 
 PHE345  PHE346  HIS349  VAL350  TYR365  THR369  GLY372  TYR373 

> <Gold.Protein.RotatedAtoms>
    4.3983  -10.1314    4.8512 H   0  0  0  0  0  0  0  0  0  0  0  0  # atno 1303 bound_to 1298
    1.5747   -7.9226    7.1514 H   0  0  0  0  0  0  0  0  0  0  0  0  # atno 2461 bound_to 2456
   -3.8771   -4.8494    7.9752 H   0  0  0  0  0  0  0  0  0  0  0  0  # atno 2472 bound_to 2467
    2.6219   -7.7744    4.4902 H   0  0  0  0  0  0  0  0  0  0  0  0  # atno 2515 bound_to 2510
   -2.5312  -17.9861   13.5549 H   0  0  0  0  0  0  0  0  0  0  0  0  # atno 3721 bound_to 3712
   -4.3547  -23.3310   10.3420 H   0  0  0  0  0  0  0  0  0  0  0  0  # atno 3767 bound_to 3762
    2.6619  -19.7742    8.3477 H   0  0  0  0  0  0  0  0  0  0  0  0  # atno 3841 bound_to 3832
    3.3403   -9.4124    3.8363 LP  0  0  0  0  0  0  0  0  0  0  0  0  # atno 4297 bound_to 1298
    4.6235   -8.5772    4.4039 LP  0  0  0  0  0  0  0  0  0  0  0  0  # atno 4298 bound_to 1298
    0.3418   -8.8644    7.6618 LP  0  0  0  0  0  0  0  0  0  0  0  0  # atno 4299 bound_to 2456
    1.8214   -9.0210    8.3347 LP  0  0  0  0  0  0  0  0  0  0  0  0  # atno 4300 bound_to 2456
    2.6459   -9.2506    5.1873 LP  0  0  0  0  0  0  0  0  0  0  0  0  # atno 4301 bound_to 2510
    2.0287   -7.9745    5.9981 LP  0  0  0  0  0  0  0  0  0  0  0  0  # atno 4302 bound_to 2510
   -3.0930  -17.2304   14.8553 LP  0  0  0  0  0  0  0  0  0  0  0  0  # atno 4306 bound_to 3712
   -3.5124  -16.7306   13.3584 LP  0  0  0  0  0  0  0  0  0  0  0  0  # atno 4307 bound_to 3712
    2.7566  -21.1341    9.1949 LP  0  0  0  0  0  0  0  0  0  0  0  0  # atno 4314 bound_to 3832
    1.3978  -20.2290    9.2259 LP  0  0  0  0  0  0  0  0  0  0  0  0  # atno 4315 bound_to 3832
   -5.5096  -22.2036   10.5915 LP  0  0  0  0  0  0  0  0  0  0  0  0  # atno 4318 bound_to 3762
   -4.2630  -22.3407   11.6374 LP  0  0  0  0  0  0  0  0  0  0  0  0  # atno 4319 bound_to 3762
   -4.3747   -5.4242    9.4204 LP  0  0  0  0  0  0  0  0  0  0  0  0  # atno 4320 bound_to 2467
   -5.4650   -5.1199    8.2434 LP  0  0  0  0  0  0  0  0  0  0  0  0  # atno 4321 bound_to 2467

> <Gold.Score>
     Score     S(PLP)   S(hbond)     S(cho)   S(metal)  DE(clash)   DE(tors)     intcor
     24.10     -19.08       1.67       0.00       0.00       0.00       0.00       0.00

> <Gold.PLP.Fitness>
24.0979

> <Gold.PLP.PLP>
-19.0819

> <Gold.PLP.part.hbond>
-2.0000

> <Gold.PLP.part.metal>
0.0000

> <Gold.PLP.part.buried>
-3.0545

> <Gold.PLP.part.nonpolar>
-14.4463

> <Gold.PLP.part.repulsive>
0.0627

> <Gold.PLP.ligand.clash>
0.0000

> <Gold.PLP.ligand.torsion>
0.0000

> <Gold.PLP.Chemscore.Hbond>
1.6720

> <Gold.PLP.Chemscore.CHOScore>
0.0000

> <Gold.PLP.Chemscore.Metal>
0.0000

> <Gold.Chemscore.Hbonds>
donor molecule, donor type, donor heavy atom, donor atom, acceptor molecule, acceptor atom, score
      P1  H  2305  2313       L1     6  1.00
      P1  H  3712  3721       L1     5  0.67

> <Gold.PLP.Chemscore.Internal.Correction>
0.0000

