#       Name:                EN300-91328_i001
#       Creating user name   fsindt
#       Creation time:       Mon Feb 27 17:09:17 2023


#       File generated by GOLD software.
#

@<TRIPOS>MOLECULE
EN300-91328_i001|acide_1|mol2|31|dock6
     9     8     1
SMALL
USER_CHARGES


@<TRIPOS>ATOM
      1 C1          -4.2807 -10.6542  10.1994 C.3            1 <1>                0.0000
      2 C2          -2.9723 -11.0631   9.6630 C.1            1 <1>                0.0000
      3 C3          -1.9288 -11.3893   9.2352 C.1            1 <1>                0.0000
      4 C4          -0.6560 -11.7872   8.7134 C.2            1 <1>                0.0000
      5 O5          -0.5345 -12.8698   8.1560 O.co2          1 <1>                0.0000
      6 O6           0.3102 -11.0445   8.8249 O.co2          1 <1>               -1.0000
      7 H7          -4.7387 -11.4951  10.7203 H              1 <1>                0.0000
      8 H8          -4.1454  -9.8260  10.8951 H              1 <1>                0.0000
      9 H9          -4.9267 -10.3388   9.3801 H              1 <1>                0.0000
@<TRIPOS>BOND
    1    1    2 1     
    2    1    7 1     
    3    1    8 1     
    4    1    9 1     
    5    2    3 3     
    6    3    4 1     
    7    4    5 ar    
    8    4    6 ar    
@<TRIPOS>SUBSTRUCTURE
      1 ****           1
@<TRIPOS>COMMENT
> <Gold.Version>
2022.2.0

> <Gold.Id.Protein>
3pbl|protein|mol2

> <Gold.Protein.RotatedTorsions>
[ 1303 1298 1297 1294 ] final   75.32 input  179.99 | X-H torsion
[ 2461 2456 2455 2452 ] final -150.09 input   30.03 | X-H torsion
[ 2515 2510 2509 2506 ] final  101.48 input  -89.99 | X-H torsion
[ 3721 3712 3711 3710 ] final   93.17 input -179.91 | X-H torsion
[ 3841 3832 3831 3830 ] final  -13.27 input -179.91 | X-H torsion
[ 3767 3762 3761 3758 ] final  110.32 input  -89.99 | X-H torsion
[ 2472 2467 2466 2463 ] final   10.17 input  -89.97 | X-H torsion

> <Gold.Protein.ActiveResidues>
 VAL82   VAL86   LEU89   PHE106  VAL107  ASP110  VAL111  MET112  CYS114  THR115 
 CYS181  SER182  ILE183  PHE188  VAL189  ILE190  SER192  SER193  SER196  TRP342 
 PHE345  PHE346  HIS349  VAL350  TYR365  THR369  GLY372  TYR373 

> <Gold.Protein.RotatedAtoms>
    4.2190  -10.2225    4.7619 H   0  0  0  0  0  0  0  0  0  0  0  0  # atno 1303 bound_to 1298
    0.9786   -9.2875    8.3069 H   0  0  0  0  0  0  0  0  0  0  0  0  # atno 2461 bound_to 2456
   -3.9033   -4.8425    7.9480 H   0  0  0  0  0  0  0  0  0  0  0  0  # atno 2472 bound_to 2467
    2.0299   -7.8861    5.9507 H   0  0  0  0  0  0  0  0  0  0  0  0  # atno 2515 bound_to 2510
   -2.8071  -17.5773   13.0860 H   0  0  0  0  0  0  0  0  0  0  0  0  # atno 3721 bound_to 3712
   -4.0116  -23.2536   10.7699 H   0  0  0  0  0  0  0  0  0  0  0  0  # atno 3767 bound_to 3762
    1.6394  -20.3310    9.4793 H   0  0  0  0  0  0  0  0  0  0  0  0  # atno 3841 bound_to 3832
    3.3916   -9.2033    3.7909 LP  0  0  0  0  0  0  0  0  0  0  0  0  # atno 4297 bound_to 1298
    4.7515   -8.6951    4.5386 LP  0  0  0  0  0  0  0  0  0  0  0  0  # atno 4298 bound_to 1298
    2.1377   -8.2967    7.7216 LP  0  0  0  0  0  0  0  0  0  0  0  0  # atno 4299 bound_to 2456
    0.6214   -8.2241    7.1198 LP  0  0  0  0  0  0  0  0  0  0  0  0  # atno 4300 bound_to 2456
    2.6587   -7.8556    4.4442 LP  0  0  0  0  0  0  0  0  0  0  0  0  # atno 4301 bound_to 2510
    2.6084   -9.2576    5.2800 LP  0  0  0  0  0  0  0  0  0  0  0  0  # atno 4302 bound_to 2510
   -2.7442  -17.8688   14.6636 LP  0  0  0  0  0  0  0  0  0  0  0  0  # atno 4306 bound_to 3712
   -3.5426  -16.5643   14.0914 LP  0  0  0  0  0  0  0  0  0  0  0  0  # atno 4307 bound_to 3712
    2.3454  -19.7130    8.1771 LP  0  0  0  0  0  0  0  0  0  0  0  0  # atno 4314 bound_to 3832
    2.9901  -21.0070    8.9365 LP  0  0  0  0  0  0  0  0  0  0  0  0  # atno 4315 bound_to 3832
   -5.4013  -22.5975   10.2176 LP  0  0  0  0  0  0  0  0  0  0  0  0  # atno 4318 bound_to 3762
   -4.7142  -22.0242   11.5835 LP  0  0  0  0  0  0  0  0  0  0  0  0  # atno 4319 bound_to 3762
   -4.3375   -5.4175    9.4134 LP  0  0  0  0  0  0  0  0  0  0  0  0  # atno 4320 bound_to 2467
   -5.4759   -5.1335    8.2776 LP  0  0  0  0  0  0  0  0  0  0  0  0  # atno 4321 bound_to 2467

> <Gold.Score>
     Score     S(PLP)   S(hbond)     S(cho)   S(metal)  DE(clash)   DE(tors)     intcor
     26.61     -23.61       1.00       0.00       0.00       0.00       0.00       0.00

> <Gold.PLP.Fitness>
26.6064

> <Gold.PLP.PLP>
-23.6064

> <Gold.PLP.part.hbond>
-1.0000

> <Gold.PLP.part.metal>
0.0000

> <Gold.PLP.part.buried>
-2.7149

> <Gold.PLP.part.nonpolar>
-20.5410

> <Gold.PLP.part.repulsive>
0.0000

> <Gold.PLP.ligand.clash>
0.0000

> <Gold.PLP.ligand.torsion>
0.0000

> <Gold.PLP.Chemscore.Hbond>
1.0000

> <Gold.PLP.Chemscore.CHOScore>
0.0000

> <Gold.PLP.Chemscore.Metal>
0.0000

> <Gold.Chemscore.Hbonds>
donor molecule, donor type, donor heavy atom, donor atom, acceptor molecule, acceptor atom, score
      P1  H  2456  2461       L1     6  1.00

> <Gold.PLP.Chemscore.Internal.Correction>
0.0000

