#       Name:                EN300-91328_i001
#       Creating user name   fsindt
#       Creation time:       Mon Feb 27 17:09:16 2023


#       File generated by GOLD software.
#

@<TRIPOS>MOLECULE
EN300-91328_i001
     9     8     1
SMALL
USER_CHARGES


@<TRIPOS>ATOM
      1 C1           1.8318  -0.0000  -0.0000 C.3            1 <1>                0.0000
      2 C2           0.3598  -0.0000  -0.0000 C.1            1 <1>                0.0000
      3 C3          -0.8142  -0.0000  -0.0000 C.1            1 <1>                0.0000
      4 C4          -2.2462  -0.0000   0.0000 C.2            1 <1>                0.0000
      5 O5          -2.8581  -1.0598   0.0000 O.co2          1 <1>                0.0000
      6 O6          -2.8581   1.0598  -0.0000 O.co2          1 <1>               -1.0000
      7 H7           2.1951   1.0277  -0.0000 H              1 <1>                0.0000
      8 H8           2.1951  -0.5138   0.8900 H              1 <1>                0.0000
      9 H9           2.1951  -0.5138  -0.8900 H              1 <1>                0.0000
@<TRIPOS>BOND
    1    1    2 1     
    2    1    7 1     
    3    1    8 1     
    4    1    9 1     
    5    2    3 3     
    6    3    4 1     
    7    4    5 ar    
    8    4    6 ar    
@<TRIPOS>SUBSTRUCTURE
      1 ****           1
