#       Name:                EN300-91328_i001
#       Creating user name   fsindt
#       Creation time:       Mon Feb 27 17:09:19 2023


#       File generated by GOLD software.
#

@<TRIPOS>MOLECULE
EN300-91328_i001|acide_1|mol2|31|dock13
     9     8     1
SMALL
USER_CHARGES


@<TRIPOS>ATOM
      1 C1          -0.6997 -14.2370  12.0021 C.3            1 <1>                0.0000
      2 C2          -0.9727 -13.0050  11.2442 C.1            1 <1>                0.0000
      3 C3          -1.1905 -12.0224  10.6397 C.1            1 <1>                0.0000
      4 C4          -1.4561 -10.8240   9.9023 C.2            1 <1>                0.0000
      5 O5          -2.4155 -10.1239  10.1974 O.co2          1 <1>                0.0000
      6 O6          -0.7237 -10.4998   8.9770 O.co2          1 <1>               -1.0000
      7 H7           0.0872 -14.8032  11.5039 H              1 <1>                0.0000
      8 H8          -0.3784 -13.9790  13.0112 H              1 <1>                0.0000
      9 H9          -1.6057 -14.8409  12.0524 H              1 <1>                0.0000
@<TRIPOS>BOND
    1    1    2 1     
    2    1    7 1     
    3    1    8 1     
    4    1    9 1     
    5    2    3 3     
    6    3    4 1     
    7    4    5 ar    
    8    4    6 ar    
@<TRIPOS>SUBSTRUCTURE
      1 ****           1
@<TRIPOS>COMMENT
> <Gold.Version>
2022.2.0

> <Gold.Id.Protein>
3pbl|protein|mol2

> <Gold.Protein.RotatedTorsions>
[ 1303 1298 1297 1294 ] final   43.05 input  179.99 | X-H torsion
[ 2461 2456 2455 2452 ] final -136.80 input   30.03 | X-H torsion
[ 2515 2510 2509 2506 ] final  -65.25 input  -89.99 | X-H torsion
[ 3721 3712 3711 3710 ] final   67.34 input -179.91 | X-H torsion
[ 3841 3832 3831 3830 ] final  -94.57 input -179.91 | X-H torsion
[ 3767 3762 3761 3758 ] final   15.14 input  -89.99 | X-H torsion
[ 2472 2467 2466 2463 ] final -156.45 input  -89.97 | X-H torsion

> <Gold.Protein.ActiveResidues>
 VAL82   VAL86   LEU89   PHE106  VAL107  ASP110  VAL111  MET112  CYS114  THR115 
 CYS181  SER182  ILE183  PHE188  VAL189  ILE190  SER192  SER193  SER196  TRP342 
 PHE345  PHE346  HIS349  VAL350  TYR365  THR369  GLY372  TYR373 

> <Gold.Protein.RotatedAtoms>
    3.7847  -10.2480    4.4700 H   0  0  0  0  0  0  0  0  0  0  0  0  # atno 1303 bound_to 1298
    0.7845   -9.2595    8.2111 H   0  0  0  0  0  0  0  0  0  0  0  0  # atno 2461 bound_to 2456
   -5.0709   -5.4509    9.2799 H   0  0  0  0  0  0  0  0  0  0  0  0  # atno 2472 bound_to 2467
    2.8307   -8.5824    4.4082 H   0  0  0  0  0  0  0  0  0  0  0  0  # atno 2515 bound_to 2510
   -2.6323  -17.8493   13.2991 H   0  0  0  0  0  0  0  0  0  0  0  0  # atno 3721 bound_to 3712
   -5.1670  -22.8976   10.0791 H   0  0  0  0  0  0  0  0  0  0  0  0  # atno 3767 bound_to 3762
    1.9024  -19.5998    8.6619 H   0  0  0  0  0  0  0  0  0  0  0  0  # atno 3841 bound_to 3832
    3.6684   -8.7587    3.8106 LP  0  0  0  0  0  0  0  0  0  0  0  0  # atno 4297 bound_to 1298
    4.9092   -9.1143    4.8109 LP  0  0  0  0  0  0  0  0  0  0  0  0  # atno 4298 bound_to 1298
    2.1612   -8.4460    7.8790 LP  0  0  0  0  0  0  0  0  0  0  0  0  # atno 4299 bound_to 2456
    0.7919   -8.1028    7.0581 LP  0  0  0  0  0  0  0  0  0  0  0  0  # atno 4300 bound_to 2456
    2.2884   -8.9795    5.8962 LP  0  0  0  0  0  0  0  0  0  0  0  0  # atno 4301 bound_to 2510
    2.1774   -7.4372    5.3712 LP  0  0  0  0  0  0  0  0  0  0  0  0  # atno 4302 bound_to 2510
   -2.9250  -17.5253   14.8442 LP  0  0  0  0  0  0  0  0  0  0  0  0  # atno 4306 bound_to 3712
   -3.5637  -16.5937   13.6649 LP  0  0  0  0  0  0  0  0  0  0  0  0  # atno 4307 bound_to 3712
    3.1271  -20.6260    8.5106 LP  0  0  0  0  0  0  0  0  0  0  0  0  # atno 4314 bound_to 3832
    1.9047  -20.9385    9.5473 LP  0  0  0  0  0  0  0  0  0  0  0  0  # atno 4315 bound_to 3832
   -5.0505  -21.9206   11.3824 LP  0  0  0  0  0  0  0  0  0  0  0  0  # atno 4318 bound_to 3762
   -3.9100  -23.0570   11.1093 LP  0  0  0  0  0  0  0  0  0  0  0  0  # atno 4319 bound_to 3762
   -5.0108   -4.8911    7.7471 LP  0  0  0  0  0  0  0  0  0  0  0  0  # atno 4320 bound_to 2467
   -3.6352   -5.0516    8.6123 LP  0  0  0  0  0  0  0  0  0  0  0  0  # atno 4321 bound_to 2467

> <Gold.Score>
     Score     S(PLP)   S(hbond)     S(cho)   S(metal)  DE(clash)   DE(tors)     intcor
     22.49     -19.49       1.00       0.00       0.00       0.00       0.00       0.00

> <Gold.PLP.Fitness>
22.4909

> <Gold.PLP.PLP>
-19.4909

> <Gold.PLP.part.hbond>
-1.0000

> <Gold.PLP.part.metal>
0.0000

> <Gold.PLP.part.buried>
-3.3163

> <Gold.PLP.part.nonpolar>
-15.5195

> <Gold.PLP.part.repulsive>
0.0898

> <Gold.PLP.ligand.clash>
0.0000

> <Gold.PLP.ligand.torsion>
0.0000

> <Gold.PLP.Chemscore.Hbond>
1.0000

> <Gold.PLP.Chemscore.CHOScore>
0.0000

> <Gold.PLP.Chemscore.Metal>
0.0000

> <Gold.Chemscore.Hbonds>
donor molecule, donor type, donor heavy atom, donor atom, acceptor molecule, acceptor atom, score
      P1  H  2456  2461       L1     6  1.00

> <Gold.PLP.Chemscore.Internal.Correction>
0.0000

