#       Name:                EN300-91328_i001
#       Creating user name   fsindt
#       Creation time:       Mon Feb 27 17:09:19 2023


#       File generated by GOLD software.
#

@<TRIPOS>MOLECULE
EN300-91328_i001|acide_1|mol2|31|dock14
     9     8     1
SMALL
USER_CHARGES


@<TRIPOS>ATOM
      1 C1          -1.3447 -18.8977   8.1005 C.3            1 <1>                0.0000
      2 C2          -0.8808 -18.8855   9.4975 C.1            1 <1>                0.0000
      3 C3          -0.5108 -18.8758  10.6116 C.1            1 <1>                0.0000
      4 C4          -0.0595 -18.8640  11.9706 C.2            1 <1>                0.0000
      5 O5          -0.8444 -18.6076  12.8738 O.co2          1 <1>                0.0000
      6 O6           1.1111 -19.1103  12.2288 O.co2          1 <1>               -1.0000
      7 H7          -1.5852 -17.8813   7.7888 H              1 <1>                0.0000
      8 H8          -0.5586 -19.2978   7.4602 H              1 <1>                0.0000
      9 H9          -2.2337 -19.5229   8.0184 H              1 <1>                0.0000
@<TRIPOS>BOND
    1    1    2 1     
    2    1    7 1     
    3    1    8 1     
    4    1    9 1     
    5    2    3 3     
    6    3    4 1     
    7    4    5 ar    
    8    4    6 ar    
@<TRIPOS>SUBSTRUCTURE
      1 ****           1
@<TRIPOS>COMMENT
> <Gold.Version>
2022.2.0

> <Gold.Id.Protein>
3pbl|protein|mol2

> <Gold.Protein.RotatedTorsions>
[ 1303 1298 1297 1294 ] final  155.64 input  179.99 | X-H torsion
[ 2461 2456 2455 2452 ] final    6.89 input   30.03 | X-H torsion
[ 2515 2510 2509 2506 ] final  116.84 input  -89.99 | X-H torsion
[ 3721 3712 3711 3710 ] final   44.05 input -179.91 | X-H torsion
[ 3841 3832 3831 3830 ] final  -38.35 input -179.91 | X-H torsion
[ 3767 3762 3761 3758 ] final  -14.59 input  -89.99 | X-H torsion
[ 2472 2467 2466 2463 ] final  -49.92 input  -89.97 | X-H torsion

> <Gold.Protein.ActiveResidues>
 VAL82   VAL86   LEU89   PHE106  VAL107  ASP110  VAL111  MET112  CYS114  THR115 
 CYS181  SER182  ILE183  PHE188  VAL189  ILE190  SER192  SER193  SER196  TRP342 
 PHE345  PHE346  HIS349  VAL350  TYR365  THR369  GLY372  TYR373 

> <Gold.Protein.RotatedAtoms>
    4.9109   -9.2273    4.8565 H   0  0  0  0  0  0  0  0  0  0  0  0  # atno 1303 bound_to 1298
    1.1495   -7.9560    7.0364 H   0  0  0  0  0  0  0  0  0  0  0  0  # atno 2461 bound_to 2456
   -3.6690   -5.1296    8.8163 H   0  0  0  0  0  0  0  0  0  0  0  0  # atno 2472 bound_to 2467
    2.0365   -8.1162    6.0525 H   0  0  0  0  0  0  0  0  0  0  0  0  # atno 2515 bound_to 2510
   -2.5205  -17.9985   13.5949 H   0  0  0  0  0  0  0  0  0  0  0  0  # atno 3721 bound_to 3712
   -5.4333  -22.5362   10.2597 H   0  0  0  0  0  0  0  0  0  0  0  0  # atno 3767 bound_to 3762
    1.5613  -20.0343    9.2621 H   0  0  0  0  0  0  0  0  0  0  0  0  # atno 3841 bound_to 3832
    3.6952  -10.2146    4.3942 LP  0  0  0  0  0  0  0  0  0  0  0  0  # atno 4297 bound_to 1298
    3.7558   -8.6795    3.8406 LP  0  0  0  0  0  0  0  0  0  0  0  0  # atno 4298 bound_to 1298
    0.5058   -9.1244    7.9788 LP  0  0  0  0  0  0  0  0  0  0  0  0  # atno 4299 bound_to 2456
    2.0824   -8.7276    8.1327 LP  0  0  0  0  0  0  0  0  0  0  0  0  # atno 4300 bound_to 2456
    2.5621   -7.6630    4.5746 LP  0  0  0  0  0  0  0  0  0  0  0  0  # atno 4301 bound_to 2510
    2.6982   -9.2200    5.0478 LP  0  0  0  0  0  0  0  0  0  0  0  0  # atno 4302 bound_to 2510
   -3.1169  -17.1899   14.8473 LP  0  0  0  0  0  0  0  0  0  0  0  0  # atno 4306 bound_to 3712
   -3.5008  -16.7569   13.3203 LP  0  0  0  0  0  0  0  0  0  0  0  0  # atno 4307 bound_to 3712
    2.7039  -19.9203    8.1407 LP  0  0  0  0  0  0  0  0  0  0  0  0  # atno 4314 bound_to 3832
    2.7219  -21.1423    9.2238 LP  0  0  0  0  0  0  0  0  0  0  0  0  # atno 4315 bound_to 3832
   -4.6456  -22.0588   11.6081 LP  0  0  0  0  0  0  0  0  0  0  0  0  # atno 4318 bound_to 3762
   -4.0487  -23.2800   10.7031 LP  0  0  0  0  0  0  0  0  0  0  0  0  # atno 4319 bound_to 3762
   -5.2422   -5.4199    9.1436 LP  0  0  0  0  0  0  0  0  0  0  0  0  # atno 4320 bound_to 2467
   -4.8056   -4.8441    7.6792 LP  0  0  0  0  0  0  0  0  0  0  0  0  # atno 4321 bound_to 2467

> <Gold.Score>
     Score     S(PLP)   S(hbond)     S(cho)   S(metal)  DE(clash)   DE(tors)     intcor
     21.50     -18.50       1.00       0.00       0.00       0.00       0.00       0.00

> <Gold.PLP.Fitness>
21.5024

> <Gold.PLP.PLP>
-18.5024

> <Gold.PLP.part.hbond>
-1.0000

> <Gold.PLP.part.metal>
0.0000

> <Gold.PLP.part.buried>
-2.5267

> <Gold.PLP.part.nonpolar>
-15.4293

> <Gold.PLP.part.repulsive>
0.0869

> <Gold.PLP.ligand.clash>
0.0000

> <Gold.PLP.ligand.torsion>
0.0000

> <Gold.PLP.Chemscore.Hbond>
1.0000

> <Gold.PLP.Chemscore.CHOScore>
0.0000

> <Gold.PLP.Chemscore.Metal>
0.0000

> <Gold.Chemscore.Hbonds>
donor molecule, donor type, donor heavy atom, donor atom, acceptor molecule, acceptor atom, score
      P1  H  3712  3721       L1     5  1.00

> <Gold.PLP.Chemscore.Internal.Correction>
0.0000

