#       Name:                EN300-91328_i001
#       Creating user name   fsindt
#       Creation time:       Mon Feb 27 17:09:20 2023


#       File generated by GOLD software.
#

@<TRIPOS>MOLECULE
EN300-91328_i001|acide_1|mol2|31|dock18
     9     8     1
SMALL
USER_CHARGES


@<TRIPOS>ATOM
      1 C1          -3.8687 -10.2003  10.2035 C.3            1 <1>                0.0000
      2 C2          -2.6569 -11.0336  10.1425 C.1            1 <1>                0.0000
      3 C3          -1.6903 -11.6982  10.0938 C.1            1 <1>                0.0000
      4 C4          -0.5114 -12.5089  10.0344 C.2            1 <1>                0.0000
      5 O5          -0.4218 -13.5106  10.7318 O.co2          1 <1>                0.0000
      6 O6           0.4065 -12.2002   9.2863 O.co2          1 <1>               -1.0000
      7 H7          -4.6943 -10.7238   9.7213 H              1 <1>                0.0000
      8 H8          -4.1222 -10.0035  11.2452 H              1 <1>                0.0000
      9 H9          -3.6870  -9.2566   9.6892 H              1 <1>                0.0000
@<TRIPOS>BOND
    1    1    2 1     
    2    1    7 1     
    3    1    8 1     
    4    1    9 1     
    5    2    3 3     
    6    3    4 1     
    7    4    5 ar    
    8    4    6 ar    
@<TRIPOS>SUBSTRUCTURE
      1 ****           1
@<TRIPOS>COMMENT
> <Gold.Version>
2022.2.0

> <Gold.Id.Protein>
3pbl|protein|mol2

> <Gold.Protein.RotatedTorsions>
[ 1303 1298 1297 1294 ] final  -28.28 input  179.99 | X-H torsion
[ 2461 2456 2455 2452 ] final   63.85 input   30.03 | X-H torsion
[ 2515 2510 2509 2506 ] final -156.72 input  -89.99 | X-H torsion
[ 3721 3712 3711 3710 ] final -159.06 input -179.91 | X-H torsion
[ 3841 3832 3831 3830 ] final   17.66 input -179.91 | X-H torsion
[ 3767 3762 3761 3758 ] final -122.84 input  -89.99 | X-H torsion
[ 2472 2467 2466 2463 ] final -172.06 input  -89.97 | X-H torsion

> <Gold.Protein.ActiveResidues>
 VAL82   VAL86   LEU89   PHE106  VAL107  ASP110  VAL111  MET112  CYS114  THR115 
 CYS181  SER182  ILE183  PHE188  VAL189  ILE190  SER192  SER193  SER196  TRP342 
 PHE345  PHE346  HIS349  VAL350  TYR365  THR369  GLY372  TYR373 

> <Gold.Protein.RotatedAtoms>
    3.3344   -9.4592    3.8510 H   0  0  0  0  0  0  0  0  0  0  0  0  # atno 1303 bound_to 1298
    1.9566   -8.0580    7.4200 H   0  0  0  0  0  0  0  0  0  0  0  0  # atno 2461 bound_to 2456
   -5.2662   -5.4142    9.1184 H   0  0  0  0  0  0  0  0  0  0  0  0  # atno 2472 bound_to 2467
    2.4862   -9.2164    5.5490 H   0  0  0  0  0  0  0  0  0  0  0  0  # atno 2515 bound_to 2510
   -3.3373  -16.5331   13.8521 H   0  0  0  0  0  0  0  0  0  0  0  0  # atno 3721 bound_to 3712
   -4.8093  -21.9827   11.5401 H   0  0  0  0  0  0  0  0  0  0  0  0  # atno 3767 bound_to 3762
    1.9157  -20.6746    9.6159 H   0  0  0  0  0  0  0  0  0  0  0  0  # atno 3841 bound_to 3832
    4.5910   -8.5566    4.3733 LP  0  0  0  0  0  0  0  0  0  0  0  0  # atno 4297 bound_to 1298
    4.4370  -10.1055    4.8674 LP  0  0  0  0  0  0  0  0  0  0  0  0  # atno 4298 bound_to 1298
    0.3909   -8.5138    7.3288 LP  0  0  0  0  0  0  0  0  0  0  0  0  # atno 4299 bound_to 2456
    1.3904   -9.2361    8.3992 LP  0  0  0  0  0  0  0  0  0  0  0  0  # atno 4300 bound_to 2456
    2.0588   -7.6554    5.7638 LP  0  0  0  0  0  0  0  0  0  0  0  0  # atno 4301 bound_to 2510
    2.7517   -8.1269    4.3623 LP  0  0  0  0  0  0  0  0  0  0  0  0  # atno 4302 bound_to 2510
   -2.8718  -17.8853   13.1222 LP  0  0  0  0  0  0  0  0  0  0  0  0  # atno 4306 bound_to 3712
   -2.8029  -17.7533   14.7484 LP  0  0  0  0  0  0  0  0  0  0  0  0  # atno 4307 bound_to 3712
    1.8885  -19.6368    8.3918 LP  0  0  0  0  0  0  0  0  0  0  0  0  # atno 4314 bound_to 3832
    3.1279  -20.6862    8.5640 LP  0  0  0  0  0  0  0  0  0  0  0  0  # atno 4315 bound_to 3832
   -3.9699  -23.2100   10.8649 LP  0  0  0  0  0  0  0  0  0  0  0  0  # atno 4318 bound_to 3762
   -5.3483  -22.6821   10.1663 LP  0  0  0  0  0  0  0  0  0  0  0  0  # atno 4319 bound_to 3762
   -4.7717   -4.8380    7.6728 LP  0  0  0  0  0  0  0  0  0  0  0  0  # atno 4320 bound_to 2467
   -3.6792   -5.1413    8.8480 LP  0  0  0  0  0  0  0  0  0  0  0  0  # atno 4321 bound_to 2467

> <Gold.Score>
     Score     S(PLP)   S(hbond)     S(cho)   S(metal)  DE(clash)   DE(tors)     intcor
     21.58     -21.58       0.00       0.00       0.00       0.00       0.00       0.00

> <Gold.PLP.Fitness>
21.5817

> <Gold.PLP.PLP>
-21.5817

> <Gold.PLP.part.hbond>
0.0000

> <Gold.PLP.part.metal>
0.0000

> <Gold.PLP.part.buried>
-2.7591

> <Gold.PLP.part.nonpolar>
-19.3360

> <Gold.PLP.part.repulsive>
0.0177

> <Gold.PLP.ligand.clash>
0.0000

> <Gold.PLP.ligand.torsion>
0.0000

> <Gold.PLP.Chemscore.Hbond>
0.0000

> <Gold.PLP.Chemscore.CHOScore>
0.0000

> <Gold.PLP.Chemscore.Metal>
0.0000

> <Gold.PLP.Chemscore.Internal.Correction>
0.0000

