#       Name:                EN300-91328_i001
#       Creating user name   fsindt
#       Creation time:       Mon Feb 27 17:09:20 2023


#       File generated by GOLD software.
#

@<TRIPOS>MOLECULE
EN300-91328_i001|acide_1|mol2|31|dock20
     9     8     1
SMALL
USER_CHARGES


@<TRIPOS>ATOM
      1 C1           0.7983 -15.3552   6.8994 C.3            1 <1>                0.0000
      2 C2           0.4832 -14.0782   7.5602 C.1            1 <1>                0.0000
      3 C3           0.2319 -13.0596   8.0871 C.1            1 <1>                0.0000
      4 C4          -0.0747 -11.8173   8.7299 C.2            1 <1>                0.0000
      5 O5          -1.1308 -11.6850   9.3338 O.co2          1 <1>                0.0000
      6 O6           0.7195 -10.8878   8.6754 O.co2          1 <1>               -1.0000
      7 H7           0.7166 -15.2352   5.8191 H              1 <1>                0.0000
      8 H8           1.8142 -15.6559   7.1557 H              1 <1>                0.0000
      9 H9           0.0975 -16.1201   7.2341 H              1 <1>                0.0000
@<TRIPOS>BOND
    1    1    2 1     
    2    1    7 1     
    3    1    8 1     
    4    1    9 1     
    5    2    3 3     
    6    3    4 1     
    7    4    5 ar    
    8    4    6 ar    
@<TRIPOS>SUBSTRUCTURE
      1 ****           1
@<TRIPOS>COMMENT
> <Gold.Version>
2022.2.0

> <Gold.Id.Protein>
3pbl|protein|mol2

> <Gold.Protein.RotatedTorsions>
[ 1303 1298 1297 1294 ] final  101.15 input  179.99 | X-H torsion
[ 2461 2456 2455 2452 ] final -142.75 input   30.03 | X-H torsion
[ 2515 2510 2509 2506 ] final  111.10 input  -89.99 | X-H torsion
[ 3721 3712 3711 3710 ] final  164.31 input -179.91 | X-H torsion
[ 3841 3832 3831 3830 ] final -117.36 input -179.91 | X-H torsion
[ 3767 3762 3761 3758 ] final -110.65 input  -89.99 | X-H torsion
[ 2472 2467 2466 2463 ] final   23.03 input  -89.97 | X-H torsion

> <Gold.Protein.ActiveResidues>
 VAL82   VAL86   LEU89   PHE106  VAL107  ASP110  VAL111  MET112  CYS114  THR115 
 CYS181  SER182  ILE183  PHE188  VAL189  ILE190  SER192  SER193  SER196  TRP342 
 PHE345  PHE346  HIS349  VAL350  TYR365  THR369  GLY372  TYR373 

> <Gold.Protein.RotatedAtoms>
    4.5511  -10.0099    4.9103 H   0  0  0  0  0  0  0  0  0  0  0  0  # atno 1303 bound_to 1298
    0.8689   -9.2765    8.2576 H   0  0  0  0  0  0  0  0  0  0  0  0  # atno 2461 bound_to 2456
   -4.0665   -4.8132    7.8170 H   0  0  0  0  0  0  0  0  0  0  0  0  # atno 2472 bound_to 2467
    2.0307   -8.0275    6.0211 H   0  0  0  0  0  0  0  0  0  0  0  0  # atno 2515 bound_to 2510
   -3.2737  -16.7227   13.3459 H   0  0  0  0  0  0  0  0  0  0  0  0  # atno 3721 bound_to 3712
   -4.9750  -21.9328   11.4396 H   0  0  0  0  0  0  0  0  0  0  0  0  # atno 3767 bound_to 3762
    2.1881  -19.5879    8.4742 H   0  0  0  0  0  0  0  0  0  0  0  0  # atno 3841 bound_to 3832
    3.3306   -9.6046    3.9041 LP  0  0  0  0  0  0  0  0  0  0  0  0  # atno 4297 bound_to 1298
    4.4803   -8.5065    4.2770 LP  0  0  0  0  0  0  0  0  0  0  0  0  # atno 4298 bound_to 1298
    2.1567   -8.3777    7.8092 LP  0  0  0  0  0  0  0  0  0  0  0  0  # atno 4299 bound_to 2456
    0.7120   -8.1542    7.0815 LP  0  0  0  0  0  0  0  0  0  0  0  0  # atno 4300 bound_to 2456
    2.5996   -7.7300    4.5199 LP  0  0  0  0  0  0  0  0  0  0  0  0  # atno 4301 bound_to 2510
    2.6666   -9.2417    5.1339 LP  0  0  0  0  0  0  0  0  0  0  0  0  # atno 4302 bound_to 2510
   -2.6583  -18.1840   13.5987 LP  0  0  0  0  0  0  0  0  0  0  0  0  # atno 4306 bound_to 3712
   -3.0898  -17.2357   14.8562 LP  0  0  0  0  0  0  0  0  0  0  0  0  # atno 4307 bound_to 3712
    3.0769  -20.8894    8.7775 LP  0  0  0  0  0  0  0  0  0  0  0  0  # atno 4314 bound_to 3832
    1.6248  -20.6890    9.4971 LP  0  0  0  0  0  0  0  0  0  0  0  0  # atno 4315 bound_to 3832
   -3.9209  -23.1117   11.0322 LP  0  0  0  0  0  0  0  0  0  0  0  0  # atno 4318 bound_to 3762
   -5.2315  -22.8303   10.0996 LP  0  0  0  0  0  0  0  0  0  0  0  0  # atno 4319 bound_to 3762
   -4.1412   -5.3728    9.3492 LP  0  0  0  0  0  0  0  0  0  0  0  0  # atno 4320 bound_to 2467
   -5.5091   -5.2074    8.4727 LP  0  0  0  0  0  0  0  0  0  0  0  0  # atno 4321 bound_to 2467

> <Gold.Score>
     Score     S(PLP)   S(hbond)     S(cho)   S(metal)  DE(clash)   DE(tors)     intcor
     23.06     -20.06       1.00       0.00       0.00       0.00       0.00       0.00

> <Gold.PLP.Fitness>
23.0610

> <Gold.PLP.PLP>
-20.0610

> <Gold.PLP.part.hbond>
-1.0000

> <Gold.PLP.part.metal>
0.0000

> <Gold.PLP.part.buried>
-2.6572

> <Gold.PLP.part.nonpolar>
-16.4669

> <Gold.PLP.part.repulsive>
0.0000

> <Gold.PLP.ligand.clash>
0.0000

> <Gold.PLP.ligand.torsion>
0.0000

> <Gold.PLP.Chemscore.Hbond>
1.0000

> <Gold.PLP.Chemscore.CHOScore>
0.0000

> <Gold.PLP.Chemscore.Metal>
0.0000

> <Gold.Chemscore.Hbonds>
donor molecule, donor type, donor heavy atom, donor atom, acceptor molecule, acceptor atom, score
      P1  H  2456  2461       L1     6  1.00

> <Gold.PLP.Chemscore.Internal.Correction>
0.0000

