#       Name:                EN300-91328_i001
#       Creating user name   fsindt
#       Creation time:       Mon Feb 27 17:09:19 2023


#       File generated by GOLD software.
#

@<TRIPOS>MOLECULE
EN300-91328_i001|acide_1|mol2|31|dock15
     9     8     1
SMALL
USER_CHARGES


@<TRIPOS>ATOM
      1 C1           0.8928 -14.6990  10.4306 C.3            1 <1>                0.0000
      2 C2           0.8442 -13.6904   9.3595 C.1            1 <1>                0.0000
      3 C3           0.8053 -12.8861   8.5053 C.1            1 <1>                0.0000
      4 C4           0.7580 -11.9050   7.4633 C.2            1 <1>                0.0000
      5 O5           0.2119 -10.8279   7.6614 O.co2          1 <1>                0.0000
      6 O6           1.2636 -12.1436   6.3747 O.co2          1 <1>               -1.0000
      7 H7           0.3118 -15.5723  10.1341 H              1 <1>                0.0000
      8 H8           1.9276 -14.9934  10.6057 H              1 <1>                0.0000
      9 H9           0.4751 -14.2781  11.3452 H              1 <1>                0.0000
@<TRIPOS>BOND
    1    1    2 1     
    2    1    7 1     
    3    1    8 1     
    4    1    9 1     
    5    2    3 3     
    6    3    4 1     
    7    4    5 ar    
    8    4    6 ar    
@<TRIPOS>SUBSTRUCTURE
      1 ****           1
@<TRIPOS>COMMENT
> <Gold.Version>
2022.2.0

> <Gold.Id.Protein>
3pbl|protein|mol2

> <Gold.Protein.RotatedTorsions>
[ 1303 1298 1297 1294 ] final   -6.26 input  179.99 | X-H torsion
[ 2461 2456 2455 2452 ] final -123.75 input   30.03 | X-H torsion
[ 2515 2510 2509 2506 ] final  103.92 input  -89.99 | X-H torsion
[ 3721 3712 3711 3710 ] final -105.64 input -179.91 | X-H torsion
[ 3841 3832 3831 3830 ] final -123.00 input -179.91 | X-H torsion
[ 3767 3762 3761 3758 ] final -100.36 input  -89.99 | X-H torsion
[ 2472 2467 2466 2463 ] final  -44.83 input  -89.97 | X-H torsion

> <Gold.Protein.ActiveResidues>
 VAL82   VAL86   LEU89   PHE106  VAL107  ASP110  VAL111  MET112  CYS114  THR115 
 CYS181  SER182  ILE183  PHE188  VAL189  ILE190  SER192  SER193  SER196  TRP342 
 PHE345  PHE346  HIS349  VAL350  TYR365  THR369  GLY372  TYR373 

> <Gold.Protein.RotatedAtoms>
    3.3584   -9.7881    3.9953 H   0  0  0  0  0  0  0  0  0  0  0  0  # atno 1303 bound_to 1298
    0.6179   -9.1978    8.0913 H   0  0  0  0  0  0  0  0  0  0  0  0  # atno 2461 bound_to 2456
   -3.6502   -5.1001    8.7402 H   0  0  0  0  0  0  0  0  0  0  0  0  # atno 2472 bound_to 2467
    2.0290   -7.9209    5.9705 H   0  0  0  0  0  0  0  0  0  0  0  0  # atno 2515 bound_to 2510
   -3.1330  -16.7795   14.5619 H   0  0  0  0  0  0  0  0  0  0  0  0  # atno 3721 bound_to 3712
   -5.1060  -21.9149   11.3339 H   0  0  0  0  0  0  0  0  0  0  0  0  # atno 3767 bound_to 3762
    2.2646  -19.6016    8.4392 H   0  0  0  0  0  0  0  0  0  0  0  0  # atno 3841 bound_to 3832
    4.3182   -8.4764    4.1526 LP  0  0  0  0  0  0  0  0  0  0  0  0  # atno 4297 bound_to 1298
    4.6859   -9.8567    4.9438 LP  0  0  0  0  0  0  0  0  0  0  0  0  # atno 4298 bound_to 1298
    2.1366   -8.6008    8.0251 LP  0  0  0  0  0  0  0  0  0  0  0  0  # atno 4299 bound_to 2456
    0.9831   -8.0097    7.0319 LP  0  0  0  0  0  0  0  0  0  0  0  0  # atno 4300 bound_to 2456
    2.6443   -7.8224    4.4614 LP  0  0  0  0  0  0  0  0  0  0  0  0  # atno 4301 bound_to 2510
    2.6237   -9.2561    5.2430 LP  0  0  0  0  0  0  0  0  0  0  0  0  # atno 4302 bound_to 2510
   -3.3036  -17.1494   13.0089 LP  0  0  0  0  0  0  0  0  0  0  0  0  # atno 4306 bound_to 3712
   -2.6070  -18.2047   14.0422 LP  0  0  0  0  0  0  0  0  0  0  0  0  # atno 4307 bound_to 3712
    3.0440  -20.9441    8.8469 LP  0  0  0  0  0  0  0  0  0  0  0  0  # atno 4314 bound_to 3832
    1.5694  -20.6183    9.4682 LP  0  0  0  0  0  0  0  0  0  0  0  0  # atno 4315 bound_to 3832
   -3.9072  -23.0113   11.1677 LP  0  0  0  0  0  0  0  0  0  0  0  0  # atno 4318 bound_to 3762
   -5.1143  -22.9486   10.0697 LP  0  0  0  0  0  0  0  0  0  0  0  0  # atno 4319 bound_to 3762
   -5.1813   -5.4333    9.1996 LP  0  0  0  0  0  0  0  0  0  0  0  0  # atno 4320 bound_to 2467
   -4.8853   -4.8601    7.6994 LP  0  0  0  0  0  0  0  0  0  0  0  0  # atno 4321 bound_to 2467

> <Gold.Score>
     Score     S(PLP)   S(hbond)     S(cho)   S(metal)  DE(clash)   DE(tors)     intcor
     20.78     -17.78       1.00       0.00       0.00       0.00       0.00       0.00

> <Gold.PLP.Fitness>
20.7839

> <Gold.PLP.PLP>
-17.7839

> <Gold.PLP.part.hbond>
-1.0000

> <Gold.PLP.part.metal>
0.0000

> <Gold.PLP.part.buried>
-3.0474

> <Gold.PLP.part.nonpolar>
-13.9247

> <Gold.PLP.part.repulsive>
0.0930

> <Gold.PLP.ligand.clash>
0.0000

> <Gold.PLP.ligand.torsion>
0.0000

> <Gold.PLP.Chemscore.Hbond>
1.0000

> <Gold.PLP.Chemscore.CHOScore>
0.0000

> <Gold.PLP.Chemscore.Metal>
0.0000

> <Gold.Chemscore.Hbonds>
donor molecule, donor type, donor heavy atom, donor atom, acceptor molecule, acceptor atom, score
      P1  H  2456  2461       L1     5  1.00

> <Gold.PLP.Chemscore.Internal.Correction>
0.0000

