#       Name:                EN300-91328_i001
#       Creating user name   fsindt
#       Creation time:       Mon Feb 27 17:09:18 2023


#       File generated by GOLD software.
#

@<TRIPOS>MOLECULE
EN300-91328_i001|acide_1|mol2|31|dock9
     9     8     1
SMALL
USER_CHARGES


@<TRIPOS>ATOM
      1 C1          -4.6085  -9.9025   9.8161 C.3            1 <1>                0.0000
      2 C2          -3.2111 -10.2954  10.0603 C.1            1 <1>                0.0000
      3 C3          -2.0966 -10.6087  10.2552 C.1            1 <1>                0.0000
      4 C4          -0.7372 -10.9909  10.4928 C.2            1 <1>                0.0000
      5 O5          -0.4745 -11.8056  11.3674 O.co2          1 <1>                0.0000
      6 O6           0.1620 -10.5029   9.8212 O.co2          1 <1>               -1.0000
      7 H7          -4.8683  -9.0637  10.4620 H              1 <1>                0.0000
      8 H8          -4.7261  -9.6080   8.7732 H              1 <1>                0.0000
      9 H9          -5.2658 -10.7447  10.0322 H              1 <1>                0.0000
@<TRIPOS>BOND
    1    1    2 1     
    2    1    7 1     
    3    1    8 1     
    4    1    9 1     
    5    2    3 3     
    6    3    4 1     
    7    4    5 ar    
    8    4    6 ar    
@<TRIPOS>SUBSTRUCTURE
      1 ****           1
@<TRIPOS>COMMENT
> <Gold.Version>
2022.2.0

> <Gold.Id.Protein>
3pbl|protein|mol2

> <Gold.Protein.RotatedTorsions>
[ 1303 1298 1297 1294 ] final  -40.19 input  179.99 | X-H torsion
[ 2461 2456 2455 2452 ] final -148.51 input   30.03 | X-H torsion
[ 2515 2510 2509 2506 ] final  107.70 input  -89.99 | X-H torsion
[ 3721 3712 3711 3710 ] final -170.47 input -179.91 | X-H torsion
[ 3841 3832 3831 3830 ] final   43.66 input -179.91 | X-H torsion
[ 3767 3762 3761 3758 ] final   62.14 input  -89.99 | X-H torsion
[ 2472 2467 2466 2463 ] final  -56.34 input  -89.97 | X-H torsion

> <Gold.Protein.ActiveResidues>
 VAL82   VAL86   LEU89   PHE106  VAL107  ASP110  VAL111  MET112  CYS114  THR115 
 CYS181  SER182  ILE183  PHE188  VAL189  ILE190  SER192  SER193  SER196  TRP342 
 PHE345  PHE346  HIS349  VAL350  TYR365  THR369  GLY372  TYR373 

> <Gold.Protein.RotatedAtoms>
    3.3697   -9.2729    3.8032 H   0  0  0  0  0  0  0  0  0  0  0  0  # atno 1303 bound_to 1298
    0.9546   -9.2861    8.2970 H   0  0  0  0  0  0  0  0  0  0  0  0  # atno 2461 bound_to 2456
   -3.7028   -5.1668    8.9092 H   0  0  0  0  0  0  0  0  0  0  0  0  # atno 2472 bound_to 2467
    2.0291   -7.9762    5.9986 H   0  0  0  0  0  0  0  0  0  0  0  0  # atno 2515 bound_to 2510
   -3.3360  -16.5617   13.6824 H   0  0  0  0  0  0  0  0  0  0  0  0  # atno 3721 bound_to 3712
   -4.5397  -23.2907   10.2110 H   0  0  0  0  0  0  0  0  0  0  0  0  # atno 3767 bound_to 3762
    2.2474  -20.8774    9.5920 H   0  0  0  0  0  0  0  0  0  0  0  0  # atno 3841 bound_to 3832
    4.7122   -8.6512    4.4943 LP  0  0  0  0  0  0  0  0  0  0  0  0  # atno 4297 bound_to 1298
    4.2806  -10.1973    4.7943 LP  0  0  0  0  0  0  0  0  0  0  0  0  # atno 4298 bound_to 1298
    2.1430   -8.3138    7.7406 LP  0  0  0  0  0  0  0  0  0  0  0  0  # atno 4299 bound_to 2456
    0.6401   -8.2085    7.1107 LP  0  0  0  0  0  0  0  0  0  0  0  0  # atno 4300 bound_to 2456
    2.6212   -7.7728    4.4907 LP  0  0  0  0  0  0  0  0  0  0  0  0  # atno 4301 bound_to 2510
    2.6466   -9.2503    5.1855 LP  0  0  0  0  0  0  0  0  0  0  0  0  # atno 4302 bound_to 2510
   -2.7912  -18.0071   13.2441 LP  0  0  0  0  0  0  0  0  0  0  0  0  # atno 4306 bound_to 3712
   -2.8850  -17.5985   14.8224 LP  0  0  0  0  0  0  0  0  0  0  0  0  # atno 4307 bound_to 3712
    1.5812  -19.7408    8.6753 LP  0  0  0  0  0  0  0  0  0  0  0  0  # atno 4314 bound_to 3832
    3.0520  -20.3479    8.3081 LP  0  0  0  0  0  0  0  0  0  0  0  0  # atno 4315 bound_to 3832
   -5.4728  -22.0776   10.7805 LP  0  0  0  0  0  0  0  0  0  0  0  0  # atno 4318 bound_to 3762
   -4.1148  -22.5070   11.5793 LP  0  0  0  0  0  0  0  0  0  0  0  0  # atno 4319 bound_to 3762
   -5.3114   -5.3997    9.0665 LP  0  0  0  0  0  0  0  0  0  0  0  0  # atno 4320 bound_to 2467
   -4.7025   -4.8271    7.6636 LP  0  0  0  0  0  0  0  0  0  0  0  0  # atno 4321 bound_to 2467

> <Gold.Score>
     Score     S(PLP)   S(hbond)     S(cho)   S(metal)  DE(clash)   DE(tors)     intcor
     25.43     -22.48       0.98       0.00       0.00       0.00       0.00       0.00

> <Gold.PLP.Fitness>
25.4333

> <Gold.PLP.PLP>
-22.4833

> <Gold.PLP.part.hbond>
-1.0000

> <Gold.PLP.part.metal>
0.0000

> <Gold.PLP.part.buried>
-0.4892

> <Gold.PLP.part.nonpolar>
-21.6925

> <Gold.PLP.part.repulsive>
0.0000

> <Gold.PLP.ligand.clash>
0.0000

> <Gold.PLP.ligand.torsion>
0.0000

> <Gold.PLP.Chemscore.Hbond>
0.9833

> <Gold.PLP.Chemscore.CHOScore>
0.0000

> <Gold.PLP.Chemscore.Metal>
0.0000

> <Gold.Chemscore.Hbonds>
donor molecule, donor type, donor heavy atom, donor atom, acceptor molecule, acceptor atom, score
      P1  H  2456  2461       L1     6  0.98

> <Gold.PLP.Chemscore.Internal.Correction>
0.0000

