#       Name:                EN300-91328_i001
#       Creating user name   fsindt
#       Creation time:       Mon Feb 27 17:09:17 2023


#       File generated by GOLD software.
#

@<TRIPOS>MOLECULE
EN300-91328_i001|acide_1|mol2|31|dock3
     9     8     1
SMALL
USER_CHARGES


@<TRIPOS>ATOM
      1 C1           0.1997 -15.8712   7.7967 C.3            1 <1>                0.0000
      2 C2           0.5264 -14.4606   7.5314 C.1            1 <1>                0.0000
      3 C3           0.7869 -13.3356   7.3198 C.1            1 <1>                0.0000
      4 C4           1.1047 -11.9634   7.0617 C.2            1 <1>                0.0000
      5 O5           1.6575 -11.6495   6.0160 O.co2          1 <1>                0.0000
      6 O6           0.8235 -11.1045   7.8869 O.co2          1 <1>               -1.0000
      7 H7          -0.0003 -16.3812   6.8544 H              1 <1>                0.0000
      8 H8           1.0405 -16.3507   8.2981 H              1 <1>                0.0000
      9 H9          -0.6828 -15.9261   8.4340 H              1 <1>                0.0000
@<TRIPOS>BOND
    1    1    2 1     
    2    1    7 1     
    3    1    8 1     
    4    1    9 1     
    5    2    3 3     
    6    3    4 1     
    7    4    5 ar    
    8    4    6 ar    
@<TRIPOS>SUBSTRUCTURE
      1 ****           1
@<TRIPOS>COMMENT
> <Gold.Version>
2022.2.0

> <Gold.Id.Protein>
3pbl|protein|mol2

> <Gold.Protein.RotatedTorsions>
[ 1303 1298 1297 1294 ] final    2.65 input  179.99 | X-H torsion
[ 2461 2456 2455 2452 ] final -144.79 input   30.03 | X-H torsion
[ 2515 2510 2509 2506 ] final  114.16 input  -89.99 | X-H torsion
[ 3721 3712 3711 3710 ] final    1.37 input -179.91 | X-H torsion
[ 3841 3832 3831 3830 ] final -151.21 input -179.91 | X-H torsion
[ 3767 3762 3761 3758 ] final  -77.31 input  -89.99 | X-H torsion
[ 2472 2467 2466 2463 ] final  129.64 input  -89.97 | X-H torsion

> <Gold.Protein.ActiveResidues>
 VAL82   VAL86   LEU89   PHE106  VAL107  ASP110  VAL111  MET112  CYS114  THR115 
 CYS181  SER182  ILE183  PHE188  VAL189  ILE190  SER192  SER193  SER196  TRP342 
 PHE345  PHE346  HIS349  VAL350  TYR365  THR369  GLY372  TYR373 

> <Gold.Protein.RotatedAtoms>
    3.4005   -9.9065    4.0705 H   0  0  0  0  0  0  0  0  0  0  0  0  # atno 1303 bound_to 1298
    0.8989   -9.2807    8.2722 H   0  0  0  0  0  0  0  0  0  0  0  0  # atno 2461 bound_to 2456
   -5.4736   -5.1311    8.2696 H   0  0  0  0  0  0  0  0  0  0  0  0  # atno 2472 bound_to 2467
    2.0333   -8.0745    6.0388 H   0  0  0  0  0  0  0  0  0  0  0  0  # atno 2515 bound_to 2510
   -2.4842  -17.9644   14.2234 H   0  0  0  0  0  0  0  0  0  0  0  0  # atno 3721 bound_to 3712
   -5.3472  -21.9574   11.0476 H   0  0  0  0  0  0  0  0  0  0  0  0  # atno 3767 bound_to 3762
    2.6438  -19.7624    8.3483 H   0  0  0  0  0  0  0  0  0  0  0  0  # atno 3841 bound_to 3832
    4.1971   -8.4811    4.0703 LP  0  0  0  0  0  0  0  0  0  0  0  0  # atno 4297 bound_to 1298
    4.7649   -9.7336    4.9509 LP  0  0  0  0  0  0  0  0  0  0  0  0  # atno 4298 bound_to 1298
    2.1529   -8.3548    7.7849 LP  0  0  0  0  0  0  0  0  0  0  0  0  # atno 4299 bound_to 2456
    0.6859   -8.1729    7.0912 LP  0  0  0  0  0  0  0  0  0  0  0  0  # atno 4300 bound_to 2456
    2.5798   -7.6935    4.5482 LP  0  0  0  0  0  0  0  0  0  0  0  0  # atno 4301 bound_to 2510
    2.6838   -9.2313    5.0878 LP  0  0  0  0  0  0  0  0  0  0  0  0  # atno 4302 bound_to 2510
   -3.4340  -16.6944   14.4737 LP  0  0  0  0  0  0  0  0  0  0  0  0  # atno 4306 bound_to 3712
   -3.2257  -17.2916   12.9682 LP  0  0  0  0  0  0  0  0  0  0  0  0  # atno 4307 bound_to 3712
    2.7743  -21.1292    9.1796 LP  0  0  0  0  0  0  0  0  0  0  0  0  # atno 4314 bound_to 3832
    1.4010  -20.2476    9.2405 LP  0  0  0  0  0  0  0  0  0  0  0  0  # atno 4315 bound_to 3832
   -3.9694  -22.7470   11.4287 LP  0  0  0  0  0  0  0  0  0  0  0  0  # atno 4318 bound_to 3762
   -4.8110  -23.1705   10.0948 LP  0  0  0  0  0  0  0  0  0  0  0  0  # atno 4319 bound_to 3762
   -3.8974   -4.8433    7.9544 LP  0  0  0  0  0  0  0  0  0  0  0  0  # atno 4320 bound_to 2467
   -4.3461   -5.4191    9.4151 LP  0  0  0  0  0  0  0  0  0  0  0  0  # atno 4321 bound_to 2467

> <Gold.Score>
     Score     S(PLP)   S(hbond)     S(cho)   S(metal)  DE(clash)   DE(tors)     intcor
     25.02     -22.24       0.93       0.00       0.00       0.00       0.00       0.00

> <Gold.PLP.Fitness>
25.0236

> <Gold.PLP.PLP>
-22.2396

> <Gold.PLP.part.hbond>
-1.0000

> <Gold.PLP.part.metal>
0.0000

> <Gold.PLP.part.buried>
-3.6766

> <Gold.PLP.part.nonpolar>
-17.6171

> <Gold.PLP.part.repulsive>
0.0910

> <Gold.PLP.ligand.clash>
0.0000

> <Gold.PLP.ligand.torsion>
0.0000

> <Gold.PLP.Chemscore.Hbond>
0.9280

> <Gold.PLP.Chemscore.CHOScore>
0.0000

> <Gold.PLP.Chemscore.Metal>
0.0000

> <Gold.Chemscore.Hbonds>
donor molecule, donor type, donor heavy atom, donor atom, acceptor molecule, acceptor atom, score
      P1  H  2456  2461       L1     6  0.93

> <Gold.PLP.Chemscore.Internal.Correction>
0.0000

