#       Name:                EN300-1700178_i001
#       Creating user name   fsindt
#       Creation time:       Wed Mar  1 19:51:14 2023


#       File generated by GOLD software.
#

@<TRIPOS>MOLECULE
EN300-1700178_i001|acide_1|mol2|9825|dock6
    31    30     1
SMALL
USER_CHARGES


@<TRIPOS>ATOM
      1 C1          -1.3463  -9.6011  10.5033 C.3            1 <1>                0.0000
      2 C2          -2.3699 -10.7331  10.3936 C.3            1 <1>                0.0000
      3 C3          -3.7598 -10.1998  10.7465 C.3            1 <1>                0.0000
      4 C4          -2.3796 -11.2752   8.9629 C.3            1 <1>                0.0000
      5 O5          -2.0128 -11.7990  11.3127 O.3            1 <1>                0.0000
      6 C6          -0.9820 -12.5902  10.9604 C.2            1 <1>                0.0000
      7 O7          -0.1035 -12.1588  10.2403 O.2            1 <1>                0.0000
      8 N8          -0.9246 -13.8607  11.4065 N.am           1 <1>                0.0000
      9 C9           0.1971 -14.7216  11.0231 C.3            1 <1>                0.0000
     10 C10          0.7272 -15.4496  12.2600 C.3            1 <1>                0.0000
     11 C11         -0.4373 -16.1083  13.0023 C.3            1 <1>                0.0000
     12 O12         -0.9421 -17.1968  12.2261 O.3            1 <1>                0.0000
     13 C13          0.0429 -16.6219  14.3353 C.2            1 <1>                0.0000
     14 O14          1.1849 -16.3988  14.6991 O.co2          1 <1>                0.0000
     15 O15         -0.7109 -17.2605  15.0498 O.co2          1 <1>               -1.0000
     16 H16         -1.3394  -9.2149  11.5225 H              1 <1>                0.0000
     17 H17         -0.3561  -9.9811  10.2519 H              1 <1>                0.0000
     18 H18         -1.6144  -8.8009   9.8133 H              1 <1>                0.0000
     19 H19         -4.0278  -9.3995  10.0566 H              1 <1>                0.0000
     20 H20         -4.4890 -11.0062  10.6683 H              1 <1>                0.0000
     21 H21         -3.7529  -9.8136  11.7657 H              1 <1>                0.0000
     22 H22         -1.3893 -11.6551   8.7116 H              1 <1>                0.0000
     23 H23         -3.1087 -12.0816   8.8848 H              1 <1>                0.0000
     24 H24         -2.6476 -10.4750   8.2730 H              1 <1>                0.0000
     25 H25         -0.1405 -15.4525  10.2883 H              1 <1>                0.0000
     26 H26          0.9915 -14.1127  10.5916 H              1 <1>                0.0000
     27 H27          1.4416 -16.2137  11.9536 H              1 <1>                0.0000
     28 H28          1.2202 -14.7347  12.9189 H              1 <1>                0.0000
     29 H29         -1.2291 -15.3757  13.1590 H              1 <1>                0.0000
     30 H30         -1.6259 -14.2050  11.9814 H              1 <1>                0.0000
     31 H31         -1.8057 -17.5201  12.5173 H              1 <1>                0.0000
@<TRIPOS>BOND
    1    1    2 1     
    2    1   16 1     
    3    1   17 1     
    4    1   18 1     
    5    2    3 1     
    6    2    4 1     
    7    2    5 1     
    8    3   19 1     
    9    3   20 1     
   10    3   21 1     
   11    4   22 1     
   12    4   23 1     
   13    4   24 1     
   14    5    6 1     
   15    6    7 2     
   16    6    8 am    
   17    8    9 1     
   18    8   30 1     
   19    9   10 1     
   20    9   25 1     
   21    9   26 1     
   22   10   11 1     
   23   10   27 1     
   24   10   28 1     
   25   11   12 1     
   26   11   13 1     
   27   11   29 1     
   28   12   31 1     
   29   13   14 ar    
   30   13   15 ar    
@<TRIPOS>SUBSTRUCTURE
      1 ****           1
@<TRIPOS>SET
DONOR_HYDROGENS      STATIC     ATOMS    <user>   **** ""
2 30 31
ATOM$RED        STATIC     ATOMS    COLORGROUP SYSTEM
2 30 31
@<TRIPOS>COMMENT
> <Gold.Version>
2022.2.0

> <Gold.Id.Protein>
3pbl|protein|mol2

> <Gold.Protein.RotatedTorsions>
[ 1303 1298 1297 1294 ] final  -35.87 input  179.99 | X-H torsion
[ 2461 2456 2455 2452 ] final  -54.07 input   30.03 | X-H torsion
[ 2515 2510 2509 2506 ] final    8.47 input  -89.99 | X-H torsion
[ 3721 3712 3711 3710 ] final  -56.07 input -179.91 | X-H torsion
[ 3841 3832 3831 3830 ] final   94.31 input -179.91 | X-H torsion
[ 3767 3762 3761 3758 ] final   86.29 input  -89.99 | X-H torsion
[ 2472 2467 2466 2463 ] final  114.72 input  -89.97 | X-H torsion

> <Gold.Protein.ActiveResidues>
 VAL82   VAL86   LEU89   PHE106  VAL107  ASP110  VAL111  MET112  CYS114  THR115 
 CYS181  SER182  ILE183  PHE188  VAL189  ILE190  SER192  SER193  SER196  TRP342 
 PHE345  PHE346  HIS349  VAL350  TYR365  THR369  GLY372  TYR373 

> <Gold.Protein.RotatedAtoms>
    3.3531   -9.3403    3.8179 H   0  0  0  0  0  0  0  0  0  0  0  0  # atno 1303 bound_to 1298
    0.4031   -8.4892    7.3084 H   0  0  0  0  0  0  0  0  0  0  0  0  # atno 2461 bound_to 2456
   -5.3765   -5.0455    8.0618 H   0  0  0  0  0  0  0  0  0  0  0  0  # atno 2472 bound_to 2467
    2.4825   -7.5486    4.7052 H   0  0  0  0  0  0  0  0  0  0  0  0  # atno 2515 bound_to 2510
   -2.7714  -17.3823   14.7446 H   0  0  0  0  0  0  0  0  0  0  0  0  # atno 3721 bound_to 3712
   -4.2337  -23.3339   10.4562 H   0  0  0  0  0  0  0  0  0  0  0  0  # atno 3767 bound_to 3762
    2.8868  -20.9034    9.2195 H   0  0  0  0  0  0  0  0  0  0  0  0  # atno 3841 bound_to 3832
    4.6709   -8.6131    4.4508 LP  0  0  0  0  0  0  0  0  0  0  0  0  # atno 4297 bound_to 1298
    4.3384  -10.1679    4.8231 LP  0  0  0  0  0  0  0  0  0  0  0  0  # atno 4298 bound_to 1298
    1.3576   -9.2453    8.3969 LP  0  0  0  0  0  0  0  0  0  0  0  0  # atno 4299 bound_to 2456
    1.9769   -8.0737    7.4427 LP  0  0  0  0  0  0  0  0  0  0  0  0  # atno 4300 bound_to 2456
    2.7540   -9.1491    4.8794 LP  0  0  0  0  0  0  0  0  0  0  0  0  # atno 4301 bound_to 2510
    2.0602   -8.3019    6.0908 LP  0  0  0  0  0  0  0  0  0  0  0  0  # atno 4302 bound_to 2510
   -3.5539  -16.6263   13.5639 LP  0  0  0  0  0  0  0  0  0  0  0  0  # atno 4306 bound_to 3712
   -2.7741  -18.0319   13.2763 LP  0  0  0  0  0  0  0  0  0  0  0  0  # atno 4307 bound_to 3712
    1.4081  -20.2810    9.2660 LP  0  0  0  0  0  0  0  0  0  0  0  0  # atno 4314 bound_to 3832
    2.4865  -19.7777    8.1477 LP  0  0  0  0  0  0  0  0  0  0  0  0  # atno 4315 bound_to 3832
   -5.5065  -22.3107   10.4642 LP  0  0  0  0  0  0  0  0  0  0  0  0  # atno 4318 bound_to 3762
   -4.3870  -22.2307   11.6505 LP  0  0  0  0  0  0  0  0  0  0  0  0  # atno 4319 bound_to 3762
   -3.7526   -4.8959    8.1446 LP  0  0  0  0  0  0  0  0  0  0  0  0  # atno 4320 bound_to 2467
   -4.5880   -5.4521    9.4327 LP  0  0  0  0  0  0  0  0  0  0  0  0  # atno 4321 bound_to 2467

> <Gold.Score>
     Score     S(PLP)   S(hbond)     S(cho)   S(metal)  DE(clash)   DE(tors)     intcor
     45.87     -39.06       2.56       0.00       0.00       0.00       0.74       0.59

> <Gold.PLP.Fitness>
45.8687

> <Gold.PLP.PLP>
-39.0597

> <Gold.PLP.part.hbond>
-3.0000

> <Gold.PLP.part.metal>
0.0000

> <Gold.PLP.part.buried>
-3.5825

> <Gold.PLP.part.nonpolar>
-33.5142

> <Gold.PLP.part.repulsive>
0.1867

> <Gold.PLP.ligand.clash>
0.0000

> <Gold.PLP.ligand.torsion>
0.7385

> <Gold.PLP.Chemscore.Hbond>
2.5648

> <Gold.PLP.Chemscore.CHOScore>
0.0000

> <Gold.PLP.Chemscore.Metal>
0.0000

> <Gold.Chemscore.Hbonds>
donor molecule, donor type, donor heavy atom, donor atom, acceptor molecule, acceptor atom, score
      L1  H    12    31       P1  3712  0.89
      P1  H  2305  2313       L1    14  1.00
      P1  H  3712  3721       L1    15  0.67

> <Gold.PLP.Chemscore.Internal.Correction>
0.5915

