#       Name:                EN300-1700178_i001
#       Creating user name   fsindt
#       Creation time:       Wed Mar  1 19:51:29 2023


#       File generated by GOLD software.
#

@<TRIPOS>MOLECULE
EN300-1700178_i001|acide_1|mol2|9825|dock16
    31    30     1
SMALL
USER_CHARGES


@<TRIPOS>ATOM
      1 C1          -1.9040  -9.7304   8.8852 C.3            1 <1>                0.0000
      2 C2          -1.8698 -10.5235  10.1932 C.3            1 <1>                0.0000
      3 C3          -0.8549  -9.8904  11.1471 C.3            1 <1>                0.0000
      4 C4          -3.2572 -10.5038  10.8381 C.3            1 <1>                0.0000
      5 O5          -1.4838 -11.8958   9.9171 O.3            1 <1>                0.0000
      6 C6          -1.1751 -12.6687  10.9754 C.2            1 <1>                0.0000
      7 O7          -1.5837 -12.3756  12.0815 O.2            1 <1>                0.0000
      8 N8          -0.4129 -13.7675  10.8078 N.am           1 <1>                0.0000
      9 C9          -0.0769 -14.6085  11.9594 C.3            1 <1>                0.0000
     10 C10          0.7436 -15.8116  11.4901 C.3            1 <1>                0.0000
     11 C11          0.5310 -16.9810  12.4535 C.3            1 <1>                0.0000
     12 O12          0.8789 -18.2043  11.8020 O.3            1 <1>                0.0000
     13 C13          1.4010 -16.7944  13.6698 C.2            1 <1>                0.0000
     14 O14          2.2755 -17.6050  13.9239 O.co2          1 <1>                0.0000
     15 O15          1.2303 -15.8328  14.3997 O.co2          1 <1>               -1.0000
     16 H16         -0.9157  -9.7444   8.4258 H              1 <1>                0.0000
     17 H17         -2.6270 -10.1815   8.2056 H              1 <1>                0.0000
     18 H18         -2.1938  -8.7002   9.0925 H              1 <1>                0.0000
     19 H19         -1.1446  -8.8602  11.3544 H              1 <1>                0.0000
     20 H20         -0.8306 -10.4554  12.0789 H              1 <1>                0.0000
     21 H21          0.1334  -9.9044  10.6877 H              1 <1>                0.0000
     22 H22         -3.9802 -10.9549  10.1584 H              1 <1>                0.0000
     23 H23         -3.2328 -11.0688  11.7699 H              1 <1>                0.0000
     24 H24         -3.5469  -9.4736  11.0453 H              1 <1>                0.0000
     25 H25          0.5054 -14.0285  12.6753 H              1 <1>                0.0000
     26 H26         -0.9939 -14.9572  12.4344 H              1 <1>                0.0000
     27 H27          0.4230 -16.1022  10.4897 H              1 <1>                0.0000
     28 H28          1.8004 -15.5450  11.4699 H              1 <1>                0.0000
     29 H29         -0.5154 -17.0158  12.7572 H              1 <1>                0.0000
     30 H30         -0.0867 -14.0014   9.9247 H              1 <1>                0.0000
     31 H31          1.6971 -18.1576  11.2888 H              1 <1>                0.0000
@<TRIPOS>BOND
    1    1    2 1     
    2    1   16 1     
    3    1   17 1     
    4    1   18 1     
    5    2    3 1     
    6    2    4 1     
    7    2    5 1     
    8    3   19 1     
    9    3   20 1     
   10    3   21 1     
   11    4   22 1     
   12    4   23 1     
   13    4   24 1     
   14    5    6 1     
   15    6    7 2     
   16    6    8 am    
   17    8    9 1     
   18    8   30 1     
   19    9   10 1     
   20    9   25 1     
   21    9   26 1     
   22   10   11 1     
   23   10   27 1     
   24   10   28 1     
   25   11   12 1     
   26   11   13 1     
   27   11   29 1     
   28   12   31 1     
   29   13   14 ar    
   30   13   15 ar    
@<TRIPOS>SUBSTRUCTURE
      1 ****           1
@<TRIPOS>SET
DONOR_HYDROGENS      STATIC     ATOMS    <user>   **** ""
2 30 31
ATOM$RED        STATIC     ATOMS    COLORGROUP SYSTEM
2 30 31
@<TRIPOS>COMMENT
> <Gold.Version>
2022.2.0

> <Gold.Id.Protein>
3pbl|protein|mol2

> <Gold.Protein.RotatedTorsions>
[ 1303 1298 1297 1294 ] final  -36.10 input  179.99 | X-H torsion
[ 2461 2456 2455 2452 ] final    2.18 input   30.03 | X-H torsion
[ 2515 2510 2509 2506 ] final   33.00 input  -89.99 | X-H torsion
[ 3721 3712 3711 3710 ] final   28.90 input -179.91 | X-H torsion
[ 3841 3832 3831 3830 ] final   66.06 input -179.91 | X-H torsion
[ 3767 3762 3761 3758 ] final -130.78 input  -89.99 | X-H torsion
[ 2472 2467 2466 2463 ] final -110.85 input  -89.97 | X-H torsion

> <Gold.Protein.ActiveResidues>
 VAL82   VAL86   LEU89   PHE106  VAL107  ASP110  VAL111  MET112  CYS114  THR115 
 CYS181  SER182  ILE183  PHE188  VAL189  ILE190  SER192  SER193  SER196  TRP342 
 PHE345  PHE346  HIS349  VAL350  TYR365  THR369  GLY372  TYR373 

> <Gold.Protein.RotatedAtoms>
    3.3539   -9.3367    3.8170 H   0  0  0  0  0  0  0  0  0  0  0  0  # atno 1303 bound_to 1298
    1.0750   -7.9770    7.0314 H   0  0  0  0  0  0  0  0  0  0  0  0  # atno 2461 bound_to 2456
   -4.3537   -5.4212    9.4164 H   0  0  0  0  0  0  0  0  0  0  0  0  # atno 2472 bound_to 2467
    2.3117   -7.4163    5.0425 H   0  0  0  0  0  0  0  0  0  0  0  0  # atno 2515 bound_to 2510
   -2.4807  -18.0336   13.8170 H   0  0  0  0  0  0  0  0  0  0  0  0  # atno 3721 bound_to 3712
   -4.6984  -22.0310   11.5893 H   0  0  0  0  0  0  0  0  0  0  0  0  # atno 3767 bound_to 3762
    2.5520  -20.9540    9.4721 H   0  0  0  0  0  0  0  0  0  0  0  0  # atno 3841 bound_to 3832
    4.6733   -8.6150    4.4532 LP  0  0  0  0  0  0  0  0  0  0  0  0  # atno 4297 bound_to 1298
    4.3353  -10.1696    4.8216 LP  0  0  0  0  0  0  0  0  0  0  0  0  # atno 4298 bound_to 1298
    0.5526   -9.1592    8.0299 LP  0  0  0  0  0  0  0  0  0  0  0  0  # atno 4299 bound_to 2456
    2.1101   -8.6717    8.0866 LP  0  0  0  0  0  0  0  0  0  0  0  0  # atno 4300 bound_to 2456
    2.8261   -8.8948    4.5784 LP  0  0  0  0  0  0  0  0  0  0  0  0  # atno 4301 bound_to 2510
    2.1589   -8.6885    6.0545 LP  0  0  0  0  0  0  0  0  0  0  0  0  # atno 4302 bound_to 2510
   -3.2411  -16.9856   14.7663 LP  0  0  0  0  0  0  0  0  0  0  0  0  # atno 4306 bound_to 3712
   -3.4226  -16.9206   13.1448 LP  0  0  0  0  0  0  0  0  0  0  0  0  # atno 4307 bound_to 3712
    1.4249  -19.9383    8.9488 LP  0  0  0  0  0  0  0  0  0  0  0  0  # atno 4314 bound_to 3832
    2.8565  -20.0619    8.1731 LP  0  0  0  0  0  0  0  0  0  0  0  0  # atno 4315 bound_to 3832
   -4.0199  -23.2602   10.7552 LP  0  0  0  0  0  0  0  0  0  0  0  0  # atno 4318 bound_to 3762
   -5.4091  -22.5837   10.2269 LP  0  0  0  0  0  0  0  0  0  0  0  0  # atno 4319 bound_to 3762
   -5.4714   -5.1276    8.2627 LP  0  0  0  0  0  0  0  0  0  0  0  0  # atno 4320 bound_to 2467
   -3.8918   -4.8448    7.9602 LP  0  0  0  0  0  0  0  0  0  0  0  0  # atno 4321 bound_to 2467

> <Gold.Score>
     Score     S(PLP)   S(hbond)     S(cho)   S(metal)  DE(clash)   DE(tors)     intcor
     43.38     -38.48       1.99       0.00       0.00       0.00       0.78       0.48

> <Gold.PLP.Fitness>
43.3792

> <Gold.PLP.PLP>
-38.4819

> <Gold.PLP.part.hbond>
-3.0000

> <Gold.PLP.part.metal>
0.0000

> <Gold.PLP.part.buried>
-3.1066

> <Gold.PLP.part.nonpolar>
-33.6524

> <Gold.PLP.part.repulsive>
0.2059

> <Gold.PLP.ligand.clash>
0.0000

> <Gold.PLP.ligand.torsion>
0.7799

> <Gold.PLP.Chemscore.Hbond>
1.9920

> <Gold.PLP.Chemscore.CHOScore>
0.0000

> <Gold.PLP.Chemscore.Metal>
0.0000

> <Gold.Chemscore.Hbonds>
donor molecule, donor type, donor heavy atom, donor atom, acceptor molecule, acceptor atom, score
      L1  H    12    31       P1  1227  0.99
      P1  H  2305  2313       L1    15  1.00

> <Gold.PLP.Chemscore.Internal.Correction>
0.4811

