#       Name:                EN300-1700178_i001
#       Creating user name   fsindt
#       Creation time:       Wed Mar  1 19:51:17 2023


#       File generated by GOLD software.
#

@<TRIPOS>MOLECULE
EN300-1700178_i001|acide_1|mol2|9825|dock8
    31    30     1
SMALL
USER_CHARGES


@<TRIPOS>ATOM
      1 C1           0.8041 -11.7993   8.9456 C.3            1 <1>                0.0000
      2 C2           0.6783 -13.0706   8.1036 C.3            1 <1>                0.0000
      3 C3          -0.7938 -13.3155   7.7665 C.3            1 <1>                0.0000
      4 C4           1.4775 -12.9063   6.8093 C.3            1 <1>                0.0000
      5 O5           1.1976 -14.2007   8.8530 O.3            1 <1>                0.0000
      6 C6           0.4874 -14.6024   9.9240 C.2            1 <1>                0.0000
      7 O7          -0.2347 -13.8157  10.5038 O.2            1 <1>                0.0000
      8 N8           0.5774 -15.8769  10.3528 N.am           1 <1>                0.0000
      9 C9          -0.1954 -16.3139  11.5182 C.3            1 <1>                0.0000
     10 C10          0.1778 -17.7564  11.8659 C.3            1 <1>                0.0000
     11 C11          1.2436 -17.7569  12.9635 C.3            1 <1>                0.0000
     12 O12          2.4774 -17.2723  12.4297 O.3            1 <1>                0.0000
     13 C13          0.8005 -16.8648  14.0944 C.2            1 <1>                0.0000
     14 O14          1.4743 -15.8985  14.4086 O.co2          1 <1>                0.0000
     15 O15         -0.2319 -17.1094  14.6952 O.co2          1 <1>               -1.0000
     16 H16          0.2347 -11.9163   9.8677 H              1 <1>                0.0000
     17 H17          1.8529 -11.6249   9.1858 H              1 <1>                0.0000
     18 H18          0.4142 -10.9510   8.3831 H              1 <1>                0.0000
     19 H19         -1.1838 -12.4671   7.2040 H              1 <1>                0.0000
     20 H20         -0.8834 -14.2211   7.1666 H              1 <1>                0.0000
     21 H21         -1.3632 -13.4325   8.6886 H              1 <1>                0.0000
     22 H22          2.5263 -12.7319   7.0496 H              1 <1>                0.0000
     23 H23          1.3879 -13.8120   6.2095 H              1 <1>                0.0000
     24 H24          1.0876 -12.0580   6.2468 H              1 <1>                0.0000
     25 H25          0.0281 -15.6663  12.3660 H              1 <1>                0.0000
     26 H26         -1.2598 -16.2590  11.2897 H              1 <1>                0.0000
     27 H27         -0.7073 -18.2858  12.2186 H              1 <1>                0.0000
     28 H28          0.5695 -18.2543  10.9788 H              1 <1>                0.0000
     29 H29          1.3823 -18.7724  13.3348 H              1 <1>                0.0000
     30 H30          1.1538 -16.5048   9.8899 H              1 <1>                0.0000
     31 H31          2.5107 -17.2619  11.4634 H              1 <1>                0.0000
@<TRIPOS>BOND
    1    1    2 1     
    2    1   16 1     
    3    1   17 1     
    4    1   18 1     
    5    2    3 1     
    6    2    4 1     
    7    2    5 1     
    8    3   19 1     
    9    3   20 1     
   10    3   21 1     
   11    4   22 1     
   12    4   23 1     
   13    4   24 1     
   14    5    6 1     
   15    6    7 2     
   16    6    8 am    
   17    8    9 1     
   18    8   30 1     
   19    9   10 1     
   20    9   25 1     
   21    9   26 1     
   22   10   11 1     
   23   10   27 1     
   24   10   28 1     
   25   11   12 1     
   26   11   13 1     
   27   11   29 1     
   28   12   31 1     
   29   13   14 ar    
   30   13   15 ar    
@<TRIPOS>SUBSTRUCTURE
      1 ****           1
@<TRIPOS>SET
DONOR_HYDROGENS      STATIC     ATOMS    <user>   **** ""
2 30 31
ATOM$RED        STATIC     ATOMS    COLORGROUP SYSTEM
2 30 31
@<TRIPOS>COMMENT
> <Gold.Version>
2022.2.0

> <Gold.Id.Protein>
3pbl|protein|mol2

> <Gold.Protein.RotatedTorsions>
[ 1303 1298 1297 1294 ] final -100.61 input  179.99 | X-H torsion
[ 2461 2456 2455 2452 ] final  115.04 input   30.03 | X-H torsion
[ 2515 2510 2509 2506 ] final -131.30 input  -89.99 | X-H torsion
[ 3721 3712 3711 3710 ] final   75.29 input -179.91 | X-H torsion
[ 3841 3832 3831 3830 ] final   11.14 input -179.91 | X-H torsion
[ 3767 3762 3761 3758 ] final  171.77 input  -89.99 | X-H torsion
[ 2472 2467 2466 2463 ] final  145.55 input  -89.97 | X-H torsion

> <Gold.Protein.ActiveResidues>
 VAL82   VAL86   LEU89   PHE106  VAL107  ASP110  VAL111  MET112  CYS114  THR115 
 CYS181  SER182  ILE183  PHE188  VAL189  ILE190  SER192  SER193  SER196  TRP342 
 PHE345  PHE346  HIS349  VAL350  TYR365  THR369  GLY372  TYR373 

> <Gold.Protein.RotatedAtoms>
    3.9666   -8.5478    3.9367 H   0  0  0  0  0  0  0  0  0  0  0  0  # atno 1303 bound_to 1298
    2.1411   -8.5864    8.0123 H   0  0  0  0  0  0  0  0  0  0  0  0  # atno 2461 bound_to 2456
   -5.5101   -5.2223    8.5115 H   0  0  0  0  0  0  0  0  0  0  0  0  # atno 2472 bound_to 2467
    2.6527   -9.2477    5.1704 H   0  0  0  0  0  0  0  0  0  0  0  0  # atno 2515 bound_to 2510
   -2.6818  -17.7755   13.2183 H   0  0  0  0  0  0  0  0  0  0  0  0  # atno 3721 bound_to 3712
   -4.0270  -22.6345   11.5080 H   0  0  0  0  0  0  0  0  0  0  0  0  # atno 3767 bound_to 3762
    1.8439  -20.6088    9.6015 H   0  0  0  0  0  0  0  0  0  0  0  0  # atno 3841 bound_to 3832
    4.8700   -9.4813    4.9260 LP  0  0  0  0  0  0  0  0  0  0  0  0  # atno 4297 bound_to 1298
    3.5256  -10.0925    4.2290 LP  0  0  0  0  0  0  0  0  0  0  0  0  # atno 4298 bound_to 1298
    0.9647   -8.0171    7.0328 LP  0  0  0  0  0  0  0  0  0  0  0  0  # atno 4299 bound_to 2456
    0.6322   -9.2047    8.1032 LP  0  0  0  0  0  0  0  0  0  0  0  0  # atno 4300 bound_to 2456
    2.0291   -7.9912    6.0058 LP  0  0  0  0  0  0  0  0  0  0  0  0  # atno 4301 bound_to 2510
    2.6148   -7.7598    4.4991 LP  0  0  0  0  0  0  0  0  0  0  0  0  # atno 4302 bound_to 2510
   -2.8640  -17.6375   14.8075 LP  0  0  0  0  0  0  0  0  0  0  0  0  # atno 4306 bound_to 3712
   -3.5675  -16.5668   13.7949 LP  0  0  0  0  0  0  0  0  0  0  0  0  # atno 4307 bound_to 3712
    1.9802  -19.6347    8.3332 LP  0  0  0  0  0  0  0  0  0  0  0  0  # atno 4314 bound_to 3832
    3.1191  -20.7643    8.6393 LP  0  0  0  0  0  0  0  0  0  0  0  0  # atno 4315 bound_to 3832
   -4.6840  -23.2356   10.1391 LP  0  0  0  0  0  0  0  0  0  0  0  0  # atno 4318 bound_to 3762
   -5.4161  -22.0050   10.9241 LP  0  0  0  0  0  0  0  0  0  0  0  0  # atno 4319 bound_to 3762
   -4.1019   -4.8086    7.7957 LP  0  0  0  0  0  0  0  0  0  0  0  0  # atno 4320 bound_to 2467
   -4.1052   -5.3626    9.3319 LP  0  0  0  0  0  0  0  0  0  0  0  0  # atno 4321 bound_to 2467

> <Gold.Score>
     Score     S(PLP)   S(hbond)     S(cho)   S(metal)  DE(clash)   DE(tors)     intcor
     41.79     -33.78       2.99       0.00       0.00       0.00       0.73       0.48

> <Gold.PLP.Fitness>
41.7899

> <Gold.PLP.PLP>
-33.7834

> <Gold.PLP.part.hbond>
-3.5840

> <Gold.PLP.part.metal>
0.0000

> <Gold.PLP.part.buried>
-7.1609

> <Gold.PLP.part.nonpolar>
-23.4684

> <Gold.PLP.part.repulsive>
0.1642

> <Gold.PLP.ligand.clash>
0.0000

> <Gold.PLP.ligand.torsion>
0.7253

> <Gold.PLP.Chemscore.Hbond>
2.9920

> <Gold.PLP.Chemscore.CHOScore>
0.0000

> <Gold.PLP.Chemscore.Metal>
0.0000

> <Gold.Chemscore.Hbonds>
donor molecule, donor type, donor heavy atom, donor atom, acceptor molecule, acceptor atom, score
      L1  H     8    30       P1  1227  1.00
      L1  H    12    31       P1  1227  1.00
      P1  H  2305  2313       L1    14  0.99

> <Gold.PLP.Chemscore.Internal.Correction>
0.4811

