#       Name:                EN300-1700178_i001
#       Creating user name   fsindt
#       Creation time:       Wed Mar  1 19:51:22 2023


#       File generated by GOLD software.
#

@<TRIPOS>MOLECULE
EN300-1700178_i001|acide_1|mol2|9825|dock11
    31    30     1
SMALL
USER_CHARGES


@<TRIPOS>ATOM
      1 C1          -4.1732 -10.5363   9.7755 C.3            1 <1>                0.0000
      2 C2          -2.6691 -10.7620   9.9422 C.3            1 <1>                0.0000
      3 C3          -1.9054  -9.5970   9.3094 C.3            1 <1>                0.0000
      4 C4          -2.3280 -10.8467  11.4313 C.3            1 <1>                0.0000
      5 O5          -2.2902 -12.0014   9.2875 O.3            1 <1>                0.0000
      6 C6          -0.9777 -12.2997   9.2559 C.2            1 <1>                0.0000
      7 O7          -0.1927 -11.6584   9.9259 O.2            1 <1>                0.0000
      8 N8          -0.5346 -13.3095   8.4810 N.am           1 <1>                0.0000
      9 C9           0.8936 -13.6340   8.4466 C.3            1 <1>                0.0000
     10 C10          1.3586 -14.0382   9.8471 C.3            1 <1>                0.0000
     11 C11          0.3561 -15.0223  10.4531 C.3            1 <1>                0.0000
     12 O12          0.3830 -16.2453   9.7144 O.3            1 <1>                0.0000
     13 C13          0.7244 -15.2944  11.8889 C.2            1 <1>                0.0000
     14 O14          1.8321 -15.7235  12.1633 O.co2          1 <1>                0.0000
     15 O15         -0.0855 -15.0853  12.7760 O.co2          1 <1>               -1.0000
     16 H16         -4.4163 -10.4759   8.7146 H              1 <1>                0.0000
     17 H17         -4.7172 -11.3664  10.2262 H              1 <1>                0.0000
     18 H18         -4.4576  -9.6059  10.2669 H              1 <1>                0.0000
     19 H19         -2.1899  -8.6665   9.8008 H              1 <1>                0.0000
     20 H20         -0.8339  -9.7577   9.4282 H              1 <1>                0.0000
     21 H21         -2.1485  -9.5366   8.2486 H              1 <1>                0.0000
     22 H22         -2.8721 -11.6768  11.8819 H              1 <1>                0.0000
     23 H23         -1.2565 -11.0075  11.5500 H              1 <1>                0.0000
     24 H24         -2.6125  -9.9163  11.9226 H              1 <1>                0.0000
     25 H25          1.0619 -14.4599   7.7554 H              1 <1>                0.0000
     26 H26          1.4565 -12.7617   8.1146 H              1 <1>                0.0000
     27 H27          2.3384 -14.5115   9.7821 H              1 <1>                0.0000
     28 H28          1.4244 -13.1518  10.4780 H              1 <1>                0.0000
     29 H29         -0.6453 -14.5937  10.4098 H              1 <1>                0.0000
     30 H30         -1.1613 -13.8214   7.9462 H              1 <1>                0.0000
     31 H31          1.1481 -16.8044   9.9072 H              1 <1>                0.0000
@<TRIPOS>BOND
    1    1    2 1     
    2    1   16 1     
    3    1   17 1     
    4    1   18 1     
    5    2    3 1     
    6    2    4 1     
    7    2    5 1     
    8    3   19 1     
    9    3   20 1     
   10    3   21 1     
   11    4   22 1     
   12    4   23 1     
   13    4   24 1     
   14    5    6 1     
   15    6    7 2     
   16    6    8 am    
   17    8    9 1     
   18    8   30 1     
   19    9   10 1     
   20    9   25 1     
   21    9   26 1     
   22   10   11 1     
   23   10   27 1     
   24   10   28 1     
   25   11   12 1     
   26   11   13 1     
   27   11   29 1     
   28   12   31 1     
   29   13   14 ar    
   30   13   15 ar    
@<TRIPOS>SUBSTRUCTURE
      1 ****           1
@<TRIPOS>SET
DONOR_HYDROGENS      STATIC     ATOMS    <user>   **** ""
2 30 31
ATOM$RED        STATIC     ATOMS    COLORGROUP SYSTEM
2 30 31
@<TRIPOS>COMMENT
> <Gold.Version>
2022.2.0

> <Gold.Id.Protein>
3pbl|protein|mol2

> <Gold.Protein.RotatedTorsions>
[ 1303 1298 1297 1294 ] final   46.63 input  179.99 | X-H torsion
[ 2461 2456 2455 2452 ] final   47.88 input   30.03 | X-H torsion
[ 2515 2510 2509 2506 ] final   64.06 input  -89.99 | X-H torsion
[ 3721 3712 3711 3710 ] final   13.03 input -179.91 | X-H torsion
[ 3841 3832 3831 3830 ] final   -4.46 input -179.91 | X-H torsion
[ 3767 3762 3761 3758 ] final   57.81 input  -89.99 | X-H torsion
[ 2472 2467 2466 2463 ] final -149.46 input  -89.97 | X-H torsion

> <Gold.Protein.ActiveResidues>
 VAL82   VAL86   LEU89   PHE106  VAL107  ASP110  VAL111  MET112  CYS114  THR115 
 CYS181  SER182  ILE183  PHE188  VAL189  ILE190  SER192  SER193  SER196  TRP342 
 PHE345  PHE346  HIS349  VAL350  TYR365  THR369  GLY372  TYR373 

> <Gold.Protein.RotatedAtoms>
    3.8301  -10.2591    4.5059 H   0  0  0  0  0  0  0  0  0  0  0  0  # atno 1303 bound_to 1298
    1.7703   -7.9642    7.2613 H   0  0  0  0  0  0  0  0  0  0  0  0  # atno 2461 bound_to 2456
   -4.9705   -5.4598    9.3353 H   0  0  0  0  0  0  0  0  0  0  0  0  # atno 2472 bound_to 2467
    2.1303   -7.4864    5.5082 H   0  0  0  0  0  0  0  0  0  0  0  0  # atno 2515 bound_to 2510
   -2.4705  -18.0144   14.0552 H   0  0  0  0  0  0  0  0  0  0  0  0  # atno 3721 bound_to 3712
   -4.5994  -23.2701   10.1780 H   0  0  0  0  0  0  0  0  0  0  0  0  # atno 3767 bound_to 3762
    1.7001  -20.4353    9.5351 H   0  0  0  0  0  0  0  0  0  0  0  0  # atno 3841 bound_to 3832
    3.6287   -8.8008    3.7994 LP  0  0  0  0  0  0  0  0  0  0  0  0  # atno 4297 bound_to 1298
    4.9035   -9.0610    4.7862 LP  0  0  0  0  0  0  0  0  0  0  0  0  # atno 4298 bound_to 1298
    0.3340   -8.7044    7.4993 LP  0  0  0  0  0  0  0  0  0  0  0  0  # atno 4299 bound_to 2456
    1.6336   -9.1393    8.3874 LP  0  0  0  0  0  0  0  0  0  0  0  0  # atno 4300 bound_to 2456
    2.8151   -8.4352    4.3696 LP  0  0  0  0  0  0  0  0  0  0  0  0  # atno 4301 bound_to 2510
    2.3514   -9.0780    5.7973 LP  0  0  0  0  0  0  0  0  0  0  0  0  # atno 4302 bound_to 2510
   -3.3597  -16.8017   14.6179 LP  0  0  0  0  0  0  0  0  0  0  0  0  # atno 4306 bound_to 3712
   -3.3158  -17.1267   13.0182 LP  0  0  0  0  0  0  0  0  0  0  0  0  # atno 4307 bound_to 3712
    2.2119  -19.6694    8.2208 LP  0  0  0  0  0  0  0  0  0  0  0  0  # atno 4314 bound_to 3832
    3.0536  -20.9300    8.8283 LP  0  0  0  0  0  0  0  0  0  0  0  0  # atno 4315 bound_to 3832
   -5.4521  -22.0449   10.8405 LP  0  0  0  0  0  0  0  0  0  0  0  0  # atno 4318 bound_to 3762
   -4.0758  -22.5603   11.5524 LP  0  0  0  0  0  0  0  0  0  0  0  0  # atno 4319 bound_to 3762
   -5.1085   -4.9209    7.8000 LP  0  0  0  0  0  0  0  0  0  0  0  0  # atno 4320 bound_to 2467
   -3.6380   -5.0128    8.5040 LP  0  0  0  0  0  0  0  0  0  0  0  0  # atno 4321 bound_to 2467

> <Gold.Score>
     Score     S(PLP)   S(hbond)     S(cho)   S(metal)  DE(clash)   DE(tors)     intcor
     42.94     -40.41       1.00       0.00       0.00       0.52       0.22       0.48

> <Gold.PLP.Fitness>
42.9381

> <Gold.PLP.PLP>
-40.4096

> <Gold.PLP.part.hbond>
-1.0000

> <Gold.PLP.part.metal>
0.0000

> <Gold.PLP.part.buried>
-3.6549

> <Gold.PLP.part.nonpolar>
-36.6571

> <Gold.PLP.part.repulsive>
0.1670

> <Gold.PLP.ligand.clash>
0.5154

> <Gold.PLP.ligand.torsion>
0.2186

> <Gold.PLP.Chemscore.Hbond>
1.0000

> <Gold.PLP.Chemscore.CHOScore>
0.0000

> <Gold.PLP.Chemscore.Metal>
0.0000

> <Gold.Chemscore.Hbonds>
donor molecule, donor type, donor heavy atom, donor atom, acceptor molecule, acceptor atom, score
      L1  H    12    31       P1  1227  1.00

> <Gold.PLP.Chemscore.Internal.Correction>
0.4811

