#       Name:                EN300-1700178_i001
#       Creating user name   fsindt
#       Creation time:       Wed Mar  1 19:51:13 2023


#       File generated by GOLD software.
#

@<TRIPOS>MOLECULE
EN300-1700178_i001|acide_1|mol2|9825|dock5
    31    30     1
SMALL
USER_CHARGES


@<TRIPOS>ATOM
      1 C1           1.7031 -18.6425  13.9802 C.3            1 <1>                0.0000
      2 C2           1.1558 -17.2375  13.7202 C.3            1 <1>                0.0000
      3 C3          -0.0973 -17.0132  14.5688 C.3            1 <1>                0.0000
      4 C4           2.2166 -16.1998  14.0927 C.3            1 <1>                0.0000
      5 O5           0.8187 -17.1020  12.3143 O.3            1 <1>                0.0000
      6 C6           0.5176 -15.8658  11.8742 C.2            1 <1>                0.0000
      7 O7           0.0082 -15.0600  12.6277 O.2            1 <1>                0.0000
      8 N8           0.7811 -15.5221  10.5980 N.am           1 <1>                0.0000
      9 C9           0.4534 -14.1768  10.1191 C.3            1 <1>                0.0000
     10 C10          0.7699 -14.0760   8.6256 C.3            1 <1>                0.0000
     11 C11          1.1594 -12.6366   8.2829 C.3            1 <1>                0.0000
     12 O12          1.1112 -12.4545   6.8664 O.3            1 <1>                0.0000
     13 C13          0.1968 -11.6845   8.9449 C.2            1 <1>                0.0000
     14 O14          0.6158 -10.8083   9.6818 O.co2          1 <1>                0.0000
     15 O15         -1.0010 -11.7906   8.7435 O.co2          1 <1>               -1.0000
     16 H16          0.9474 -19.3817  13.7149 H              1 <1>                0.0000
     17 H17          2.5958 -18.8022  13.3756 H              1 <1>                0.0000
     18 H18          1.9561 -18.7441  15.0356 H              1 <1>                0.0000
     19 H19          0.1557 -17.1149  15.6243 H              1 <1>                0.0000
     20 H20         -0.4872 -16.0123  14.3836 H              1 <1>                0.0000
     21 H21         -0.8530 -17.7524  14.3035 H              1 <1>                0.0000
     22 H22          3.1093 -16.3597  13.4879 H              1 <1>                0.0000
     23 H23          1.8267 -15.1989  13.9073 H              1 <1>                0.0000
     24 H24          2.4696 -16.3016  15.1480 H              1 <1>                0.0000
     25 H25         -0.6071 -13.9823  10.2797 H              1 <1>                0.0000
     26 H26          1.0445 -13.4424  10.6662 H              1 <1>                0.0000
     27 H27          1.5968 -14.7436   8.3835 H              1 <1>                0.0000
     28 H28         -0.1091 -14.3619   8.0478 H              1 <1>                0.0000
     29 H29          2.1699 -12.4387   8.6406 H              1 <1>                0.0000
     30 H30          1.1877 -16.1653   9.9965 H              1 <1>                0.0000
     31 H31          1.0313 -13.2784   6.3665 H              1 <1>                0.0000
@<TRIPOS>BOND
    1    1    2 1     
    2    1   16 1     
    3    1   17 1     
    4    1   18 1     
    5    2    3 1     
    6    2    4 1     
    7    2    5 1     
    8    3   19 1     
    9    3   20 1     
   10    3   21 1     
   11    4   22 1     
   12    4   23 1     
   13    4   24 1     
   14    5    6 1     
   15    6    7 2     
   16    6    8 am    
   17    8    9 1     
   18    8   30 1     
   19    9   10 1     
   20    9   25 1     
   21    9   26 1     
   22   10   11 1     
   23   10   27 1     
   24   10   28 1     
   25   11   12 1     
   26   11   13 1     
   27   11   29 1     
   28   12   31 1     
   29   13   14 ar    
   30   13   15 ar    
@<TRIPOS>SUBSTRUCTURE
      1 ****           1
@<TRIPOS>SET
DONOR_HYDROGENS      STATIC     ATOMS    <user>   **** ""
2 30 31
ATOM$RED        STATIC     ATOMS    COLORGROUP SYSTEM
2 30 31
@<TRIPOS>COMMENT
> <Gold.Version>
2022.2.0

> <Gold.Id.Protein>
3pbl|protein|mol2

> <Gold.Protein.RotatedTorsions>
[ 1303 1298 1297 1294 ] final  -56.58 input  179.99 | X-H torsion
[ 2461 2456 2455 2452 ] final -154.65 input   30.03 | X-H torsion
[ 2515 2510 2509 2506 ] final  -11.74 input  -89.99 | X-H torsion
[ 3721 3712 3711 3710 ] final  -72.11 input -179.91 | X-H torsion
[ 3841 3832 3831 3830 ] final  135.39 input -179.91 | X-H torsion
[ 3767 3762 3761 3758 ] final  -10.67 input  -89.99 | X-H torsion
[ 2472 2467 2466 2463 ] final   88.17 input  -89.97 | X-H torsion

> <Gold.Protein.ActiveResidues>
 VAL82   VAL86   LEU89   PHE106  VAL107  ASP110  VAL111  MET112  CYS114  THR115 
 CYS181  SER182  ILE183  PHE188  VAL189  ILE190  SER192  SER193  SER196  TRP342 
 PHE345  PHE346  HIS349  VAL350  TYR365  THR369  GLY372  TYR373 

> <Gold.Protein.RotatedAtoms>
    3.4706   -9.0250    3.7772 H   0  0  0  0  0  0  0  0  0  0  0  0  # atno 1303 bound_to 1298
    1.0491   -9.2887    8.3326 H   0  0  0  0  0  0  0  0  0  0  0  0  # atno 2461 bound_to 2456
   -5.0761   -4.9111    7.7805 H   0  0  0  0  0  0  0  0  0  0  0  0  # atno 2472 bound_to 2467
    2.6177   -7.7658    4.4957 H   0  0  0  0  0  0  0  0  0  0  0  0  # atno 2515 bound_to 2510
   -2.8908  -17.1724   14.7536 H   0  0  0  0  0  0  0  0  0  0  0  0  # atno 3721 bound_to 3712
   -5.4080  -22.5847   10.2253 H   0  0  0  0  0  0  0  0  0  0  0  0  # atno 3767 bound_to 3762
    3.1296  -20.5717    8.7722 H   0  0  0  0  0  0  0  0  0  0  0  0  # atno 3841 bound_to 3832
    4.8366   -8.8313    4.6506 LP  0  0  0  0  0  0  0  0  0  0  0  0  # atno 4297 bound_to 1298
    4.0552  -10.2652    4.6640 LP  0  0  0  0  0  0  0  0  0  0  0  0  # atno 4298 bound_to 1298
    2.1185   -8.2489    7.6672 LP  0  0  0  0  0  0  0  0  0  0  0  0  # atno 4299 bound_to 2456
    0.5702   -8.2708    7.1485 LP  0  0  0  0  0  0  0  0  0  0  0  0  # atno 4300 bound_to 2456
    2.6499   -9.2491    5.1771 LP  0  0  0  0  0  0  0  0  0  0  0  0  # atno 4301 bound_to 2510
    2.0289   -7.9845    6.0028 LP  0  0  0  0  0  0  0  0  0  0  0  0  # atno 4302 bound_to 2510
   -3.5045  -16.7487   13.3317 LP  0  0  0  0  0  0  0  0  0  0  0  0  # atno 4306 bound_to 3712
   -2.6857  -18.1518   13.4980 LP  0  0  0  0  0  0  0  0  0  0  0  0  # atno 4307 bound_to 3712
    1.7351  -20.8042    9.5320 LP  0  0  0  0  0  0  0  0  0  0  0  0  # atno 4314 bound_to 3832
    1.8791  -19.6376    8.3984 LP  0  0  0  0  0  0  0  0  0  0  0  0  # atno 4315 bound_to 3832
   -4.7004  -22.0308   11.5889 LP  0  0  0  0  0  0  0  0  0  0  0  0  # atno 4318 bound_to 3762
   -4.0192  -23.2596   10.7566 LP  0  0  0  0  0  0  0  0  0  0  0  0  # atno 4319 bound_to 3762
   -3.6355   -5.0258    8.5406 LP  0  0  0  0  0  0  0  0  0  0  0  0  # atno 4320 bound_to 2467
   -5.0054   -5.4566    9.3179 LP  0  0  0  0  0  0  0  0  0  0  0  0  # atno 4321 bound_to 2467

> <Gold.Score>
     Score     S(PLP)   S(hbond)     S(cho)   S(metal)  DE(clash)   DE(tors)     intcor
     40.86     -35.86       2.00       0.00       0.00       0.00       0.80       0.59

> <Gold.PLP.Fitness>
40.8609

> <Gold.PLP.PLP>
-35.8602

> <Gold.PLP.part.hbond>
-2.0000

> <Gold.PLP.part.metal>
0.0000

> <Gold.PLP.part.buried>
-6.7868

> <Gold.PLP.part.nonpolar>
-27.5047

> <Gold.PLP.part.repulsive>
0.1473

> <Gold.PLP.ligand.clash>
0.0000

> <Gold.PLP.ligand.torsion>
0.7954

> <Gold.PLP.Chemscore.Hbond>
2.0000

> <Gold.PLP.Chemscore.CHOScore>
0.0000

> <Gold.PLP.Chemscore.Metal>
0.0000

> <Gold.Chemscore.Hbonds>
donor molecule, donor type, donor heavy atom, donor atom, acceptor molecule, acceptor atom, score
      L1  H     8    30       P1  1227  1.00
      P1  H  2456  2461       L1    14  1.00

> <Gold.PLP.Chemscore.Internal.Correction>
0.5915

