#       Name:                EN300-1700178_i001
#       Creating user name   fsindt
#       Creation time:       Wed Mar  1 19:51:09 2023


#       File generated by GOLD software.
#

@<TRIPOS>MOLECULE
EN300-1700178_i001|acide_1|mol2|9825|dock2
    31    30     1
SMALL
USER_CHARGES


@<TRIPOS>ATOM
      1 C1           0.6192 -11.7115   8.7919 C.3            1 <1>                0.0000
      2 C2           0.6961 -13.0383   8.0337 C.3            1 <1>                0.0000
      3 C3          -0.7188 -13.5500   7.7564 C.3            1 <1>                0.0000
      4 C4           1.4309 -12.8267   6.7085 C.3            1 <1>                0.0000
      5 O5           1.4147 -14.0127   8.8354 O.3            1 <1>                0.0000
      6 C6           0.8466 -14.3866   9.9974 C.2            1 <1>                0.0000
      7 O7          -0.1118 -13.7770  10.4288 O.2            1 <1>                0.0000
      8 N8           1.3412 -15.4369  10.6819 N.am           1 <1>                0.0000
      9 C9           0.7230 -15.8438  11.9463 C.3            1 <1>                0.0000
     10 C10          1.8106 -16.0505  13.0024 C.3            1 <1>                0.0000
     11 C11          1.1727 -16.5496  14.3004 C.3            1 <1>                0.0000
     12 O12          0.1368 -15.6496  14.6990 O.3            1 <1>                0.0000
     13 C13          0.5888 -17.9211  14.0782 C.2            1 <1>                0.0000
     14 O14          1.3137 -18.8479  13.7592 O.co2          1 <1>                0.0000
     15 O15         -0.6087 -18.1035  14.2174 O.co2          1 <1>               -1.0000
     16 H16          0.0958 -11.8622   9.7360 H              1 <1>                0.0000
     17 H17          1.6273 -11.3470   8.9894 H              1 <1>                0.0000
     18 H18          0.0798 -10.9800   8.1901 H              1 <1>                0.0000
     19 H19         -1.2583 -12.8184   7.1547 H              1 <1>                0.0000
     20 H20         -0.6640 -14.4952   7.2164 H              1 <1>                0.0000
     21 H21         -1.2422 -13.7007   8.7005 H              1 <1>                0.0000
     22 H22          2.4390 -12.4622   6.9062 H              1 <1>                0.0000
     23 H23          1.4857 -13.7719   6.1685 H              1 <1>                0.0000
     24 H24          0.8915 -12.0952   6.1068 H              1 <1>                0.0000
     25 H25          0.0348 -15.0674  12.2806 H              1 <1>                0.0000
     26 H26          0.1766 -16.7755  11.8004 H              1 <1>                0.0000
     27 H27          2.5296 -16.7872  12.6442 H              1 <1>                0.0000
     28 H28          2.3208 -15.1053  13.1883 H              1 <1>                0.0000
     29 H29          1.9310 -16.5999  15.0819 H              1 <1>                0.0000
     30 H30          2.1063 -15.9235  10.3374 H              1 <1>                0.0000
     31 H31         -0.3436 -15.2511  13.9604 H              1 <1>                0.0000
@<TRIPOS>BOND
    1    1    2 1     
    2    1   16 1     
    3    1   17 1     
    4    1   18 1     
    5    2    3 1     
    6    2    4 1     
    7    2    5 1     
    8    3   19 1     
    9    3   20 1     
   10    3   21 1     
   11    4   22 1     
   12    4   23 1     
   13    4   24 1     
   14    5    6 1     
   15    6    7 2     
   16    6    8 am    
   17    8    9 1     
   18    8   30 1     
   19    9   10 1     
   20    9   25 1     
   21    9   26 1     
   22   10   11 1     
   23   10   27 1     
   24   10   28 1     
   25   11   12 1     
   26   11   13 1     
   27   11   29 1     
   28   12   31 1     
   29   13   14 ar    
   30   13   15 ar    
@<TRIPOS>SUBSTRUCTURE
      1 ****           1
@<TRIPOS>SET
DONOR_HYDROGENS      STATIC     ATOMS    <user>   **** ""
2 30 31
ATOM$RED        STATIC     ATOMS    COLORGROUP SYSTEM
2 30 31
@<TRIPOS>COMMENT
> <Gold.Version>
2022.2.0

> <Gold.Id.Protein>
3pbl|protein|mol2

> <Gold.Protein.RotatedTorsions>
[ 1303 1298 1297 1294 ] final   71.01 input  179.99 | X-H torsion
[ 2461 2456 2455 2452 ] final   56.33 input   30.03 | X-H torsion
[ 2515 2510 2509 2506 ] final  -17.50 input  -89.99 | X-H torsion
[ 3721 3712 3711 3710 ] final   14.39 input -179.91 | X-H torsion
[ 3841 3832 3831 3830 ] final  113.82 input -179.91 | X-H torsion
[ 3767 3762 3761 3758 ] final  138.79 input  -89.99 | X-H torsion
[ 2472 2467 2466 2463 ] final  166.78 input  -89.97 | X-H torsion

> <Gold.Protein.ActiveResidues>
 VAL82   VAL86   LEU89   PHE106  VAL107  ASP110  VAL111  MET112  CYS114  THR115 
 CYS181  SER182  ILE183  PHE188  VAL189  ILE190  SER192  SER193  SER196  TRP342 
 PHE345  PHE346  HIS349  VAL350  TYR365  THR369  GLY372  TYR373 

> <Gold.Protein.RotatedAtoms>
    4.1596  -10.2422    4.7283 H   0  0  0  0  0  0  0  0  0  0  0  0  # atno 1303 bound_to 1298
    1.8749   -8.0081    7.3416 H   0  0  0  0  0  0  0  0  0  0  0  0  # atno 2461 bound_to 2456
   -5.4471   -5.3320    8.8350 H   0  0  0  0  0  0  0  0  0  0  0  0  # atno 2472 bound_to 2467
    2.6528   -7.8418    4.4516 H   0  0  0  0  0  0  0  0  0  0  0  0  # atno 2515 bound_to 2510
   -2.4701  -18.0183   14.0350 H   0  0  0  0  0  0  0  0  0  0  0  0  # atno 3721 bound_to 3712
   -3.9068  -23.0197   11.1564 H   0  0  0  0  0  0  0  0  0  0  0  0  # atno 3767 bound_to 3762
    3.0468  -20.7778    9.0080 H   0  0  0  0  0  0  0  0  0  0  0  0  # atno 3841 bound_to 3832
    3.4168   -9.1374    3.7828 LP  0  0  0  0  0  0  0  0  0  0  0  0  # atno 4297 bound_to 1298
    4.7857   -8.7414    4.5803 LP  0  0  0  0  0  0  0  0  0  0  0  0  # atno 4298 bound_to 1298
    0.3555   -8.6036    7.4061 LP  0  0  0  0  0  0  0  0  0  0  0  0  # atno 4299 bound_to 2456
    1.5075   -9.1962    8.4003 LP  0  0  0  0  0  0  0  0  0  0  0  0  # atno 4300 bound_to 2456
    2.6147   -9.2572    5.2647 LP  0  0  0  0  0  0  0  0  0  0  0  0  # atno 4301 bound_to 2510
    2.0291   -7.9003    5.9594 LP  0  0  0  0  0  0  0  0  0  0  0  0  # atno 4302 bound_to 2510
   -3.3502  -16.8159   14.6329 LP  0  0  0  0  0  0  0  0  0  0  0  0  # atno 4306 bound_to 3712
   -3.3257  -17.1080   13.0265 LP  0  0  0  0  0  0  0  0  0  0  0  0  # atno 4307 bound_to 3712
    1.5167  -20.5391    9.4299 LP  0  0  0  0  0  0  0  0  0  0  0  0  # atno 4314 bound_to 3832
    2.1932  -19.6646    8.2281 LP  0  0  0  0  0  0  0  0  0  0  0  0  # atno 4315 bound_to 3832
   -5.1244  -22.9393   10.0712 LP  0  0  0  0  0  0  0  0  0  0  0  0  # atno 4318 bound_to 3762
   -5.0959  -21.9162   11.3436 LP  0  0  0  0  0  0  0  0  0  0  0  0  # atno 4319 bound_to 3762
   -4.4276   -4.8010    7.6753 LP  0  0  0  0  0  0  0  0  0  0  0  0  # atno 4320 bound_to 2467
   -3.8424   -5.2606    9.1289 LP  0  0  0  0  0  0  0  0  0  0  0  0  # atno 4321 bound_to 2467

> <Gold.Score>
     Score     S(PLP)   S(hbond)     S(cho)   S(metal)  DE(clash)   DE(tors)     intcor
     47.08     -38.73       2.91       0.00       0.00       0.55       0.21       0.59

> <Gold.PLP.Fitness>
47.0770

> <Gold.PLP.PLP>
-38.7268

> <Gold.PLP.part.hbond>
-3.0000

> <Gold.PLP.part.metal>
0.0000

> <Gold.PLP.part.buried>
-6.6001

> <Gold.PLP.part.nonpolar>
-29.6847

> <Gold.PLP.part.repulsive>
0.1658

> <Gold.PLP.ligand.clash>
0.5475

> <Gold.PLP.ligand.torsion>
0.2149

> <Gold.PLP.Chemscore.Hbond>
2.9120

> <Gold.PLP.Chemscore.CHOScore>
0.0000

> <Gold.PLP.Chemscore.Metal>
0.0000

> <Gold.Chemscore.Hbonds>
donor molecule, donor type, donor heavy atom, donor atom, acceptor molecule, acceptor atom, score
      L1  H     8    30       P1  1227  0.91
      P1  H  2305  2313       L1    12  1.00
      P1  H  3712  3721       L1    15  1.00

> <Gold.PLP.Chemscore.Internal.Correction>
0.5915

