#       Name:                EN300-1700178_i001
#       Creating user name   fsindt
#       Creation time:       Wed Mar  1 19:51:21 2023


#       File generated by GOLD software.
#

@<TRIPOS>MOLECULE
EN300-1700178_i001|acide_1|mol2|9825|dock10
    31    30     1
SMALL
USER_CHARGES


@<TRIPOS>ATOM
      1 C1           1.7103 -19.2942  14.0097 C.3            1 <1>                0.0000
      2 C2           1.1253 -17.8829  13.9247 C.3            1 <1>                0.0000
      3 C3          -0.1307 -17.7982  14.7942 C.3            1 <1>                0.0000
      4 C4           2.1596 -16.8713  14.4226 C.3            1 <1>                0.0000
      5 O5           0.7807 -17.5841  12.5462 O.3            1 <1>                0.0000
      6 C6           0.4389 -16.3130  12.2632 C.2            1 <1>                0.0000
      7 O7          -0.0942 -15.6243  13.1105 O.2            1 <1>                0.0000
      8 N8           0.6881 -15.8045  11.0402 N.am           1 <1>                0.0000
      9 C9           0.3162 -14.4214  10.7323 C.3            1 <1>                0.0000
     10 C10          0.8135 -14.0593   9.3314 C.3            1 <1>                0.0000
     11 C11          0.0608 -12.8270   8.8257 C.3            1 <1>                0.0000
     12 O12          0.1269 -11.7919   9.8086 O.3            1 <1>                0.0000
     13 C13          0.6907 -12.3444   7.5445 C.2            1 <1>                0.0000
     14 O14          1.0861 -11.1945   7.4550 O.co2          1 <1>                0.0000
     15 O15          0.8049 -13.1038   6.5975 O.co2          1 <1>               -1.0000
     16 H16          0.9735 -20.0149  13.6550 H              1 <1>                0.0000
     17 H17          2.6051 -19.3545  13.3902 H              1 <1>                0.0000
     18 H18          1.9690 -19.5185  15.0446 H              1 <1>                0.0000
     19 H19          0.1280 -18.0226  15.8291 H              1 <1>                0.0000
     20 H20         -0.5474 -16.7928  14.7337 H              1 <1>                0.0000
     21 H21         -0.8674 -18.5189  14.4395 H              1 <1>                0.0000
     22 H22          3.0544 -16.9317  13.8031 H              1 <1>                0.0000
     23 H23          1.7428 -15.8659  14.3620 H              1 <1>                0.0000
     24 H24          2.4183 -17.0956  15.4574 H              1 <1>                0.0000
     25 H25         -0.7684 -14.3197  10.7703 H              1 <1>                0.0000
     26 H26          0.7698 -13.7519  11.4631 H              1 <1>                0.0000
     27 H27          1.8811 -13.8427   9.3695 H              1 <1>                0.0000
     28 H28          0.6364 -14.8960   8.6555 H              1 <1>                0.0000
     29 H29         -0.9816 -13.0879   8.6422 H              1 <1>                0.0000
     30 H30          1.1137 -16.3544  10.3638 H              1 <1>                0.0000
     31 H31          0.6364 -12.0288  10.5956 H              1 <1>                0.0000
@<TRIPOS>BOND
    1    1    2 1     
    2    1   16 1     
    3    1   17 1     
    4    1   18 1     
    5    2    3 1     
    6    2    4 1     
    7    2    5 1     
    8    3   19 1     
    9    3   20 1     
   10    3   21 1     
   11    4   22 1     
   12    4   23 1     
   13    4   24 1     
   14    5    6 1     
   15    6    7 2     
   16    6    8 am    
   17    8    9 1     
   18    8   30 1     
   19    9   10 1     
   20    9   25 1     
   21    9   26 1     
   22   10   11 1     
   23   10   27 1     
   24   10   28 1     
   25   11   12 1     
   26   11   13 1     
   27   11   29 1     
   28   12   31 1     
   29   13   14 ar    
   30   13   15 ar    
@<TRIPOS>SUBSTRUCTURE
      1 ****           1
@<TRIPOS>SET
DONOR_HYDROGENS      STATIC     ATOMS    <user>   **** ""
2 30 31
ATOM$RED        STATIC     ATOMS    COLORGROUP SYSTEM
2 30 31
@<TRIPOS>COMMENT
> <Gold.Version>
2022.2.0

> <Gold.Id.Protein>
3pbl|protein|mol2

> <Gold.Protein.RotatedTorsions>
[ 1303 1298 1297 1294 ] final   33.62 input  179.99 | X-H torsion
[ 2461 2456 2455 2452 ] final -140.73 input   30.03 | X-H torsion
[ 2515 2510 2509 2506 ] final   72.90 input  -89.99 | X-H torsion
[ 3721 3712 3711 3710 ] final   76.46 input -179.91 | X-H torsion
[ 3841 3832 3831 3830 ] final  158.48 input -179.91 | X-H torsion
[ 3767 3762 3761 3758 ] final  -53.38 input  -89.99 | X-H torsion
[ 2472 2467 2466 2463 ] final   60.19 input  -89.97 | X-H torsion

> <Gold.Protein.ActiveResidues>
 VAL82   VAL86   LEU89   PHE106  VAL107  ASP110  VAL111  MET112  CYS114  THR115 
 CYS181  SER182  ILE183  PHE188  VAL189  ILE190  SER192  SER193  SER196  TRP342 
 PHE345  PHE346  HIS349  VAL350  TYR365  THR369  GLY372  TYR373 

> <Gold.Protein.RotatedAtoms>
    3.6719  -10.2026    4.3740 H   0  0  0  0  0  0  0  0  0  0  0  0  # atno 1303 bound_to 1298
    0.8398   -9.2715    8.2424 H   0  0  0  0  0  0  0  0  0  0  0  0  # atno 2461 bound_to 2456
   -4.6461   -4.8202    7.6594 H   0  0  0  0  0  0  0  0  0  0  0  0  # atno 2472 bound_to 2467
    2.0928   -7.5534    5.6315 H   0  0  0  0  0  0  0  0  0  0  0  0  # atno 2515 bound_to 2510
   -2.6895  -17.7638   13.2074 H   0  0  0  0  0  0  0  0  0  0  0  0  # atno 3721 bound_to 3712
   -5.4894  -22.1140   10.7188 H   0  0  0  0  0  0  0  0  0  0  0  0  # atno 3767 bound_to 3762
    3.0969  -20.3049    8.5535 H   0  0  0  0  0  0  0  0  0  0  0  0  # atno 3841 bound_to 3832
    3.7808   -8.6598    3.8504 LP  0  0  0  0  0  0  0  0  0  0  0  0  # atno 4297 bound_to 1298
    4.9096   -9.2586    4.8672 LP  0  0  0  0  0  0  0  0  0  0  0  0  # atno 4298 bound_to 1298
    2.1594   -8.4007    7.8330 LP  0  0  0  0  0  0  0  0  0  0  0  0  # atno 4299 bound_to 2456
    0.7385   -8.1362    7.0728 LP  0  0  0  0  0  0  0  0  0  0  0  0  # atno 4300 bound_to 2456
    2.7909   -8.2928    4.3541 LP  0  0  0  0  0  0  0  0  0  0  0  0  # atno 4301 bound_to 2510
    2.4131   -9.1533    5.6895 LP  0  0  0  0  0  0  0  0  0  0  0  0  # atno 4302 bound_to 2510
   -2.8553  -17.6536   14.8006 LP  0  0  0  0  0  0  0  0  0  0  0  0  # atno 4306 bound_to 3712
   -3.5673  -16.5642   13.8142 LP  0  0  0  0  0  0  0  0  0  0  0  0  # atno 4307 bound_to 3712
    2.0492  -21.0238    9.5342 LP  0  0  0  0  0  0  0  0  0  0  0  0  # atno 4314 bound_to 3832
    1.6028  -19.7263    8.6488 LP  0  0  0  0  0  0  0  0  0  0  0  0  # atno 4315 bound_to 3832
   -4.1587  -22.4525   11.6027 LP  0  0  0  0  0  0  0  0  0  0  0  0  # atno 4318 bound_to 3762
   -4.4795  -23.3084   10.2495 LP  0  0  0  0  0  0  0  0  0  0  0  0  # atno 4319 bound_to 3762
   -3.7258   -5.1860    8.9577 LP  0  0  0  0  0  0  0  0  0  0  0  0  # atno 4320 bound_to 2467
   -5.3450   -5.3873    9.0219 LP  0  0  0  0  0  0  0  0  0  0  0  0  # atno 4321 bound_to 2467

> <Gold.Score>
     Score     S(PLP)   S(hbond)     S(cho)   S(metal)  DE(clash)   DE(tors)     intcor
     38.75     -34.84       1.55       0.00       0.00       0.00       0.61       0.48

> <Gold.PLP.Fitness>
38.7456

> <Gold.PLP.PLP>
-34.8369

> <Gold.PLP.part.hbond>
-2.0000

> <Gold.PLP.part.metal>
0.0000

> <Gold.PLP.part.buried>
-6.6227

> <Gold.PLP.part.nonpolar>
-26.7903

> <Gold.PLP.part.repulsive>
0.2151

> <Gold.PLP.ligand.clash>
0.0016

> <Gold.PLP.ligand.torsion>
0.6100

> <Gold.PLP.Chemscore.Hbond>
1.5498

> <Gold.PLP.Chemscore.CHOScore>
0.0000

> <Gold.PLP.Chemscore.Metal>
0.0000

> <Gold.Chemscore.Hbonds>
donor molecule, donor type, donor heavy atom, donor atom, acceptor molecule, acceptor atom, score
      L1  H     8    30       P1  1227  0.89
      P1  H  2456  2461       L1    14  0.66

> <Gold.PLP.Chemscore.Internal.Correction>
0.4811

