#       Name:                EN300-1700178_i001
#       Creating user name   fsindt
#       Creation time:       Wed Mar  1 19:51:26 2023


#       File generated by GOLD software.
#

@<TRIPOS>MOLECULE
EN300-1700178_i001|acide_1|mol2|9825|dock14
    31    30     1
SMALL
USER_CHARGES


@<TRIPOS>ATOM
      1 C1          -3.3124  -9.9403   9.9644 C.3            1 <1>                0.0000
      2 C2          -1.9612 -10.6401  10.1248 C.3            1 <1>                0.0000
      3 C3          -1.3417 -10.8751   8.7457 C.3            1 <1>                0.0000
      4 C4          -1.0278  -9.7617  10.9603 C.3            1 <1>                0.0000
      5 O5          -2.1529 -11.9151  10.7928 O.3            1 <1>                0.0000
      6 C6          -1.0488 -12.6393  11.0560 C.2            1 <1>                0.0000
      7 O7           0.0304 -12.2782  10.6303 O.2            1 <1>                0.0000
      8 N8          -1.1408 -13.7648  11.7917 N.am           1 <1>                0.0000
      9 C9           0.0605 -14.5529  12.0781 C.3            1 <1>                0.0000
     10 C10         -0.1867 -16.0149  11.7010 C.3            1 <1>                0.0000
     11 C11          0.7856 -16.9114  12.4702 C.3            1 <1>                0.0000
     12 O12          2.1276 -16.5028  12.1977 O.3            1 <1>                0.0000
     13 C13          0.5150 -16.7942  13.9481 C.2            1 <1>                0.0000
     14 O14          1.3543 -16.3046  14.6846 O.co2          1 <1>                0.0000
     15 O15         -0.5432 -17.1891  14.4072 O.co2          1 <1>               -1.0000
     16 H16         -3.9774 -10.5661   9.3692 H              1 <1>                0.0000
     17 H17         -3.7537  -9.7730  10.9469 H              1 <1>                0.0000
     18 H18         -3.1685  -8.9833   9.4630 H              1 <1>                0.0000
     19 H19         -1.1980  -9.9180   8.2442 H              1 <1>                0.0000
     20 H20         -0.3792 -11.3736   8.8600 H              1 <1>                0.0000
     21 H21         -2.0067 -11.5008   8.1505 H              1 <1>                0.0000
     22 H22         -1.4693  -9.5945  11.9428 H              1 <1>                0.0000
     23 H23         -0.0653 -10.2603  11.0746 H              1 <1>                0.0000
     24 H24         -0.8841  -8.8047  10.4589 H              1 <1>                0.0000
     25 H25          0.8970 -14.1643  11.4972 H              1 <1>                0.0000
     26 H26          0.2940 -14.4862  13.1407 H              1 <1>                0.0000
     27 H27         -1.2110 -16.2876  11.9554 H              1 <1>                0.0000
     28 H28         -0.0314 -16.1452  10.6300 H              1 <1>                0.0000
     29 H29          0.6504 -17.9468  12.1571 H              1 <1>                0.0000
     30 H30         -2.0024 -14.0531  12.1315 H              1 <1>                0.0000
     31 H31          2.5509 -16.9955  11.4814 H              1 <1>                0.0000
@<TRIPOS>BOND
    1    1    2 1     
    2    1   16 1     
    3    1   17 1     
    4    1   18 1     
    5    2    3 1     
    6    2    4 1     
    7    2    5 1     
    8    3   19 1     
    9    3   20 1     
   10    3   21 1     
   11    4   22 1     
   12    4   23 1     
   13    4   24 1     
   14    5    6 1     
   15    6    7 2     
   16    6    8 am    
   17    8    9 1     
   18    8   30 1     
   19    9   10 1     
   20    9   25 1     
   21    9   26 1     
   22   10   11 1     
   23   10   27 1     
   24   10   28 1     
   25   11   12 1     
   26   11   13 1     
   27   11   29 1     
   28   12   31 1     
   29   13   14 ar    
   30   13   15 ar    
@<TRIPOS>SUBSTRUCTURE
      1 ****           1
@<TRIPOS>SET
DONOR_HYDROGENS      STATIC     ATOMS    <user>   **** ""
2 30 31
ATOM$RED        STATIC     ATOMS    COLORGROUP SYSTEM
2 30 31
@<TRIPOS>COMMENT
> <Gold.Version>
2022.2.0

> <Gold.Id.Protein>
3pbl|protein|mol2

> <Gold.Protein.RotatedTorsions>
[ 1303 1298 1297 1294 ] final  -42.98 input  179.99 | X-H torsion
[ 2461 2456 2455 2452 ] final -132.32 input   30.03 | X-H torsion
[ 2515 2510 2509 2506 ] final -132.83 input  -89.99 | X-H torsion
[ 3721 3712 3711 3710 ] final  -16.47 input -179.91 | X-H torsion
[ 3841 3832 3831 3830 ] final  -12.65 input -179.91 | X-H torsion
[ 3767 3762 3761 3758 ] final  -44.08 input  -89.99 | X-H torsion
[ 2472 2467 2466 2463 ] final -173.57 input  -89.97 | X-H torsion

> <Gold.Protein.ActiveResidues>
 VAL82   VAL86   LEU89   PHE106  VAL107  ASP110  VAL111  MET112  CYS114  THR115 
 CYS181  SER182  ILE183  PHE188  VAL189  ILE190  SER192  SER193  SER196  TRP342 
 PHE345  PHE346  HIS349  VAL350  TYR365  THR369  GLY372  TYR373 

> <Gold.Protein.RotatedAtoms>
    3.3827   -9.2295    3.7955 H   0  0  0  0  0  0  0  0  0  0  0  0  # atno 1303 bound_to 1298
    0.7241   -9.2420    8.1726 H   0  0  0  0  0  0  0  0  0  0  0  0  # atno 2461 bound_to 2456
   -5.2826   -5.4095    9.1003 H   0  0  0  0  0  0  0  0  0  0  0  0  # atno 2472 bound_to 2467
    2.6435   -9.2510    5.1937 H   0  0  0  0  0  0  0  0  0  0  0  0  # atno 2515 bound_to 2510
   -2.5382  -17.8346   14.4522 H   0  0  0  0  0  0  0  0  0  0  0  0  # atno 3721 bound_to 3712
   -5.5091  -22.2006   10.5942 H   0  0  0  0  0  0  0  0  0  0  0  0  # atno 3767 bound_to 3762
    1.6431  -20.3383    9.4836 H   0  0  0  0  0  0  0  0  0  0  0  0  # atno 3841 bound_to 3832
    4.7371   -8.6781    4.5220 LP  0  0  0  0  0  0  0  0  0  0  0  0  # atno 4297 bound_to 1298
    4.2426  -10.2138    4.7743 LP  0  0  0  0  0  0  0  0  0  0  0  0  # atno 4298 bound_to 1298
    2.1581   -8.4987    7.9305 LP  0  0  0  0  0  0  0  0  0  0  0  0  # atno 4299 bound_to 2456
    0.8554   -8.0677    7.0452 LP  0  0  0  0  0  0  0  0  0  0  0  0  # atno 4300 bound_to 2456
    2.0287   -7.9683    5.9951 LP  0  0  0  0  0  0  0  0  0  0  0  0  # atno 4301 bound_to 2510
    2.6244   -7.7795    4.4865 LP  0  0  0  0  0  0  0  0  0  0  0  0  # atno 4302 bound_to 2510
   -3.5191  -16.5867   14.2105 LP  0  0  0  0  0  0  0  0  0  0  0  0  # atno 4306 bound_to 3712
   -3.0781  -17.5493   12.9673 LP  0  0  0  0  0  0  0  0  0  0  0  0  # atno 4307 bound_to 3712
    2.3362  -19.7094    8.1797 LP  0  0  0  0  0  0  0  0  0  0  0  0  # atno 4314 bound_to 3832
    2.9951  -21.0020    8.9290 LP  0  0  0  0  0  0  0  0  0  0  0  0  # atno 4315 bound_to 3832
   -4.2603  -22.3434   11.6368 LP  0  0  0  0  0  0  0  0  0  0  0  0  # atno 4318 bound_to 3762
   -4.3583  -23.3309   10.3400 LP  0  0  0  0  0  0  0  0  0  0  0  0  # atno 4319 bound_to 3762
   -4.7474   -4.8340    7.6690 LP  0  0  0  0  0  0  0  0  0  0  0  0  # atno 4320 bound_to 2467
   -3.6870   -5.1501    8.8699 LP  0  0  0  0  0  0  0  0  0  0  0  0  # atno 4321 bound_to 2467

> <Gold.Score>
     Score     S(PLP)   S(hbond)     S(cho)   S(metal)  DE(clash)   DE(tors)     intcor
     43.52     -36.74       2.62       0.00       0.00       1.06       0.26       0.48

> <Gold.PLP.Fitness>
43.5214

> <Gold.PLP.PLP>
-36.7448

> <Gold.PLP.part.hbond>
-3.0000

> <Gold.PLP.part.metal>
0.0000

> <Gold.PLP.part.buried>
-3.2623

> <Gold.PLP.part.nonpolar>
-31.5841

> <Gold.PLP.part.repulsive>
0.2044

> <Gold.PLP.ligand.clash>
1.0598

> <Gold.PLP.ligand.torsion>
0.2583

> <Gold.PLP.Chemscore.Hbond>
2.6240

> <Gold.PLP.Chemscore.CHOScore>
0.0000

> <Gold.PLP.Chemscore.Metal>
0.0000

> <Gold.Chemscore.Hbonds>
donor molecule, donor type, donor heavy atom, donor atom, acceptor molecule, acceptor atom, score
      L1  H    12    31       P1  1227  1.00
      P1  H  2305  2313       L1    14  1.00
      P1  H  3712  3721       L1    15  0.62

> <Gold.PLP.Chemscore.Internal.Correction>
0.4811

