#       Name:                EN300-1700178_i001
#       Creating user name   fsindt
#       Creation time:       Wed Mar  1 19:51:31 2023


#       File generated by GOLD software.
#

@<TRIPOS>MOLECULE
EN300-1700178_i001|acide_1|mol2|9825|dock17
    31    30     1
SMALL
USER_CHARGES


@<TRIPOS>ATOM
      1 C1           2.2748 -17.0237  14.5884 C.3            1 <1>                0.0000
      2 C2           1.1952 -17.7439  13.7779 C.3            1 <1>                0.0000
      3 C3           1.7033 -19.1276  13.3680 C.3            1 <1>                0.0000
      4 C4          -0.0664 -17.8956  14.6301 C.3            1 <1>                0.0000
      5 O5           0.8860 -16.9701  12.5887 O.3            1 <1>                0.0000
      6 C6           0.3422 -15.7528  12.7758 C.2            1 <1>                0.0000
      7 O7           0.2622 -15.2888  13.8960 O.2            1 <1>                0.0000
      8 N8          -0.1134 -15.0488  11.7207 N.am           1 <1>                0.0000
      9 C9          -0.7051 -13.7242  11.9243 C.3            1 <1>                0.0000
     10 C10         -0.6069 -12.9171  10.6282 C.3            1 <1>                0.0000
     11 C11         -1.5250 -11.6964  10.7168 C.3            1 <1>                0.0000
     12 O12         -1.3158 -11.0325  11.9648 O.3            1 <1>                0.0000
     13 C13         -1.2133 -10.7503   9.5859 C.2            1 <1>                0.0000
     14 O14         -1.8999  -9.7574   9.4150 O.co2          1 <1>                0.0000
     15 O15         -0.2745 -10.9778   8.8421 O.co2          1 <1>               -1.0000
     16 H16          3.1736 -16.9157  13.9813 H              1 <1>                0.0000
     17 H17          1.9129 -16.0379  14.8803 H              1 <1>                0.0000
     18 H18          2.5069 -17.6046  15.4811 H              1 <1>                0.0000
     19 H19          1.9355 -19.7085  14.2607 H              1 <1>                0.0000
     20 H20          0.9342 -19.6407  12.7906 H              1 <1>                0.0000
     21 H21          2.6020 -19.0196  12.7609 H              1 <1>                0.0000
     22 H22         -0.4283 -16.9096  14.9220 H              1 <1>                0.0000
     23 H23         -0.8354 -18.4086  14.0526 H              1 <1>                0.0000
     24 H24          0.1658 -18.4764  15.5227 H              1 <1>                0.0000
     25 H25         -1.7524 -13.8335  12.2058 H              1 <1>                0.0000
     26 H26         -0.1679 -13.2043  12.7176 H              1 <1>                0.0000
     27 H27          0.4219 -12.5880  10.4821 H              1 <1>                0.0000
     28 H28         -0.9117 -13.5408   9.7878 H              1 <1>                0.0000
     29 H29         -2.5643 -12.0176  10.6458 H              1 <1>                0.0000
     30 H30         -0.0494 -15.4192  10.8265 H              1 <1>                0.0000
     31 H31         -1.5307 -10.0898  11.9497 H              1 <1>                0.0000
@<TRIPOS>BOND
    1    1    2 1     
    2    1   16 1     
    3    1   17 1     
    4    1   18 1     
    5    2    3 1     
    6    2    4 1     
    7    2    5 1     
    8    3   19 1     
    9    3   20 1     
   10    3   21 1     
   11    4   22 1     
   12    4   23 1     
   13    4   24 1     
   14    5    6 1     
   15    6    7 2     
   16    6    8 am    
   17    8    9 1     
   18    8   30 1     
   19    9   10 1     
   20    9   25 1     
   21    9   26 1     
   22   10   11 1     
   23   10   27 1     
   24   10   28 1     
   25   11   12 1     
   26   11   13 1     
   27   11   29 1     
   28   12   31 1     
   29   13   14 ar    
   30   13   15 ar    
@<TRIPOS>SUBSTRUCTURE
      1 ****           1
@<TRIPOS>SET
DONOR_HYDROGENS      STATIC     ATOMS    <user>   **** ""
2 30 31
ATOM$RED        STATIC     ATOMS    COLORGROUP SYSTEM
2 30 31
@<TRIPOS>COMMENT
> <Gold.Version>
2022.2.0

> <Gold.Id.Protein>
3pbl|protein|mol2

> <Gold.Protein.RotatedTorsions>
[ 1303 1298 1297 1294 ] final   51.28 input  179.99 | X-H torsion
[ 2461 2456 2455 2452 ] final -138.80 input   30.03 | X-H torsion
[ 2515 2510 2509 2506 ] final  162.68 input  -89.99 | X-H torsion
[ 3721 3712 3711 3710 ] final   71.08 input -179.91 | X-H torsion
[ 3841 3832 3831 3830 ] final  166.62 input -179.91 | X-H torsion
[ 3767 3762 3761 3758 ] final  145.20 input  -89.99 | X-H torsion
[ 2472 2467 2466 2463 ] final -146.33 input  -89.97 | X-H torsion

> <Gold.Protein.ActiveResidues>
 VAL82   VAL86   LEU89   PHE106  VAL107  ASP110  VAL111  MET112  CYS114  THR115 
 CYS181  SER182  ILE183  PHE188  VAL189  ILE190  SER192  SER193  SER196  TRP342 
 PHE345  PHE346  HIS349  VAL350  TYR365  THR369  GLY372  TYR373 

> <Gold.Protein.RotatedAtoms>
    3.8907  -10.2684    4.5516 H   0  0  0  0  0  0  0  0  0  0  0  0  # atno 1303 bound_to 1298
    0.8124   -9.2660    8.2274 H   0  0  0  0  0  0  0  0  0  0  0  0  # atno 2461 bound_to 2456
   -4.9236   -5.4622    9.3562 H   0  0  0  0  0  0  0  0  0  0  0  0  # atno 2472 bound_to 2467
    2.2130   -8.8267    5.9974 H   0  0  0  0  0  0  0  0  0  0  0  0  # atno 2515 bound_to 2510
   -2.6550  -17.8158   13.2595 H   0  0  0  0  0  0  0  0  0  0  0  0  # atno 3721 bound_to 3712
   -3.9099  -22.9514   11.2365 H   0  0  0  0  0  0  0  0  0  0  0  0  # atno 3767 bound_to 3762
    3.0558  -20.2072    8.4914 H   0  0  0  0  0  0  0  0  0  0  0  0  # atno 3841 bound_to 3832
    3.5801   -8.8588    3.7881 LP  0  0  0  0  0  0  0  0  0  0  0  0  # atno 4297 bound_to 1298
    4.8915   -8.9938    4.7518 LP  0  0  0  0  0  0  0  0  0  0  0  0  # atno 4298 bound_to 1298
    2.1608   -8.4228    7.8557 LP  0  0  0  0  0  0  0  0  0  0  0  0  # atno 4299 bound_to 2456
    0.7644   -8.1195    7.0652 LP  0  0  0  0  0  0  0  0  0  0  0  0  # atno 4300 bound_to 2456
    2.2485   -7.4090    5.1882 LP  0  0  0  0  0  0  0  0  0  0  0  0  # atno 4301 bound_to 2510
    2.8353   -8.7632    4.4893 LP  0  0  0  0  0  0  0  0  0  0  0  0  # atno 4302 bound_to 2510
   -2.8958  -17.5785   14.8291 LP  0  0  0  0  0  0  0  0  0  0  0  0  # atno 4306 bound_to 3712
   -3.5666  -16.5791   13.7256 LP  0  0  0  0  0  0  0  0  0  0  0  0  # atno 4307 bound_to 3712
    2.1707  -21.0786    9.5080 LP  0  0  0  0  0  0  0  0  0  0  0  0  # atno 4314 bound_to 3832
    1.5287  -19.7844    8.7468 LP  0  0  0  0  0  0  0  0  0  0  0  0  # atno 4315 bound_to 3832
   -5.0453  -23.0084   10.0641 LP  0  0  0  0  0  0  0  0  0  0  0  0  # atno 4318 bound_to 3762
   -5.1719  -21.9154   11.2707 LP  0  0  0  0  0  0  0  0  0  0  0  0  # atno 4319 bound_to 3762
   -5.1497   -4.9353    7.8273 LP  0  0  0  0  0  0  0  0  0  0  0  0  # atno 4320 bound_to 2467
   -3.6437   -4.9961    8.4557 LP  0  0  0  0  0  0  0  0  0  0  0  0  # atno 4321 bound_to 2467

> <Gold.Score>
     Score     S(PLP)   S(hbond)     S(cho)   S(metal)  DE(clash)   DE(tors)     intcor
     39.04     -35.28       1.69       0.00       0.00       0.95       0.42       0.48

> <Gold.PLP.Fitness>
39.0352

> <Gold.PLP.PLP>
-35.2766

> <Gold.PLP.part.hbond>
-1.7972

> <Gold.PLP.part.metal>
0.0000

> <Gold.PLP.part.buried>
-6.7109

> <Gold.PLP.part.nonpolar>
-28.5941

> <Gold.PLP.part.repulsive>
0.2633

> <Gold.PLP.ligand.clash>
0.9458

> <Gold.PLP.ligand.torsion>
0.4233

> <Gold.PLP.Chemscore.Hbond>
1.6900

> <Gold.PLP.Chemscore.CHOScore>
0.0000

> <Gold.PLP.Chemscore.Metal>
0.0000

> <Gold.Chemscore.Hbonds>
donor molecule, donor type, donor heavy atom, donor atom, acceptor molecule, acceptor atom, score
      P1  H  2456  2461       L1    15  0.96
      P1  H  2305  2313       L1     7  0.73

> <Gold.PLP.Chemscore.Internal.Correction>
0.4811

