#       Name:                EN300-1700178_i001
#       Creating user name   fsindt
#       Creation time:       Wed Mar  1 19:51:10 2023


#       File generated by GOLD software.
#

@<TRIPOS>MOLECULE
EN300-1700178_i001|acide_1|mol2|9825|dock3
    31    30     1
SMALL
USER_CHARGES


@<TRIPOS>ATOM
      1 C1           0.1373 -11.6955   8.4361 C.3            1 <1>                0.0000
      2 C2           0.5840 -13.0405   7.8594 C.3            1 <1>                0.0000
      3 C3          -0.6458 -13.8961   7.5492 C.3            1 <1>                0.0000
      4 C4           1.3794 -12.8054   6.5737 C.3            1 <1>                0.0000
      5 O5           1.4204 -13.7281   8.8270 O.3            1 <1>                0.0000
      6 C6           0.8163 -14.1907   9.9377 C.2            1 <1>                0.0000
      7 O7          -0.1584 -13.6176  10.3828 O.2            1 <1>                0.0000
      8 N8           1.2927 -15.2895  10.5559 N.am           1 <1>                0.0000
      9 C9           0.6353 -15.7930  11.7645 C.3            1 <1>                0.0000
     10 C10          1.6717 -15.9573  12.8779 C.3            1 <1>                0.0000
     11 C11          1.2832 -17.1413  13.7656 C.3            1 <1>                0.0000
     12 O12          2.3533 -17.4325  14.6668 O.3            1 <1>                0.0000
     13 C13          0.0448 -16.7948  14.5515 C.2            1 <1>                0.0000
     14 O14         -0.2504 -15.6272  14.7406 O.co2          1 <1>                0.0000
     15 O15         -0.6619 -17.6824  14.9982 O.co2          1 <1>               -1.0000
     16 H16         -0.4293 -11.8630   9.3520 H              1 <1>                0.0000
     17 H17          1.0135 -11.0860   8.6571 H              1 <1>                0.0000
     18 H18         -0.4905 -11.1794   7.7097 H              1 <1>                0.0000
     19 H19         -1.2737 -13.3799   6.8229 H              1 <1>                0.0000
     20 H20         -0.3275 -14.8543   7.1384 H              1 <1>                0.0000
     21 H21         -1.2124 -14.0636   8.4651 H              1 <1>                0.0000
     22 H22          2.2555 -12.1958   6.7948 H              1 <1>                0.0000
     23 H23          1.6976 -13.7635   6.1629 H              1 <1>                0.0000
     24 H24          0.7515 -12.2892   5.8474 H              1 <1>                0.0000
     25 H25         -0.1308 -15.0859  12.0828 H              1 <1>                0.0000
     26 H26          0.1740 -16.7575  11.5523 H              1 <1>                0.0000
     27 H27          2.6521 -16.1396  12.4378 H              1 <1>                0.0000
     28 H28          1.7066 -15.0486  13.4789 H              1 <1>                0.0000
     29 H29          1.0857 -18.0134  13.1422 H              1 <1>                0.0000
     30 H30          2.0707 -15.7470  10.2006 H              1 <1>                0.0000
     31 H31          2.4259 -16.8118  15.4047 H              1 <1>                0.0000
@<TRIPOS>BOND
    1    1    2 1     
    2    1   16 1     
    3    1   17 1     
    4    1   18 1     
    5    2    3 1     
    6    2    4 1     
    7    2    5 1     
    8    3   19 1     
    9    3   20 1     
   10    3   21 1     
   11    4   22 1     
   12    4   23 1     
   13    4   24 1     
   14    5    6 1     
   15    6    7 2     
   16    6    8 am    
   17    8    9 1     
   18    8   30 1     
   19    9   10 1     
   20    9   25 1     
   21    9   26 1     
   22   10   11 1     
   23   10   27 1     
   24   10   28 1     
   25   11   12 1     
   26   11   13 1     
   27   11   29 1     
   28   12   31 1     
   29   13   14 ar    
   30   13   15 ar    
@<TRIPOS>SUBSTRUCTURE
      1 ****           1
@<TRIPOS>SET
DONOR_HYDROGENS      STATIC     ATOMS    <user>   **** ""
2 30 31
ATOM$RED        STATIC     ATOMS    COLORGROUP SYSTEM
2 30 31
@<TRIPOS>COMMENT
> <Gold.Version>
2022.2.0

> <Gold.Id.Protein>
3pbl|protein|mol2

> <Gold.Protein.RotatedTorsions>
[ 1303 1298 1297 1294 ] final  -37.69 input  179.99 | X-H torsion
[ 2461 2456 2455 2452 ] final  -40.49 input   30.03 | X-H torsion
[ 2515 2510 2509 2506 ] final  -97.65 input  -89.99 | X-H torsion
[ 3721 3712 3711 3710 ] final  -21.97 input -179.91 | X-H torsion
[ 3841 3832 3831 3830 ] final  -71.08 input -179.91 | X-H torsion
[ 3767 3762 3761 3758 ] final -112.99 input  -89.99 | X-H torsion
[ 2472 2467 2466 2463 ] final -107.80 input  -89.97 | X-H torsion

> <Gold.Protein.ActiveResidues>
 VAL82   VAL86   LEU89   PHE106  VAL107  ASP110  VAL111  MET112  CYS114  THR115 
 CYS181  SER182  ILE183  PHE188  VAL189  ILE190  SER192  SER193  SER196  TRP342 
 PHE345  PHE346  HIS349  VAL350  TYR365  THR369  GLY372  TYR373 

> <Gold.Protein.RotatedAtoms>
    3.3596   -9.3118    3.8113 H   0  0  0  0  0  0  0  0  0  0  0  0  # atno 1303 bound_to 1298
    0.5106   -8.3335    7.1904 H   0  0  0  0  0  0  0  0  0  0  0  0  # atno 2461 bound_to 2456
   -4.3054   -5.4121    9.4059 H   0  0  0  0  0  0  0  0  0  0  0  0  # atno 2472 bound_to 2467
    2.8031   -9.0205    4.6978 H   0  0  0  0  0  0  0  0  0  0  0  0  # atno 2515 bound_to 2510
   -2.5623  -17.7831   14.5129 H   0  0  0  0  0  0  0  0  0  0  0  0  # atno 3721 bound_to 3712
   -4.9440  -21.9400   11.4610 H   0  0  0  0  0  0  0  0  0  0  0  0  # atno 3767 bound_to 3762
    1.6809  -19.7212    8.9077 H   0  0  0  0  0  0  0  0  0  0  0  0  # atno 3841 bound_to 3832
    4.6888   -8.6287    4.4693 LP  0  0  0  0  0  0  0  0  0  0  0  0  # atno 4297 bound_to 1298
    4.3141  -10.1809    4.8112 LP  0  0  0  0  0  0  0  0  0  0  0  0  # atno 4298 bound_to 1298
    1.1411   -9.2836    8.3597 LP  0  0  0  0  0  0  0  0  0  0  0  0  # atno 4299 bound_to 2456
    2.0858   -8.1910    7.5979 LP  0  0  0  0  0  0  0  0  0  0  0  0  # atno 4300 bound_to 2456
    2.1087   -8.5245    6.0897 LP  0  0  0  0  0  0  0  0  0  0  0  0  # atno 4301 bound_to 2510
    2.3848   -7.4538    4.8880 LP  0  0  0  0  0  0  0  0  0  0  0  0  # atno 4302 bound_to 2510
   -3.5373  -16.5687   14.1222 LP  0  0  0  0  0  0  0  0  0  0  0  0  # atno 4306 bound_to 3712
   -3.0321  -17.6268   12.9855 LP  0  0  0  0  0  0  0  0  0  0  0  0  # atno 4307 bound_to 3712
    3.0371  -20.3175    8.2901 LP  0  0  0  0  0  0  0  0  0  0  0  0  # atno 4314 bound_to 3832
    2.2505  -21.1068    9.4838 LP  0  0  0  0  0  0  0  0  0  0  0  0  # atno 4315 bound_to 3832
   -3.9276  -23.1324   11.0005 LP  0  0  0  0  0  0  0  0  0  0  0  0  # atno 4318 bound_to 3762
   -5.2559  -22.8024   10.1098 LP  0  0  0  0  0  0  0  0  0  0  0  0  # atno 4319 bound_to 3762
   -5.4843   -5.1453    8.3080 LP  0  0  0  0  0  0  0  0  0  0  0  0  # atno 4320 bound_to 2467
   -3.9272   -4.8362    7.9255 LP  0  0  0  0  0  0  0  0  0  0  0  0  # atno 4321 bound_to 2467

> <Gold.Score>
     Score     S(PLP)   S(hbond)     S(cho)   S(metal)  DE(clash)   DE(tors)     intcor
     46.73     -40.32       2.85       0.00       0.00       0.00       1.36       0.59

> <Gold.PLP.Fitness>
46.7281

> <Gold.PLP.PLP>
-40.3200

> <Gold.PLP.part.hbond>
-3.0000

> <Gold.PLP.part.metal>
0.0000

> <Gold.PLP.part.buried>
-6.4983

> <Gold.PLP.part.nonpolar>
-31.1018

> <Gold.PLP.part.repulsive>
0.2315

> <Gold.PLP.ligand.clash>
0.0000

> <Gold.PLP.ligand.torsion>
1.3637

> <Gold.PLP.Chemscore.Hbond>
2.8480

> <Gold.PLP.Chemscore.CHOScore>
0.0000

> <Gold.PLP.Chemscore.Metal>
0.0000

> <Gold.Chemscore.Hbonds>
donor molecule, donor type, donor heavy atom, donor atom, acceptor molecule, acceptor atom, score
      L1  H     8    30       P1  1227  0.85
      P1  H  2305  2313       L1    14  1.00
      P1  H  3712  3721       L1    15  1.00

> <Gold.PLP.Chemscore.Internal.Correction>
0.5915

