#       Name:                EN300-1700178_i001
#       Creating user name   fsindt
#       Creation time:       Wed Mar  1 19:51:08 2023


#       File generated by GOLD software.
#

@<TRIPOS>MOLECULE
EN300-1700178_i001|acide_1|mol2|9825|dock1
    31    30     1
SMALL
USER_CHARGES


@<TRIPOS>ATOM
      1 C1          -1.8014 -11.6231   9.0313 C.3            1 <1>                0.0000
      2 C2          -1.6203 -11.2983  10.5155 C.3            1 <1>                0.0000
      3 C3          -0.2737 -10.6029  10.7247 C.3            1 <1>                0.0000
      4 C4          -2.7489 -10.3739  10.9767 C.3            1 <1>                0.0000
      5 O5          -1.6553 -12.5276  11.2876 O.3            1 <1>                0.0000
      6 C6          -0.6425 -13.3951  11.1020 C.2            1 <1>                0.0000
      7 O7           0.0979 -13.2691  10.1468 O.2            1 <1>                0.0000
      8 N8          -0.4501 -14.4031  11.9756 N.am           1 <1>                0.0000
      9 C9           0.6519 -15.3471  11.7736 C.3            1 <1>                0.0000
     10 C10          0.3124 -16.6788  12.4460 C.3            1 <1>                0.0000
     11 C11          0.6821 -16.6103  13.9290 C.3            1 <1>                0.0000
     12 O12         -0.1011 -15.6008  14.5691 O.3            1 <1>                0.0000
     13 C13          0.4099 -17.9435  14.5768 C.2            1 <1>                0.0000
     14 O14         -0.7212 -18.3985  14.5832 O.co2          1 <1>                0.0000
     15 O15          1.3208 -18.5670  15.0945 O.co2          1 <1>               -1.0000
     16 H16         -0.9974 -12.2816   8.7026 H              1 <1>                0.0000
     17 H17         -2.7608 -12.1186   8.8823 H              1 <1>                0.0000
     18 H18         -1.7751 -10.7004   8.4517 H              1 <1>                0.0000
     19 H19         -0.2473  -9.6801  10.1450 H              1 <1>                0.0000
     20 H20         -0.1447 -10.3715  11.7820 H              1 <1>                0.0000
     21 H21          0.5303 -11.2614  10.3961 H              1 <1>                0.0000
     22 H22         -3.7082 -10.8695  10.8276 H              1 <1>                0.0000
     23 H23         -2.6198 -10.1426  12.0341 H              1 <1>                0.0000
     24 H24         -2.7226  -9.4513  10.3970 H              1 <1>                0.0000
     25 H25          0.8022 -15.5071  10.7059 H              1 <1>                0.0000
     26 H26          1.5633 -14.9407  12.2120 H              1 <1>                0.0000
     27 H27         -0.7553 -16.8744  12.3464 H              1 <1>                0.0000
     28 H28          0.8747 -17.4810  11.9680 H              1 <1>                0.0000
     29 H29          1.7400 -16.3672  14.0288 H              1 <1>                0.0000
     30 H30         -1.0412 -14.5036  12.7381 H              1 <1>                0.0000
     31 H31         -1.0062 -15.5347  14.2352 H              1 <1>                0.0000
@<TRIPOS>BOND
    1    1    2 1     
    2    1   16 1     
    3    1   17 1     
    4    1   18 1     
    5    2    3 1     
    6    2    4 1     
    7    2    5 1     
    8    3   19 1     
    9    3   20 1     
   10    3   21 1     
   11    4   22 1     
   12    4   23 1     
   13    4   24 1     
   14    5    6 1     
   15    6    7 2     
   16    6    8 am    
   17    8    9 1     
   18    8   30 1     
   19    9   10 1     
   20    9   25 1     
   21    9   26 1     
   22   10   11 1     
   23   10   27 1     
   24   10   28 1     
   25   11   12 1     
   26   11   13 1     
   27   11   29 1     
   28   12   31 1     
   29   13   14 ar    
   30   13   15 ar    
@<TRIPOS>SUBSTRUCTURE
      1 ****           1
@<TRIPOS>SET
DONOR_HYDROGENS      STATIC     ATOMS    <user>   **** ""
2 30 31
ATOM$RED        STATIC     ATOMS    COLORGROUP SYSTEM
2 30 31
@<TRIPOS>COMMENT
> <Gold.Version>
2022.2.0

> <Gold.Id.Protein>
3pbl|protein|mol2

> <Gold.Protein.RotatedTorsions>
[ 1303 1298 1297 1294 ] final  100.23 input  179.99 | X-H torsion
[ 2461 2456 2455 2452 ] final -104.85 input   30.03 | X-H torsion
[ 2515 2510 2509 2506 ] final -130.36 input  -89.99 | X-H torsion
[ 3721 3712 3711 3710 ] final   -7.03 input -179.91 | X-H torsion
[ 3841 3832 3831 3830 ] final -119.69 input -179.91 | X-H torsion
[ 3767 3762 3761 3758 ] final    9.55 input  -89.99 | X-H torsion
[ 2472 2467 2466 2463 ] final  169.53 input  -89.97 | X-H torsion

> <Gold.Protein.ActiveResidues>
 VAL82   VAL86   LEU89   PHE106  VAL107  ASP110  VAL111  MET112  CYS114  THR115 
 CYS181  SER182  ILE183  PHE188  VAL189  ILE190  SER192  SER193  SER196  TRP342 
 PHE345  PHE346  HIS349  VAL350  TYR365  THR369  GLY372  TYR373 

> <Gold.Protein.RotatedAtoms>
    4.5404  -10.0200    4.9067 H   0  0  0  0  0  0  0  0  0  0  0  0  # atno 1303 bound_to 1298
    0.4359   -9.0551    7.8852 H   0  0  0  0  0  0  0  0  0  0  0  0  # atno 2461 bound_to 2456
   -5.4299   -5.3445    8.8749 H   0  0  0  0  0  0  0  0  0  0  0  0  # atno 2472 bound_to 2467
    2.6582   -9.2454    5.1561 H   0  0  0  0  0  0  0  0  0  0  0  0  # atno 2515 bound_to 2510
   -2.5048  -17.9109   14.3364 H   0  0  0  0  0  0  0  0  0  0  0  0  # atno 3721 bound_to 3712
   -5.2290  -22.8323   10.0981 H   0  0  0  0  0  0  0  0  0  0  0  0  # atno 3767 bound_to 3762
    2.2195  -19.5927    8.4591 H   0  0  0  0  0  0  0  0  0  0  0  0  # atno 3841 bound_to 3832
    3.3300   -9.5907    3.8983 LP  0  0  0  0  0  0  0  0  0  0  0  0  # atno 4297 bound_to 1298
    4.4915   -8.5104    4.2863 LP  0  0  0  0  0  0  0  0  0  0  0  0  # atno 4298 bound_to 1298
    2.0203   -8.8232    8.2066 LP  0  0  0  0  0  0  0  0  0  0  0  0  # atno 4299 bound_to 2456
    1.2813   -7.9301    7.0564 LP  0  0  0  0  0  0  0  0  0  0  0  0  # atno 4300 bound_to 2456
    2.0295   -8.0052    6.0120 LP  0  0  0  0  0  0  0  0  0  0  0  0  # atno 4301 bound_to 2510
    2.6089   -7.7480    4.5071 LP  0  0  0  0  0  0  0  0  0  0  0  0  # atno 4302 bound_to 2510
   -3.4788  -16.6346   14.3551 LP  0  0  0  0  0  0  0  0  0  0  0  0  # atno 4306 bound_to 3712
   -3.1570  -17.4133   12.9563 LP  0  0  0  0  0  0  0  0  0  0  0  0  # atno 4307 bound_to 3712
    3.0643  -20.9126    8.8061 LP  0  0  0  0  0  0  0  0  0  0  0  0  # atno 4314 bound_to 3832
    1.6012  -20.6601    9.4860 LP  0  0  0  0  0  0  0  0  0  0  0  0  # atno 4315 bound_to 3832
   -4.9781  -21.9329   11.4379 LP  0  0  0  0  0  0  0  0  0  0  0  0  # atno 4318 bound_to 3762
   -3.9204  -23.1099   11.0348 LP  0  0  0  0  0  0  0  0  0  0  0  0  # atno 4319 bound_to 3762
   -4.4721   -4.8034    7.6681 LP  0  0  0  0  0  0  0  0  0  0  0  0  # atno 4320 bound_to 2467
   -3.8150   -5.2457    9.0961 LP  0  0  0  0  0  0  0  0  0  0  0  0  # atno 4321 bound_to 2467

> <Gold.Score>
     Score     S(PLP)   S(hbond)     S(cho)   S(metal)  DE(clash)   DE(tors)     intcor
     43.82     -38.27       2.00       0.00       0.00       0.01       0.52       0.59

> <Gold.PLP.Fitness>
43.8164

> <Gold.PLP.PLP>
-38.2719

> <Gold.PLP.part.hbond>
-2.0000

> <Gold.PLP.part.metal>
0.0000

> <Gold.PLP.part.buried>
-6.3014

> <Gold.PLP.part.nonpolar>
-30.7618

> <Gold.PLP.part.repulsive>
0.2164

> <Gold.PLP.ligand.clash>
0.0078

> <Gold.PLP.ligand.torsion>
0.5196

> <Gold.PLP.Chemscore.Hbond>
2.0000

> <Gold.PLP.Chemscore.CHOScore>
0.0000

> <Gold.PLP.Chemscore.Metal>
0.0000

> <Gold.Chemscore.Hbonds>
donor molecule, donor type, donor heavy atom, donor atom, acceptor molecule, acceptor atom, score
      P1  H  2305  2313       L1    12  1.00
      P1  H  3712  3721       L1    14  1.00

> <Gold.PLP.Chemscore.Internal.Correction>
0.5915

