#       Name:                EN300-1700178_i001
#       Creating user name   fsindt
#       Creation time:       Wed Mar  1 19:51:12 2023


#       File generated by GOLD software.
#

@<TRIPOS>MOLECULE
EN300-1700178_i001|acide_1|mol2|9825|dock4
    31    30     1
SMALL
USER_CHARGES


@<TRIPOS>ATOM
      1 C1           2.2746 -16.3332  14.3994 C.3            1 <1>                0.0000
      2 C2           1.2215 -17.3640  13.9877 C.3            1 <1>                0.0000
      3 C3           1.6949 -18.7635  14.3853 C.3            1 <1>                0.0000
      4 C4          -0.1000 -17.0528  14.6932 C.3            1 <1>                0.0000
      5 O5           1.0271 -17.3093  12.5497 O.3            1 <1>                0.0000
      6 C6           0.7599 -16.1031  12.0145 C.2            1 <1>                0.0000
      7 O7           0.3828 -15.1929  12.7257 O.2            1 <1>                0.0000
      8 N8           0.9105 -15.9054  10.6898 N.am           1 <1>                0.0000
      9 C9           0.6196 -14.5930  10.1074 C.3            1 <1>                0.0000
     10 C10          1.5205 -14.3633   8.8923 C.3            1 <1>                0.0000
     11 C11          0.7213 -13.6664   7.7894 C.3            1 <1>                0.0000
     12 O12         -0.3628 -14.5047   7.3844 O.3            1 <1>                0.0000
     13 C13          0.1790 -12.3605   8.3106 C.2            1 <1>                0.0000
     14 O14         -0.6880 -12.3592   9.1678 O.co2          1 <1>                0.0000
     15 O15          0.6075 -11.3054   7.8751 O.co2          1 <1>               -1.0000
     16 H16          3.2161 -16.5549  13.8968 H              1 <1>                0.0000
     17 H17          1.9374 -15.3362  14.1161 H              1 <1>                0.0000
     18 H18          2.4206 -16.3743  15.4789 H              1 <1>                0.0000
     19 H19          1.8409 -18.8046  15.4648 H              1 <1>                0.0000
     20 H20          0.9446 -19.4978  14.0920 H              1 <1>                0.0000
     21 H21          2.6363 -18.9851  13.8827 H              1 <1>                0.0000
     22 H22         -0.4371 -16.0558  14.4098 H              1 <1>                0.0000
     23 H23         -0.8502 -17.7872  14.3998 H              1 <1>                0.0000
     24 H24          0.0460 -17.0939  15.7726 H              1 <1>                0.0000
     25 H25         -0.4248 -14.5564   9.7975 H              1 <1>                0.0000
     26 H26          0.8059 -13.8168  10.8496 H              1 <1>                0.0000
     27 H27          2.3655 -13.7375   9.1795 H              1 <1>                0.0000
     28 H28          1.8868 -15.3221   8.5251 H              1 <1>                0.0000
     29 H29          1.3712 -13.4749   6.9354 H              1 <1>                0.0000
     30 H30          1.2114 -16.6321  10.1222 H              1 <1>                0.0000
     31 H31         -0.5663 -14.4558   6.4403 H              1 <1>                0.0000
@<TRIPOS>BOND
    1    1    2 1     
    2    1   16 1     
    3    1   17 1     
    4    1   18 1     
    5    2    3 1     
    6    2    4 1     
    7    2    5 1     
    8    3   19 1     
    9    3   20 1     
   10    3   21 1     
   11    4   22 1     
   12    4   23 1     
   13    4   24 1     
   14    5    6 1     
   15    6    7 2     
   16    6    8 am    
   17    8    9 1     
   18    8   30 1     
   19    9   10 1     
   20    9   25 1     
   21    9   26 1     
   22   10   11 1     
   23   10   27 1     
   24   10   28 1     
   25   11   12 1     
   26   11   13 1     
   27   11   29 1     
   28   12   31 1     
   29   13   14 ar    
   30   13   15 ar    
@<TRIPOS>SUBSTRUCTURE
      1 ****           1
@<TRIPOS>SET
DONOR_HYDROGENS      STATIC     ATOMS    <user>   **** ""
2 30 31
ATOM$RED        STATIC     ATOMS    COLORGROUP SYSTEM
2 30 31
@<TRIPOS>COMMENT
> <Gold.Version>
2022.2.0

> <Gold.Id.Protein>
3pbl|protein|mol2

> <Gold.Protein.RotatedTorsions>
[ 1303 1298 1297 1294 ] final  -24.20 input  179.99 | X-H torsion
[ 2461 2456 2455 2452 ] final -137.31 input   30.03 | X-H torsion
[ 2515 2510 2509 2506 ] final -139.52 input  -89.99 | X-H torsion
[ 3721 3712 3711 3710 ] final   80.65 input -179.91 | X-H torsion
[ 3841 3832 3831 3830 ] final  146.52 input -179.91 | X-H torsion
[ 3767 3762 3761 3758 ] final -102.48 input  -89.99 | X-H torsion
[ 2472 2467 2466 2463 ] final    1.78 input  -89.97 | X-H torsion

> <Gold.Protein.ActiveResidues>
 VAL82   VAL86   LEU89   PHE106  VAL107  ASP110  VAL111  MET112  CYS114  THR115 
 CYS181  SER182  ILE183  PHE188  VAL189  ILE190  SER192  SER193  SER196  TRP342 
 PHE345  PHE346  HIS349  VAL350  TYR365  THR369  GLY372  TYR373 

> <Gold.Protein.RotatedAtoms>
    3.3301   -9.5225    3.8726 H   0  0  0  0  0  0  0  0  0  0  0  0  # atno 1303 bound_to 1298
    0.7916   -9.2613    8.2153 H   0  0  0  0  0  0  0  0  0  0  0  0  # atno 2461 bound_to 2456
   -3.8146   -4.8695    8.0501 H   0  0  0  0  0  0  0  0  0  0  0  0  # atno 2472 bound_to 2467
    2.6021   -9.2574    5.2953 H   0  0  0  0  0  0  0  0  0  0  0  0  # atno 2515 bound_to 2510
   -2.7176  -17.7202   13.1710 H   0  0  0  0  0  0  0  0  0  0  0  0  # atno 3721 bound_to 3712
   -5.0799  -21.9168   11.3571 H   0  0  0  0  0  0  0  0  0  0  0  0  # atno 3767 bound_to 3762
    3.1296  -20.4467    8.6602 H   0  0  0  0  0  0  0  0  0  0  0  0  # atno 3841 bound_to 3832
    4.5446   -8.5322    4.3316 LP  0  0  0  0  0  0  0  0  0  0  0  0  # atno 4297 bound_to 1298
    4.4878  -10.0666    4.8876 LP  0  0  0  0  0  0  0  0  0  0  0  0  # atno 4298 bound_to 1298
    2.1612   -8.4401    7.8731 LP  0  0  0  0  0  0  0  0  0  0  0  0  # atno 4299 bound_to 2456
    0.7848   -8.1070    7.0599 LP  0  0  0  0  0  0  0  0  0  0  0  0  # atno 4300 bound_to 2456
    2.0301   -7.8718    5.9423 LP  0  0  0  0  0  0  0  0  0  0  0  0  # atno 4301 bound_to 2510
    2.6644   -7.8695    4.4376 LP  0  0  0  0  0  0  0  0  0  0  0  0  # atno 4302 bound_to 2510
   -2.8252  -17.7104   14.7730 LP  0  0  0  0  0  0  0  0  0  0  0  0  # atno 4306 bound_to 3712
   -3.5649  -16.5575   13.8839 LP  0  0  0  0  0  0  0  0  0  0  0  0  # atno 4307 bound_to 3712
    1.8789  -20.9207    9.5473 LP  0  0  0  0  0  0  0  0  0  0  0  0  # atno 4314 bound_to 3832
    1.7352  -19.6656    8.5125 LP  0  0  0  0  0  0  0  0  0  0  0  0  # atno 4315 bound_to 3832
   -3.9079  -23.0331   11.1404 LP  0  0  0  0  0  0  0  0  0  0  0  0  # atno 4318 bound_to 3762
   -5.1397  -22.9249   10.0738 LP  0  0  0  0  0  0  0  0  0  0  0  0  # atno 4319 bound_to 3762
   -4.4725   -5.4390    9.4318 LP  0  0  0  0  0  0  0  0  0  0  0  0  # atno 4320 bound_to 2467
   -5.4297   -5.0849    8.1571 LP  0  0  0  0  0  0  0  0  0  0  0  0  # atno 4321 bound_to 2467

> <Gold.Score>
     Score     S(PLP)   S(hbond)     S(cho)   S(metal)  DE(clash)   DE(tors)     intcor
     42.11     -37.65       1.87       0.00       0.00       0.00       0.87       0.59

> <Gold.PLP.Fitness>
42.1127

> <Gold.PLP.PLP>
-37.6533

> <Gold.PLP.part.hbond>
-2.0000

> <Gold.PLP.part.metal>
0.0000

> <Gold.PLP.part.buried>
-6.5839

> <Gold.PLP.part.nonpolar>
-30.2925

> <Gold.PLP.part.repulsive>
0.1345

> <Gold.PLP.ligand.clash>
0.0000

> <Gold.PLP.ligand.torsion>
0.8741

> <Gold.PLP.Chemscore.Hbond>
1.8720

> <Gold.PLP.Chemscore.CHOScore>
0.0000

> <Gold.PLP.Chemscore.Metal>
0.0000

> <Gold.Chemscore.Hbonds>
donor molecule, donor type, donor heavy atom, donor atom, acceptor molecule, acceptor atom, score
      L1  H     8    30       P1  1227  0.88
      P1  H  2456  2461       L1    15  0.99

> <Gold.PLP.Chemscore.Internal.Correction>
0.5915

