#       Name:                EN300-1700178_i001
#       Creating user name   fsindt
#       Creation time:       Wed Mar  1 19:51:25 2023


#       File generated by GOLD software.
#

@<TRIPOS>MOLECULE
EN300-1700178_i001|acide_1|mol2|9825|dock13
    31    30     1
SMALL
USER_CHARGES


@<TRIPOS>ATOM
      1 C1          -0.1456 -17.3579  14.7382 C.3            1 <1>                0.0000
      2 C2           1.1323 -17.7169  13.9771 C.3            1 <1>                0.0000
      3 C3           2.3024 -16.9024  14.5323 C.3            1 <1>                0.0000
      4 C4           1.4242 -19.2093  14.1457 C.3            1 <1>                0.0000
      5 O5           0.9574 -17.4140  12.5678 O.3            1 <1>                0.0000
      6 C6           0.8937 -16.1135  12.2253 C.2            1 <1>                0.0000
      7 O7           0.5078 -15.2910  13.0322 O.2            1 <1>                0.0000
      8 N8           1.2579 -15.7241  10.9875 N.am           1 <1>                0.0000
      9 C9           1.1886 -14.3089  10.6149 C.3            1 <1>                0.0000
     10 C10          0.5100 -14.1735   9.2503 C.3            1 <1>                0.0000
     11 C11          1.5261 -13.6700   8.2232 C.3            1 <1>                0.0000
     12 O12          1.6972 -14.6536   7.2007 O.3            1 <1>                0.0000
     13 C13          1.0259 -12.3881   7.6085 C.2            1 <1>                0.0000
     14 O14          0.7913 -12.3361   6.4133 O.co2          1 <1>                0.0000
     15 O15          0.8560 -11.4031   8.3067 O.co2          1 <1>               -1.0000
     16 H16         -0.3535 -16.2947  14.6181 H              1 <1>                0.0000
     17 H17         -0.9792 -17.9381  14.3426 H              1 <1>                0.0000
     18 H18         -0.0143 -17.5852  15.7961 H              1 <1>                0.0000
     19 H19          2.4337 -17.1296  15.5903 H              1 <1>                0.0000
     20 H20          3.2127 -17.1581  13.9901 H              1 <1>                0.0000
     21 H21          2.0944 -15.8392  14.4122 H              1 <1>                0.0000
     22 H22          0.5905 -19.7895  13.7501 H              1 <1>                0.0000
     23 H23          2.3345 -19.4650  13.6035 H              1 <1>                0.0000
     24 H24          1.5554 -19.4365  15.2036 H              1 <1>                0.0000
     25 H25          0.6125 -13.7641  11.3628 H              1 <1>                0.0000
     26 H26          2.1965 -13.8974  10.5618 H              1 <1>                0.0000
     27 H27          0.1274 -15.1448   8.9368 H              1 <1>                0.0000
     28 H28         -0.3147 -13.4645   9.3234 H              1 <1>                0.0000
     29 H29          2.4812 -13.4882   8.7160 H              1 <1>                0.0000
     30 H30          1.5660 -16.3807  10.3435 H              1 <1>                0.0000
     31 H31          2.5765 -15.0557   7.1851 H              1 <1>                0.0000
@<TRIPOS>BOND
    1    1    2 1     
    2    1   16 1     
    3    1   17 1     
    4    1   18 1     
    5    2    3 1     
    6    2    4 1     
    7    2    5 1     
    8    3   19 1     
    9    3   20 1     
   10    3   21 1     
   11    4   22 1     
   12    4   23 1     
   13    4   24 1     
   14    5    6 1     
   15    6    7 2     
   16    6    8 am    
   17    8    9 1     
   18    8   30 1     
   19    9   10 1     
   20    9   25 1     
   21    9   26 1     
   22   10   11 1     
   23   10   27 1     
   24   10   28 1     
   25   11   12 1     
   26   11   13 1     
   27   11   29 1     
   28   12   31 1     
   29   13   14 ar    
   30   13   15 ar    
@<TRIPOS>SUBSTRUCTURE
      1 ****           1
@<TRIPOS>SET
DONOR_HYDROGENS      STATIC     ATOMS    <user>   **** ""
2 30 31
ATOM$RED        STATIC     ATOMS    COLORGROUP SYSTEM
2 30 31
@<TRIPOS>COMMENT
> <Gold.Version>
2022.2.0

> <Gold.Id.Protein>
3pbl|protein|mol2

> <Gold.Protein.RotatedTorsions>
[ 1303 1298 1297 1294 ] final   -9.02 input  179.99 | X-H torsion
[ 2461 2456 2455 2452 ] final -149.77 input   30.03 | X-H torsion
[ 2515 2510 2509 2506 ] final  103.93 input  -89.99 | X-H torsion
[ 3721 3712 3711 3710 ] final   95.17 input -179.91 | X-H torsion
[ 3841 3832 3831 3830 ] final   40.47 input -179.91 | X-H torsion
[ 3767 3762 3761 3758 ] final -164.30 input  -89.99 | X-H torsion
[ 2472 2467 2466 2463 ] final -106.14 input  -89.97 | X-H torsion

> <Gold.Protein.ActiveResidues>
 VAL82   VAL86   LEU89   PHE106  VAL107  ASP110  VAL111  MET112  CYS114  THR115 
 CYS181  SER182  ILE183  PHE188  VAL189  ILE190  SER192  SER193  SER196  TRP342 
 PHE345  PHE346  HIS349  VAL350  TYR365  THR369  GLY372  TYR373 

> <Gold.Protein.RotatedAtoms>
    3.3491   -9.7493    3.9738 H   0  0  0  0  0  0  0  0  0  0  0  0  # atno 1303 bound_to 1298
    0.9738   -9.2872    8.3049 H   0  0  0  0  0  0  0  0  0  0  0  0  # atno 2461 bound_to 2456
   -4.2795   -5.4068    9.3991 H   0  0  0  0  0  0  0  0  0  0  0  0  # atno 2472 bound_to 2467
    2.0290   -7.9210    5.9706 H   0  0  0  0  0  0  0  0  0  0  0  0  # atno 2515 bound_to 2510
   -2.8220  -17.5530   13.0759 H   0  0  0  0  0  0  0  0  0  0  0  0  # atno 3721 bound_to 3712
   -4.2571  -22.3454   11.6359 H   0  0  0  0  0  0  0  0  0  0  0  0  # atno 3767 bound_to 3762
    2.2042  -20.8585    9.6019 H   0  0  0  0  0  0  0  0  0  0  0  0  # atno 3841 bound_to 3832
    4.3547   -8.4793    4.1792 LP  0  0  0  0  0  0  0  0  0  0  0  0  # atno 4297 bound_to 1298
    4.6586   -9.8926    4.9387 LP  0  0  0  0  0  0  0  0  0  0  0  0  # atno 4298 bound_to 1298
    2.1388   -8.3002    7.7255 LP  0  0  0  0  0  0  0  0  0  0  0  0  # atno 4299 bound_to 2456
    0.6251   -8.2210    7.1180 LP  0  0  0  0  0  0  0  0  0  0  0  0  # atno 4300 bound_to 2456
    2.6442   -7.8222    4.4615 LP  0  0  0  0  0  0  0  0  0  0  0  0  # atno 4301 bound_to 2510
    2.6237   -9.2560    5.2428 LP  0  0  0  0  0  0  0  0  0  0  0  0  # atno 4302 bound_to 2510
   -2.7327  -17.8921   14.6427 LP  0  0  0  0  0  0  0  0  0  0  0  0  # atno 4306 bound_to 3712
   -3.5370  -16.5690   14.1240 LP  0  0  0  0  0  0  0  0  0  0  0  0  # atno 4307 bound_to 3712
    1.6126  -19.7202    8.6374 LP  0  0  0  0  0  0  0  0  0  0  0  0  # atno 4314 bound_to 3832
    3.0706  -20.3903    8.3346 LP  0  0  0  0  0  0  0  0  0  0  0  0  # atno 4315 bound_to 3832
   -4.3610  -23.3306   10.3377 LP  0  0  0  0  0  0  0  0  0  0  0  0  # atno 4318 bound_to 3762
   -5.5091  -22.1989   10.5977 LP  0  0  0  0  0  0  0  0  0  0  0  0  # atno 4319 bound_to 3762
   -5.4903   -5.1549    8.3328 LP  0  0  0  0  0  0  0  0  0  0  0  0  # atno 4320 bound_to 2467
   -3.9471   -4.8318    7.9073 LP  0  0  0  0  0  0  0  0  0  0  0  0  # atno 4321 bound_to 2467

> <Gold.Score>
     Score     S(PLP)   S(hbond)     S(cho)   S(metal)  DE(clash)   DE(tors)     intcor
     41.69     -35.59       2.96       0.00       0.00       0.00       1.63       0.48

> <Gold.PLP.Fitness>
41.6911

> <Gold.PLP.PLP>
-35.5945

> <Gold.PLP.part.hbond>
-3.0000

> <Gold.PLP.part.metal>
0.0000

> <Gold.PLP.part.buried>
-6.4825

> <Gold.PLP.part.nonpolar>
-26.6907

> <Gold.PLP.part.repulsive>
0.1595

> <Gold.PLP.ligand.clash>
0.0000

> <Gold.PLP.ligand.torsion>
1.6304

> <Gold.PLP.Chemscore.Hbond>
2.9588

> <Gold.PLP.Chemscore.CHOScore>
0.0000

> <Gold.PLP.Chemscore.Metal>
0.0000

> <Gold.Chemscore.Hbonds>
donor molecule, donor type, donor heavy atom, donor atom, acceptor molecule, acceptor atom, score
      L1  H     8    30       P1  1227  1.00
      L1  H    12    31       P1  1223  1.00
      P1  H  2456  2461       L1    15  0.96

> <Gold.PLP.Chemscore.Internal.Correction>
0.4811

