#       Name:                EN300-1700178_i001
#       Creating user name   fsindt
#       Creation time:       Wed Mar  1 19:51:34 2023


#       File generated by GOLD software.
#

@<TRIPOS>MOLECULE
EN300-1700178_i001|acide_1|mol2|9825|dock19
    31    30     1
SMALL
USER_CHARGES


@<TRIPOS>ATOM
      1 C1          -1.4858 -10.0017   8.8928 C.3            1 <1>                0.0000
      2 C2          -1.6365 -10.8652  10.1468 C.3            1 <1>                0.0000
      3 C3          -0.9811 -10.1581  11.3347 C.3            1 <1>                0.0000
      4 C4          -3.1221 -11.0842  10.4399 C.3            1 <1>                0.0000
      5 O5          -0.9914 -12.1481   9.9313 O.3            1 <1>                0.0000
      6 C6          -0.9257 -12.9840  10.9847 C.2            1 <1>                0.0000
      7 O7          -1.5864 -12.7604  11.9797 O.2            1 <1>                0.0000
      8 N8          -0.1272 -14.0686  10.9356 N.am           1 <1>                0.0000
      9 C9          -0.0558 -14.9782  12.0818 C.3            1 <1>                0.0000
     10 C10          1.2465 -15.7786  12.0174 C.3            1 <1>                0.0000
     11 C11          1.3467 -16.6890  13.2429 C.3            1 <1>                0.0000
     12 O12          1.6752 -15.9062  14.3924 O.3            1 <1>                0.0000
     13 C13          0.0254 -17.3788  13.4656 C.2            1 <1>                0.0000
     14 O14         -0.5939 -17.1908  14.4989 O.co2          1 <1>                0.0000
     15 O15         -0.4242 -18.1248  12.6125 O.co2          1 <1>               -1.0000
     16 H16         -0.4275  -9.8456   8.6840 H              1 <1>                0.0000
     17 H17         -1.9527 -10.5055   8.0465 H              1 <1>                0.0000
     18 H18         -1.9701  -9.0386   9.0546 H              1 <1>                0.0000
     19 H19         -1.4653  -9.1949  11.4965 H              1 <1>                0.0000
     20 H20         -1.0884 -10.7732  12.2281 H              1 <1>                0.0000
     21 H21          0.0773 -10.0020  11.1260 H              1 <1>                0.0000
     22 H22         -3.5889 -11.5881   9.5935 H              1 <1>                0.0000
     23 H23         -3.2294 -11.6995  11.3333 H              1 <1>                0.0000
     24 H24         -3.6063 -10.1212  10.6016 H              1 <1>                0.0000
     25 H25         -0.0820 -14.4007  13.0060 H              1 <1>                0.0000
     26 H26         -0.9042 -15.6620  12.0564 H              1 <1>                0.0000
     27 H27          1.2555 -16.3856  11.1121 H              1 <1>                0.0000
     28 H28          2.0940 -15.0931  12.0037 H              1 <1>                0.0000
     29 H29          2.1232 -17.4361  13.0780 H              1 <1>                0.0000
     30 H30          0.4001 -14.2470  10.1413 H              1 <1>                0.0000
     31 H31          2.6240 -15.7643  14.5134 H              1 <1>                0.0000
@<TRIPOS>BOND
    1    1    2 1     
    2    1   16 1     
    3    1   17 1     
    4    1   18 1     
    5    2    3 1     
    6    2    4 1     
    7    2    5 1     
    8    3   19 1     
    9    3   20 1     
   10    3   21 1     
   11    4   22 1     
   12    4   23 1     
   13    4   24 1     
   14    5    6 1     
   15    6    7 2     
   16    6    8 am    
   17    8    9 1     
   18    8   30 1     
   19    9   10 1     
   20    9   25 1     
   21    9   26 1     
   22   10   11 1     
   23   10   27 1     
   24   10   28 1     
   25   11   12 1     
   26   11   13 1     
   27   11   29 1     
   28   12   31 1     
   29   13   14 ar    
   30   13   15 ar    
@<TRIPOS>SUBSTRUCTURE
      1 ****           1
@<TRIPOS>SET
DONOR_HYDROGENS      STATIC     ATOMS    <user>   **** ""
2 30 31
ATOM$RED        STATIC     ATOMS    COLORGROUP SYSTEM
2 30 31
@<TRIPOS>COMMENT
> <Gold.Version>
2022.2.0

> <Gold.Id.Protein>
3pbl|protein|mol2

> <Gold.Protein.RotatedTorsions>
[ 1303 1298 1297 1294 ] final -104.21 input  179.99 | X-H torsion
[ 2461 2456 2455 2452 ] final -173.83 input   30.03 | X-H torsion
[ 2515 2510 2509 2506 ] final -137.90 input  -89.99 | X-H torsion
[ 3721 3712 3711 3710 ] final   -7.32 input -179.91 | X-H torsion
[ 3841 3832 3831 3830 ] final -105.79 input -179.91 | X-H torsion
[ 3767 3762 3761 3758 ] final -168.81 input  -89.99 | X-H torsion
[ 2472 2467 2466 2463 ] final   68.33 input  -89.97 | X-H torsion

> <Gold.Protein.ActiveResidues>
 VAL82   VAL86   LEU89   PHE106  VAL107  ASP110  VAL111  MET112  CYS114  THR115 
 CYS181  SER182  ILE183  PHE188  VAL189  ILE190  SER192  SER193  SER196  TRP342 
 PHE345  PHE346  HIS349  VAL350  TYR365  THR369  GLY372  TYR373 

> <Gold.Protein.RotatedAtoms>
    4.0157   -8.5272    3.9628 H   0  0  0  0  0  0  0  0  0  0  0  0  # atno 1303 bound_to 1298
    1.3537   -9.2464    8.3968 H   0  0  0  0  0  0  0  0  0  0  0  0  # atno 2461 bound_to 2456
   -4.7777   -4.8398    7.6736 H   0  0  0  0  0  0  0  0  0  0  0  0  # atno 2472 bound_to 2467
    2.6123   -9.2570    5.2708 H   0  0  0  0  0  0  0  0  0  0  0  0  # atno 2515 bound_to 2510
   -2.5057  -17.9087   14.3402 H   0  0  0  0  0  0  0  0  0  0  0  0  # atno 3721 bound_to 3712
   -4.2064  -22.3977   11.6217 H   0  0  0  0  0  0  0  0  0  0  0  0  # atno 3767 bound_to 3762
    2.0369  -19.5804    8.5611 H   0  0  0  0  0  0  0  0  0  0  0  0  # atno 3841 bound_to 3832
    4.8525   -9.5371    4.9355 LP  0  0  0  0  0  0  0  0  0  0  0  0  # atno 4297 bound_to 1298
    3.4941  -10.0573    4.1934 LP  0  0  0  0  0  0  0  0  0  0  0  0  # atno 4298 bound_to 1298
    1.9792   -8.0755    7.4454 LP  0  0  0  0  0  0  0  0  0  0  0  0  # atno 4299 bound_to 2456
    0.4049   -8.4864    7.3062 LP  0  0  0  0  0  0  0  0  0  0  0  0  # atno 4300 bound_to 2456
    2.0293   -7.8946    5.9560 LP  0  0  0  0  0  0  0  0  0  0  0  0  # atno 4301 bound_to 2510
    2.6550   -7.8471    4.4484 LP  0  0  0  0  0  0  0  0  0  0  0  0  # atno 4302 bound_to 2510
   -3.4802  -16.6328   14.3508 LP  0  0  0  0  0  0  0  0  0  0  0  0  # atno 4306 bound_to 3712
   -3.1546  -17.4176   12.9562 LP  0  0  0  0  0  0  0  0  0  0  0  0  # atno 4307 bound_to 3712
    3.1194  -20.7630    8.6380 LP  0  0  0  0  0  0  0  0  0  0  0  0  # atno 4314 bound_to 3832
    1.7570  -20.8241    9.5363 LP  0  0  0  0  0  0  0  0  0  0  0  0  # atno 4315 bound_to 3832
   -4.4189  -23.3218   10.2922 LP  0  0  0  0  0  0  0  0  0  0  0  0  # atno 4318 bound_to 3762
   -5.5019  -22.1555   10.6575 LP  0  0  0  0  0  0  0  0  0  0  0  0  # atno 4319 bound_to 3762
   -3.6772   -5.1390    8.8422 LP  0  0  0  0  0  0  0  0  0  0  0  0  # atno 4320 bound_to 2467
   -5.2620   -5.4147    9.1232 LP  0  0  0  0  0  0  0  0  0  0  0  0  # atno 4321 bound_to 2467

> <Gold.Score>
     Score     S(PLP)   S(hbond)     S(cho)   S(metal)  DE(clash)   DE(tors)     intcor
     41.50     -37.49       1.54       0.00       0.00       0.21       0.44       0.48

> <Gold.PLP.Fitness>
41.4980

> <Gold.PLP.PLP>
-37.4853

> <Gold.PLP.part.hbond>
-3.4900

> <Gold.PLP.part.metal>
0.0000

> <Gold.PLP.part.buried>
-2.1175

> <Gold.PLP.part.nonpolar>
-33.1146

> <Gold.PLP.part.repulsive>
0.1798

> <Gold.PLP.ligand.clash>
0.2054

> <Gold.PLP.ligand.torsion>
0.4354

> <Gold.PLP.Chemscore.Hbond>
1.5360

> <Gold.PLP.Chemscore.CHOScore>
0.0000

> <Gold.PLP.Chemscore.Metal>
0.0000

> <Gold.Chemscore.Hbonds>
donor molecule, donor type, donor heavy atom, donor atom, acceptor molecule, acceptor atom, score
      P1  H  2305  2313       L1    12  0.88
      P1  H  3712  3721       L1    14  0.66

> <Gold.PLP.Chemscore.Internal.Correction>
0.4811

