#       Name:                EN300-1700178_i001
#       Creating user name   fsindt
#       Creation time:       Wed Mar  1 19:51:28 2023


#       File generated by GOLD software.
#

@<TRIPOS>MOLECULE
EN300-1700178_i001|acide_1|mol2|9825|dock15
    31    30     1
SMALL
USER_CHARGES


@<TRIPOS>ATOM
      1 C1           1.4308 -13.1242   6.7221 C.3            1 <1>                0.0000
      2 C2           0.5709 -13.2407   7.9823 C.3            1 <1>                0.0000
      3 C3           0.2474 -11.8416   8.5101 C.3            1 <1>                0.0000
      4 C4          -0.7301 -13.9725   7.6463 C.3            1 <1>                0.0000
      5 O5           1.2967 -13.9846   8.9963 O.3            1 <1>                0.0000
      6 C6           0.6100 -14.3499  10.0952 C.2            1 <1>                0.0000
      7 O7          -0.3130 -13.6655  10.4903 O.2            1 <1>                0.0000
      8 N8           0.9464 -15.4748  10.7571 N.am           1 <1>                0.0000
      9 C9           0.1992 -15.8723  11.9529 C.3            1 <1>                0.0000
     10 C10          0.8256 -17.1342  12.5496 C.3            1 <1>                0.0000
     11 C11          0.1489 -18.3702  11.9537 C.3            1 <1>                0.0000
     12 O12          1.0700 -19.0528  11.1005 O.3            1 <1>                0.0000
     13 C13         -0.2835 -19.2913  13.0653 C.2            1 <1>                0.0000
     14 O14         -1.0392 -18.8873  13.9326 O.co2          1 <1>                0.0000
     15 O15          0.1224 -20.4405  13.0973 O.co2          1 <1>               -1.0000
     16 H16          2.3576 -12.6029   6.9614 H              1 <1>                0.0000
     17 H17          1.6612 -14.1210   6.3461 H              1 <1>                0.0000
     18 H18          0.8859 -12.5658   5.9609 H              1 <1>                0.0000
     19 H19         -0.2974 -11.2831   7.7488 H              1 <1>                0.0000
     20 H20         -0.3651 -11.9246   9.4078 H              1 <1>                0.0000
     21 H21          1.1742 -11.3202   8.7494 H              1 <1>                0.0000
     22 H22         -0.4995 -14.9693   7.2703 H              1 <1>                0.0000
     23 H23         -1.3426 -14.0555   8.5441 H              1 <1>                0.0000
     24 H24         -1.2748 -13.4141   6.8851 H              1 <1>                0.0000
     25 H25          0.2337 -15.0674  12.6871 H              1 <1>                0.0000
     26 H26         -0.8375 -16.0739  11.6832 H              1 <1>                0.0000
     27 H27          1.8904 -17.1557  12.3179 H              1 <1>                0.0000
     28 H28          0.6890 -17.1311  13.6311 H              1 <1>                0.0000
     29 H29         -0.7231 -18.0639  11.3758 H              1 <1>                0.0000
     30 H30          1.6832 -16.0211  10.4417 H              1 <1>                0.0000
     31 H31          1.4476 -18.4971  10.4050 H              1 <1>                0.0000
@<TRIPOS>BOND
    1    1    2 1     
    2    1   16 1     
    3    1   17 1     
    4    1   18 1     
    5    2    3 1     
    6    2    4 1     
    7    2    5 1     
    8    3   19 1     
    9    3   20 1     
   10    3   21 1     
   11    4   22 1     
   12    4   23 1     
   13    4   24 1     
   14    5    6 1     
   15    6    7 2     
   16    6    8 am    
   17    8    9 1     
   18    8   30 1     
   19    9   10 1     
   20    9   25 1     
   21    9   26 1     
   22   10   11 1     
   23   10   27 1     
   24   10   28 1     
   25   11   12 1     
   26   11   13 1     
   27   11   29 1     
   28   12   31 1     
   29   13   14 ar    
   30   13   15 ar    
@<TRIPOS>SUBSTRUCTURE
      1 ****           1
@<TRIPOS>SET
DONOR_HYDROGENS      STATIC     ATOMS    <user>   **** ""
2 30 31
ATOM$RED        STATIC     ATOMS    COLORGROUP SYSTEM
2 30 31
@<TRIPOS>COMMENT
> <Gold.Version>
2022.2.0

> <Gold.Id.Protein>
3pbl|protein|mol2

> <Gold.Protein.RotatedTorsions>
[ 1303 1298 1297 1294 ] final   69.70 input  179.99 | X-H torsion
[ 2461 2456 2455 2452 ] final -131.23 input   30.03 | X-H torsion
[ 2515 2510 2509 2506 ] final  -80.94 input  -89.99 | X-H torsion
[ 3721 3712 3711 3710 ] final    0.22 input -179.91 | X-H torsion
[ 3841 3832 3831 3830 ] final -150.32 input -179.91 | X-H torsion
[ 3767 3762 3761 3758 ] final   11.06 input  -89.99 | X-H torsion
[ 2472 2467 2466 2463 ] final -149.51 input  -89.97 | X-H torsion

> <Gold.Protein.ActiveResidues>
 VAL82   VAL86   LEU89   PHE106  VAL107  ASP110  VAL111  MET112  CYS114  THR115 
 CYS181  SER182  ILE183  PHE188  VAL189  ILE190  SER192  SER193  SER196  TRP342 
 PHE345  PHE346  HIS349  VAL350  TYR365  THR369  GLY372  TYR373 

> <Gold.Protein.RotatedAtoms>
    4.1417  -10.2472    4.7178 H   0  0  0  0  0  0  0  0  0  0  0  0  # atno 1303 bound_to 1298
    0.7099   -9.2371    8.1627 H   0  0  0  0  0  0  0  0  0  0  0  0  # atno 2461 bound_to 2456
   -4.9712   -5.4598    9.3349 H   0  0  0  0  0  0  0  0  0  0  0  0  # atno 2472 bound_to 2467
    2.8332   -8.8139    4.5206 H   0  0  0  0  0  0  0  0  0  0  0  0  # atno 2515 bound_to 2510
   -2.4865  -17.9579   14.2393 H   0  0  0  0  0  0  0  0  0  0  0  0  # atno 3721 bound_to 3712
   -5.2128  -22.8502   10.0923 H   0  0  0  0  0  0  0  0  0  0  0  0  # atno 3767 bound_to 3762
    2.6325  -19.7552    8.3489 H   0  0  0  0  0  0  0  0  0  0  0  0  # atno 3841 bound_to 3832
    3.4252   -9.1178    3.7810 LP  0  0  0  0  0  0  0  0  0  0  0  0  # atno 4297 bound_to 1298
    4.7953   -8.7560    4.5927 LP  0  0  0  0  0  0  0  0  0  0  0  0  # atno 4298 bound_to 1298
    2.1565   -8.5116    7.9429 LP  0  0  0  0  0  0  0  0  0  0  0  0  # atno 4299 bound_to 2456
    0.8713   -8.0596    7.0426 LP  0  0  0  0  0  0  0  0  0  0  0  0  # atno 4300 bound_to 2456
    2.1918   -8.7765    6.0216 LP  0  0  0  0  0  0  0  0  0  0  0  0  # atno 4301 bound_to 2510
    2.2715   -7.4086    5.1333 LP  0  0  0  0  0  0  0  0  0  0  0  0  # atno 4302 bound_to 2510
   -3.4406  -16.6853   14.4582 LP  0  0  0  0  0  0  0  0  0  0  0  0  # atno 4306 bound_to 3712
   -3.2164  -17.3082   12.9654 LP  0  0  0  0  0  0  0  0  0  0  0  0  # atno 4307 bound_to 3712
    2.7851  -21.1258    9.1699 LP  0  0  0  0  0  0  0  0  0  0  0  0  # atno 4314 bound_to 3832
    1.4033  -20.2592    9.2495 LP  0  0  0  0  0  0  0  0  0  0  0  0  # atno 4315 bound_to 3832
   -4.9979  -21.9289   11.4234 LP  0  0  0  0  0  0  0  0  0  0  0  0  # atno 4318 bound_to 3762
   -3.9169  -23.0961   11.0551 LP  0  0  0  0  0  0  0  0  0  0  0  0  # atno 4319 bound_to 3762
   -5.1079   -4.9207    7.7996 LP  0  0  0  0  0  0  0  0  0  0  0  0  # atno 4320 bound_to 2467
   -3.6379   -5.0131    8.5048 LP  0  0  0  0  0  0  0  0  0  0  0  0  # atno 4321 bound_to 2467

> <Gold.Score>
     Score     S(PLP)   S(hbond)     S(cho)   S(metal)  DE(clash)   DE(tors)     intcor
     40.58     -33.84       3.00       0.00       0.00       0.00       1.37       0.48

> <Gold.PLP.Fitness>
40.5807

> <Gold.PLP.PLP>
-33.8357

> <Gold.PLP.part.hbond>
-4.0000

> <Gold.PLP.part.metal>
0.0000

> <Gold.PLP.part.buried>
-5.9880

> <Gold.PLP.part.nonpolar>
-24.6183

> <Gold.PLP.part.repulsive>
0.1059

> <Gold.PLP.ligand.clash>
0.0043

> <Gold.PLP.ligand.torsion>
1.3659

> <Gold.PLP.Chemscore.Hbond>
3.0000

> <Gold.PLP.Chemscore.CHOScore>
0.0000

> <Gold.PLP.Chemscore.Metal>
0.0000

> <Gold.Chemscore.Hbonds>
donor molecule, donor type, donor heavy atom, donor atom, acceptor molecule, acceptor atom, score
      L1  H     8    30       P1  1227  1.00
      L1  H    12    31       P1  1227  1.00
      P1  H  3712  3721       L1    14  1.00

> <Gold.PLP.Chemscore.Internal.Correction>
0.4811

