#       Name:                EN300-1700178_i001
#       Creating user name   fsindt
#       Creation time:       Wed Mar  1 19:51:16 2023


#       File generated by GOLD software.
#

@<TRIPOS>MOLECULE
EN300-1700178_i001|acide_1|mol2|9825|dock7
    31    30     1
SMALL
USER_CHARGES


@<TRIPOS>ATOM
      1 C1          -1.8317 -11.2995   8.9436 C.3            1 <1>                0.0000
      2 C2          -2.0589 -11.0343  10.4333 C.3            1 <1>                0.0000
      3 C3          -1.0382 -10.0087  10.9302 C.3            1 <1>                0.0000
      4 C4          -3.4732 -10.4902  10.6446 C.3            1 <1>                0.0000
      5 O5          -1.9009 -12.2727  11.1748 O.3            1 <1>                0.0000
      6 C6          -0.7538 -12.9532  10.9909 C.2            1 <1>                0.0000
      7 O7           0.1869 -12.4198  10.4367 O.2            1 <1>                0.0000
      8 N8          -0.6489 -14.2260  11.4215 N.am           1 <1>                0.0000
      9 C9           0.5993 -14.9665  11.2213 C.3            1 <1>                0.0000
     10 C10          0.5577 -16.2642  12.0307 C.3            1 <1>                0.0000
     11 C11         -0.4509 -17.2264  11.4001 C.3            1 <1>                0.0000
     12 O12         -0.1169 -17.4336  10.0262 O.3            1 <1>                0.0000
     13 C13         -0.4127 -18.5440  12.1306 C.2            1 <1>                0.0000
     14 O14         -0.0948 -19.5608  11.5377 O.co2          1 <1>                0.0000
     15 O15         -0.6997 -18.5931  13.3146 O.co2          1 <1>               -1.0000
     16 H16         -0.8241 -11.6871   8.7930 H              1 <1>                0.0000
     17 H17         -2.5588 -12.0302   8.5896 H              1 <1>                0.0000
     18 H18         -1.9503 -10.3698   8.3869 H              1 <1>                0.0000
     19 H19         -1.1567  -9.0790  10.3735 H              1 <1>                0.0000
     20 H20         -1.2001  -9.8198  11.9914 H              1 <1>                0.0000
     21 H21         -0.0307 -10.3963  10.7796 H              1 <1>                0.0000
     22 H22         -4.2003 -11.2211  10.2906 H              1 <1>                0.0000
     23 H23         -3.6350 -10.3014  11.7059 H              1 <1>                0.0000
     24 H24         -3.5917  -9.5606  10.0879 H              1 <1>                0.0000
     25 H25          0.7166 -15.2016  10.1635 H              1 <1>                0.0000
     26 H26          1.4401 -14.3578  11.5537 H              1 <1>                0.0000
     27 H27          1.5463 -16.7235  12.0318 H              1 <1>                0.0000
     28 H28          0.2582 -16.0440  13.0554 H              1 <1>                0.0000
     29 H29         -1.4520 -16.8009  11.4705 H              1 <1>                0.0000
     30 H30         -1.3998 -14.6518  11.8639 H              1 <1>                0.0000
     31 H31          0.8177 -17.6294   9.8739 H              1 <1>                0.0000
@<TRIPOS>BOND
    1    1    2 1     
    2    1   16 1     
    3    1   17 1     
    4    1   18 1     
    5    2    3 1     
    6    2    4 1     
    7    2    5 1     
    8    3   19 1     
    9    3   20 1     
   10    3   21 1     
   11    4   22 1     
   12    4   23 1     
   13    4   24 1     
   14    5    6 1     
   15    6    7 2     
   16    6    8 am    
   17    8    9 1     
   18    8   30 1     
   19    9   10 1     
   20    9   25 1     
   21    9   26 1     
   22   10   11 1     
   23   10   27 1     
   24   10   28 1     
   25   11   12 1     
   26   11   13 1     
   27   11   29 1     
   28   12   31 1     
   29   13   14 ar    
   30   13   15 ar    
@<TRIPOS>SUBSTRUCTURE
      1 ****           1
@<TRIPOS>SET
DONOR_HYDROGENS      STATIC     ATOMS    <user>   **** ""
2 30 31
ATOM$RED        STATIC     ATOMS    COLORGROUP SYSTEM
2 30 31
@<TRIPOS>COMMENT
> <Gold.Version>
2022.2.0

> <Gold.Id.Protein>
3pbl|protein|mol2

> <Gold.Protein.RotatedTorsions>
[ 1303 1298 1297 1294 ] final  170.32 input  179.99 | X-H torsion
[ 2461 2456 2455 2452 ] final   71.48 input   30.03 | X-H torsion
[ 2515 2510 2509 2506 ] final   32.31 input  -89.99 | X-H torsion
[ 3721 3712 3711 3710 ] final   32.72 input -179.91 | X-H torsion
[ 3841 3832 3831 3830 ] final  108.19 input -179.91 | X-H torsion
[ 3767 3762 3761 3758 ] final  120.45 input  -89.99 | X-H torsion
[ 2472 2467 2466 2463 ] final  -23.44 input  -89.97 | X-H torsion

> <Gold.Protein.ActiveResidues>
 VAL82   VAL86   LEU89   PHE106  VAL107  ASP110  VAL111  MET112  CYS114  THR115 
 CYS181  SER182  ILE183  PHE188  VAL189  ILE190  SER192  SER193  SER196  TRP342 
 PHE345  PHE346  HIS349  VAL350  TYR365  THR369  GLY372  TYR373 

> <Gold.Protein.RotatedAtoms>
    4.8939   -9.0075    4.7595 H   0  0  0  0  0  0  0  0  0  0  0  0  # atno 1303 bound_to 1298
    2.0269   -8.1182    7.5047 H   0  0  0  0  0  0  0  0  0  0  0  0  # atno 2461 bound_to 2456
   -3.6514   -4.9816    8.4109 H   0  0  0  0  0  0  0  0  0  0  0  0  # atno 2472 bound_to 2467
    2.3164   -7.4178    5.0322 H   0  0  0  0  0  0  0  0  0  0  0  0  # atno 2515 bound_to 2510
   -2.4880  -18.0296   13.7598 H   0  0  0  0  0  0  0  0  0  0  0  0  # atno 3721 bound_to 3712
   -3.9527  -23.1856   10.9099 H   0  0  0  0  0  0  0  0  0  0  0  0  # atno 3767 bound_to 3762
    3.0082  -20.8209    9.0704 H   0  0  0  0  0  0  0  0  0  0  0  0  # atno 3841 bound_to 3832
    3.8782  -10.2673    4.5418 LP  0  0  0  0  0  0  0  0  0  0  0  0  # atno 4297 bound_to 1298
    3.5898   -8.8466    3.7901 LP  0  0  0  0  0  0  0  0  0  0  0  0  # atno 4298 bound_to 1298
    0.4419   -8.4244    7.2572 LP  0  0  0  0  0  0  0  0  0  0  0  0  # atno 4299 bound_to 2456
    1.2692   -9.2654    8.3862 LP  0  0  0  0  0  0  0  0  0  0  0  0  # atno 4300 bound_to 2456
    2.8250   -8.9036    4.5855 LP  0  0  0  0  0  0  0  0  0  0  0  0  # atno 4301 bound_to 2510
    2.1554   -8.6781    6.0577 LP  0  0  0  0  0  0  0  0  0  0  0  0  # atno 4302 bound_to 2510
   -3.2105  -17.0350   14.7927 LP  0  0  0  0  0  0  0  0  0  0  0  0  # atno 4306 bound_to 3712
   -3.4448  -16.8757   13.1844 LP  0  0  0  0  0  0  0  0  0  0  0  0  # atno 4307 bound_to 3712
    1.4759  -20.4650    9.3889 LP  0  0  0  0  0  0  0  0  0  0  0  0  # atno 4314 bound_to 3832
    2.2785  -19.6890    8.1971 LP  0  0  0  0  0  0  0  0  0  0  0  0  # atno 4315 bound_to 3832
   -5.3193  -22.7227   10.1450 LP  0  0  0  0  0  0  0  0  0  0  0  0  # atno 4318 bound_to 3762
   -4.8551  -21.9669   11.5161 LP  0  0  0  0  0  0  0  0  0  0  0  0  # atno 4319 bound_to 3762
   -4.8792   -5.4629    9.3738 LP  0  0  0  0  0  0  0  0  0  0  0  0  # atno 4320 bound_to 2467
   -5.1862   -4.9491    7.8544 LP  0  0  0  0  0  0  0  0  0  0  0  0  # atno 4321 bound_to 2467

> <Gold.Score>
     Score     S(PLP)   S(hbond)     S(cho)   S(metal)  DE(clash)   DE(tors)     intcor
     41.78     -35.86       2.00       0.00       0.00       0.05       0.29       0.56

> <Gold.PLP.Fitness>
41.7783

> <Gold.PLP.PLP>
-35.8551

> <Gold.PLP.part.hbond>
-2.0000

> <Gold.PLP.part.metal>
0.0000

> <Gold.PLP.part.buried>
-2.8231

> <Gold.PLP.part.nonpolar>
-31.9710

> <Gold.PLP.part.repulsive>
0.1706

> <Gold.PLP.ligand.clash>
0.0522

> <Gold.PLP.ligand.torsion>
0.2899

> <Gold.PLP.Chemscore.Hbond>
2.0000

> <Gold.PLP.Chemscore.CHOScore>
0.0000

> <Gold.PLP.Chemscore.Metal>
0.0000

> <Gold.Chemscore.Hbonds>
donor molecule, donor type, donor heavy atom, donor atom, acceptor molecule, acceptor atom, score
      L1  H    12    31       P1  1227  1.00
      P1  H  3712  3721       L1    15  1.00

> <Gold.PLP.Chemscore.Internal.Correction>
0.5551

