#       Name:                EN300-1700178_i001
#       Creating user name   fsindt
#       Creation time:       Wed Mar  1 19:51:33 2023


#       File generated by GOLD software.
#

@<TRIPOS>MOLECULE
EN300-1700178_i001|acide_1|mol2|9825|dock18
    31    30     1
SMALL
USER_CHARGES


@<TRIPOS>ATOM
      1 C1           0.6617 -16.8742  13.6714 C.3            1 <1>                0.0000
      2 C2           0.7587 -18.3879  13.8725 C.3            1 <1>                0.0000
      3 C3           2.0035 -18.7137  14.7002 C.3            1 <1>                0.0000
      4 C4          -0.4874 -18.8856  14.6078 C.3            1 <1>                0.0000
      5 O5           0.8519 -19.0428  12.5799 O.3            1 <1>                0.0000
      6 C6          -0.0695 -18.7080  11.6571 C.2            1 <1>                0.0000
      7 O7          -1.1116 -18.1859  12.0007 O.2            1 <1>                0.0000
      8 N8           0.1639 -18.9520  10.3524 N.am           1 <1>                0.0000
      9 C9          -0.8387 -18.5876   9.3482 C.3            1 <1>                0.0000
     10 C10         -0.2097 -17.6489   8.3167 C.3            1 <1>                0.0000
     11 C11         -0.4037 -16.1982   8.7622 C.3            1 <1>                0.0000
     12 O12          0.2378 -15.9972  10.0232 O.3            1 <1>                0.0000
     13 C13          0.2010 -15.2729   7.7377 C.2            1 <1>                0.0000
     14 O14          1.3885 -15.3497   7.4725 O.co2          1 <1>                0.0000
     15 O15         -0.4975 -14.4476   7.1742 O.co2          1 <1>               -1.0000
     16 H16          1.5494 -16.5196  13.1476 H              1 <1>                0.0000
     17 H17         -0.2251 -16.6422  13.0817 H              1 <1>                0.0000
     18 H18          0.5917 -16.3826  14.6417 H              1 <1>                0.0000
     19 H19          1.9336 -18.2220  15.6705 H              1 <1>                0.0000
     20 H20          2.0725 -19.7920  14.8435 H              1 <1>                0.0000
     21 H21          2.8912 -18.3591  14.1764 H              1 <1>                0.0000
     22 H22         -1.3742 -18.6535  14.0180 H              1 <1>                0.0000
     23 H23         -0.4183 -19.9639  14.7510 H              1 <1>                0.0000
     24 H24         -0.5573 -18.3939  15.5780 H              1 <1>                0.0000
     25 H25         -1.1970 -19.4881   8.8492 H              1 <1>                0.0000
     26 H26         -1.6744 -18.0849   9.8350 H              1 <1>                0.0000
     27 H27          0.8556 -17.8636   8.2320 H              1 <1>                0.0000
     28 H28         -0.6886 -17.7991   7.3491 H              1 <1>                0.0000
     29 H29         -1.4688 -15.9871   8.8586 H              1 <1>                0.0000
     30 H30          0.9958 -19.3687  10.0782 H              1 <1>                0.0000
     31 H31          1.0607 -16.4939  10.1294 H              1 <1>                0.0000
@<TRIPOS>BOND
    1    1    2 1     
    2    1   16 1     
    3    1   17 1     
    4    1   18 1     
    5    2    3 1     
    6    2    4 1     
    7    2    5 1     
    8    3   19 1     
    9    3   20 1     
   10    3   21 1     
   11    4   22 1     
   12    4   23 1     
   13    4   24 1     
   14    5    6 1     
   15    6    7 2     
   16    6    8 am    
   17    8    9 1     
   18    8   30 1     
   19    9   10 1     
   20    9   25 1     
   21    9   26 1     
   22   10   11 1     
   23   10   27 1     
   24   10   28 1     
   25   11   12 1     
   26   11   13 1     
   27   11   29 1     
   28   12   31 1     
   29   13   14 ar    
   30   13   15 ar    
@<TRIPOS>SUBSTRUCTURE
      1 ****           1
@<TRIPOS>SET
DONOR_HYDROGENS      STATIC     ATOMS    <user>   **** ""
2 30 31
ATOM$RED        STATIC     ATOMS    COLORGROUP SYSTEM
2 30 31
@<TRIPOS>COMMENT
> <Gold.Version>
2022.2.0

> <Gold.Id.Protein>
3pbl|protein|mol2

> <Gold.Protein.RotatedTorsions>
[ 1303 1298 1297 1294 ] final  149.79 input  179.99 | X-H torsion
[ 2461 2456 2455 2452 ] final   82.69 input   30.03 | X-H torsion
[ 2515 2510 2509 2506 ] final   56.47 input  -89.99 | X-H torsion
[ 3721 3712 3711 3710 ] final   63.04 input -179.91 | X-H torsion
[ 3841 3832 3831 3830 ] final  177.56 input -179.91 | X-H torsion
[ 3767 3762 3761 3758 ] final   19.62 input  -89.99 | X-H torsion
[ 2472 2467 2466 2463 ] final -125.81 input  -89.97 | X-H torsion

> <Gold.Protein.ActiveResidues>
 VAL82   VAL86   LEU89   PHE106  VAL107  ASP110  VAL111  MET112  CYS114  THR115 
 CYS181  SER182  ILE183  PHE188  VAL189  ILE190  SER192  SER193  SER196  TRP342 
 PHE345  PHE346  HIS349  VAL350  TYR365  THR369  GLY372  TYR373 

> <Gold.Protein.RotatedAtoms>
    4.9032   -9.3183    4.8865 H   0  0  0  0  0  0  0  0  0  0  0  0  # atno 1303 bound_to 1298
    2.1049   -8.2219    7.6355 H   0  0  0  0  0  0  0  0  0  0  0  0  # atno 2461 bound_to 2456
   -4.5964   -5.4536    9.4320 H   0  0  0  0  0  0  0  0  0  0  0  0  # atno 2472 bound_to 2467
    2.1684   -7.4447    5.3968 H   0  0  0  0  0  0  0  0  0  0  0  0  # atno 2515 bound_to 2510
   -2.6077  -17.8847   13.3477 H   0  0  0  0  0  0  0  0  0  0  0  0  # atno 3721 bound_to 3712
   -5.1142  -22.9480   10.0691 H   0  0  0  0  0  0  0  0  0  0  0  0  # atno 3767 bound_to 3762
    2.9783  -20.0780    8.4238 H   0  0  0  0  0  0  0  0  0  0  0  0  # atno 3841 bound_to 3832
    3.6295  -10.1780    4.3343 LP  0  0  0  0  0  0  0  0  0  0  0  0  # atno 4297 bound_to 1298
    3.8292   -8.6250    3.8705 LP  0  0  0  0  0  0  0  0  0  0  0  0  # atno 4298 bound_to 1298
    0.5422   -8.2990    7.1670 LP  0  0  0  0  0  0  0  0  0  0  0  0  # atno 4299 bound_to 2456
    1.0909   -9.2872    8.3456 LP  0  0  0  0  0  0  0  0  0  0  0  0  # atno 4300 bound_to 2456
    2.8286   -8.5558    4.3991 LP  0  0  0  0  0  0  0  0  0  0  0  0  # atno 4301 bound_to 2510
    2.2998   -8.9990    5.8792 LP  0  0  0  0  0  0  0  0  0  0  0  0  # atno 4302 bound_to 2510
   -2.9593  -17.4635   14.8565 LP  0  0  0  0  0  0  0  0  0  0  0  0  # atno 4306 bound_to 3712
   -3.5578  -16.6146   13.5964 LP  0  0  0  0  0  0  0  0  0  0  0  0  # atno 4307 bound_to 3712
    2.3366  -21.1304    9.4517 LP  0  0  0  0  0  0  0  0  0  0  0  0  # atno 4314 bound_to 3832
    1.4524  -19.8817    8.8811 LP  0  0  0  0  0  0  0  0  0  0  0  0  # atno 4315 bound_to 3832
   -5.1062  -21.9156   11.3344 LP  0  0  0  0  0  0  0  0  0  0  0  0  # atno 4318 bound_to 3762
   -3.9072  -23.0116   11.1673 LP  0  0  0  0  0  0  0  0  0  0  0  0  # atno 4319 bound_to 3762
   -5.3721   -5.0419    8.0553 LP  0  0  0  0  0  0  0  0  0  0  0  0  # atno 4320 bound_to 2467
   -3.7484   -4.8981    8.1519 LP  0  0  0  0  0  0  0  0  0  0  0  0  # atno 4321 bound_to 2467

> <Gold.Score>
     Score     S(PLP)   S(hbond)     S(cho)   S(metal)  DE(clash)   DE(tors)     intcor
     41.36     -33.61       2.78       0.00       0.00       0.00       0.54       0.48

> <Gold.PLP.Fitness>
41.3583

> <Gold.PLP.PLP>
-33.6085

> <Gold.PLP.part.hbond>
-4.0000

> <Gold.PLP.part.metal>
0.0000

> <Gold.PLP.part.buried>
-4.5075

> <Gold.PLP.part.nonpolar>
-26.4281

> <Gold.PLP.part.repulsive>
0.3469

> <Gold.PLP.ligand.clash>
0.0000

> <Gold.PLP.ligand.torsion>
0.5357

> <Gold.PLP.Chemscore.Hbond>
2.7800

> <Gold.PLP.Chemscore.CHOScore>
0.0000

> <Gold.PLP.Chemscore.Metal>
0.0000

> <Gold.Chemscore.Hbonds>
donor molecule, donor type, donor heavy atom, donor atom, acceptor molecule, acceptor atom, score
      L1  H     8    30       P1  3832  0.78
      L1  H    12    31       P1  1227  1.00
      P1  H  3712  3721       L1     7  1.00

> <Gold.PLP.Chemscore.Internal.Correction>
0.4811

