#       Name:                EN300-1700178_i001
#       Creating user name   fsindt
#       Creation time:       Wed Mar  1 19:51:36 2023


#       File generated by GOLD software.
#

@<TRIPOS>MOLECULE
EN300-1700178_i001|acide_1|mol2|9825|dock20
    31    30     1
SMALL
USER_CHARGES


@<TRIPOS>ATOM
      1 C1           1.4608 -13.4736   6.7634 C.3            1 <1>                0.0000
      2 C2           0.6478 -13.4123   8.0582 C.3            1 <1>                0.0000
      3 C3           0.6988 -11.9923   8.6256 C.3            1 <1>                0.0000
      4 C4          -0.8051 -13.7933   7.7669 C.3            1 <1>                0.0000
      5 O5           1.2070 -14.3401   9.0251 O.3            1 <1>                0.0000
      6 C6           0.5029 -14.5444  10.1543 C.2            1 <1>                0.0000
      7 O7          -0.3207 -13.7262  10.5131 O.2            1 <1>                0.0000
      8 N8           0.7117 -15.6563  10.8868 N.am           1 <1>                0.0000
      9 C9          -0.0545 -15.8786  12.1156 C.3            1 <1>                0.0000
     10 C10          0.8851 -15.8133  13.3213 C.3            1 <1>                0.0000
     11 C11          1.3893 -17.2195  13.6516 C.3            1 <1>                0.0000
     12 O12          2.3577 -17.1443  14.6998 O.3            1 <1>                0.0000
     13 C13          0.2323 -18.0763  14.0971 C.2            1 <1>                0.0000
     14 O14         -0.7126 -18.2614  13.3492 O.co2          1 <1>                0.0000
     15 O15          0.2413 -18.5844  15.2054 O.co2          1 <1>               -1.0000
     16 H16          2.4958 -13.2021   6.9710 H              1 <1>                0.0000
     17 H17          1.4244 -14.4852   6.3593 H              1 <1>                0.0000
     18 H18          1.0410 -12.7771   6.0376 H              1 <1>                0.0000
     19 H19          0.2791 -11.2957   7.8997 H              1 <1>                0.0000
     20 H20          0.1197 -11.9486   9.5480 H              1 <1>                0.0000
     21 H21          1.7338 -11.7209   8.8332 H              1 <1>                0.0000
     22 H22         -0.8412 -14.8050   7.3627 H              1 <1>                0.0000
     23 H23         -1.3841 -13.7496   8.6893 H              1 <1>                0.0000
     24 H24         -1.2247 -13.0968   7.0410 H              1 <1>                0.0000
     25 H25         -0.8208 -15.1092  12.2100 H              1 <1>                0.0000
     26 H26         -0.5275 -16.8598  12.0763 H              1 <1>                0.0000
     27 H27          1.7326 -15.1691  13.0870 H              1 <1>                0.0000
     28 H28          0.3477 -15.4090  14.1792 H              1 <1>                0.0000
     29 H29          1.8468 -17.6590  12.7652 H              1 <1>                0.0000
     30 H30          1.3691 -16.3094  10.6003 H              1 <1>                0.0000
     31 H31          2.0380 -16.7051  15.4998 H              1 <1>                0.0000
@<TRIPOS>BOND
    1    1    2 1     
    2    1   16 1     
    3    1   17 1     
    4    1   18 1     
    5    2    3 1     
    6    2    4 1     
    7    2    5 1     
    8    3   19 1     
    9    3   20 1     
   10    3   21 1     
   11    4   22 1     
   12    4   23 1     
   13    4   24 1     
   14    5    6 1     
   15    6    7 2     
   16    6    8 am    
   17    8    9 1     
   18    8   30 1     
   19    9   10 1     
   20    9   25 1     
   21    9   26 1     
   22   10   11 1     
   23   10   27 1     
   24   10   28 1     
   25   11   12 1     
   26   11   13 1     
   27   11   29 1     
   28   12   31 1     
   29   13   14 ar    
   30   13   15 ar    
@<TRIPOS>SUBSTRUCTURE
      1 ****           1
@<TRIPOS>SET
DONOR_HYDROGENS      STATIC     ATOMS    <user>   **** ""
2 30 31
ATOM$RED        STATIC     ATOMS    COLORGROUP SYSTEM
2 30 31
@<TRIPOS>COMMENT
> <Gold.Version>
2022.2.0

> <Gold.Id.Protein>
3pbl|protein|mol2

> <Gold.Protein.RotatedTorsions>
[ 1303 1298 1297 1294 ] final   41.71 input  179.99 | X-H torsion
[ 2461 2456 2455 2452 ] final  -71.67 input   30.03 | X-H torsion
[ 2515 2510 2509 2506 ] final  -82.12 input  -89.99 | X-H torsion
[ 3721 3712 3711 3710 ] final   20.75 input -179.91 | X-H torsion
[ 3841 3832 3831 3830 ] final  -43.26 input -179.91 | X-H torsion
[ 3767 3762 3761 3758 ] final  144.42 input  -89.99 | X-H torsion
[ 2472 2467 2466 2463 ] final  -54.82 input  -89.97 | X-H torsion

> <Gold.Protein.ActiveResidues>
 VAL82   VAL86   LEU89   PHE106  VAL107  ASP110  VAL111  MET112  CYS114  THR115 
 CYS181  SER182  ILE183  PHE188  VAL189  ILE190  SER192  SER193  SER196  TRP342 
 PHE345  PHE346  HIS349  VAL350  TYR365  THR369  GLY372  TYR373 

> <Gold.Protein.RotatedAtoms>
    3.7680  -10.2430    4.4565 H   0  0  0  0  0  0  0  0  0  0  0  0  # atno 1303 bound_to 1298
    0.3344   -8.6991    7.4941 H   0  0  0  0  0  0  0  0  0  0  0  0  # atno 2461 bound_to 2456
   -3.6938   -5.1580    8.8874 H   0  0  0  0  0  0  0  0  0  0  0  0  # atno 2472 bound_to 2467
    2.8322   -8.8300    4.5314 H   0  0  0  0  0  0  0  0  0  0  0  0  # atno 2515 bound_to 2510
   -2.4713  -18.0309   13.9398 H   0  0  0  0  0  0  0  0  0  0  0  0  # atno 3721 bound_to 3712
   -3.9090  -22.9599   11.2270 H   0  0  0  0  0  0  0  0  0  0  0  0  # atno 3767 bound_to 3762
    1.5634  -19.9797    9.2119 H   0  0  0  0  0  0  0  0  0  0  0  0  # atno 3841 bound_to 3832
    3.6837   -8.7436    3.8154 LP  0  0  0  0  0  0  0  0  0  0  0  0  # atno 4297 bound_to 1298
    4.9106   -9.1345    4.8197 LP  0  0  0  0  0  0  0  0  0  0  0  0  # atno 4298 bound_to 1298
    1.6270   -9.1427    8.3884 LP  0  0  0  0  0  0  0  0  0  0  0  0  # atno 4299 bound_to 2456
    1.7761   -7.9665    7.2655 LP  0  0  0  0  0  0  0  0  0  0  0  0  # atno 4300 bound_to 2456
    2.1851   -8.7597    6.0287 LP  0  0  0  0  0  0  0  0  0  0  0  0  # atno 4301 bound_to 2510
    2.2792   -7.4092    5.1155 LP  0  0  0  0  0  0  0  0  0  0  0  0  # atno 4302 bound_to 2510
   -3.3041  -16.8864   14.6976 LP  0  0  0  0  0  0  0  0  0  0  0  0  # atno 4306 bound_to 3712
   -3.3704  -17.0230   13.0717 LP  0  0  0  0  0  0  0  0  0  0  0  0  # atno 4307 bound_to 3712
    2.7663  -19.9730    8.1493 LP  0  0  0  0  0  0  0  0  0  0  0  0  # atno 4314 bound_to 3832
    2.6572  -21.1527    9.2732 LP  0  0  0  0  0  0  0  0  0  0  0  0  # atno 4315 bound_to 3832
   -5.0551  -23.0003   10.0644 LP  0  0  0  0  0  0  0  0  0  0  0  0  # atno 4318 bound_to 3762
   -5.1630  -21.9150   11.2798 LP  0  0  0  0  0  0  0  0  0  0  0  0  # atno 4319 bound_to 3762
   -5.2957   -5.4048    9.0855 LP  0  0  0  0  0  0  0  0  0  0  0  0  # atno 4320 bound_to 2467
   -4.7273   -4.8308    7.6663 LP  0  0  0  0  0  0  0  0  0  0  0  0  # atno 4321 bound_to 2467

> <Gold.Score>
     Score     S(PLP)   S(hbond)     S(cho)   S(metal)  DE(clash)   DE(tors)     intcor
     40.73     -35.45       2.00       0.00       0.00       0.00       0.60       0.48

> <Gold.PLP.Fitness>
40.7269

> <Gold.PLP.PLP>
-35.4456

> <Gold.PLP.part.hbond>
-2.0000

> <Gold.PLP.part.metal>
0.0000

> <Gold.PLP.part.buried>
-6.9314

> <Gold.PLP.part.nonpolar>
-27.0361

> <Gold.PLP.part.repulsive>
0.1910

> <Gold.PLP.ligand.clash>
0.0000

> <Gold.PLP.ligand.torsion>
0.5999

> <Gold.PLP.Chemscore.Hbond>
2.0000

> <Gold.PLP.Chemscore.CHOScore>
0.0000

> <Gold.PLP.Chemscore.Metal>
0.0000

> <Gold.Chemscore.Hbonds>
donor molecule, donor type, donor heavy atom, donor atom, acceptor molecule, acceptor atom, score
      L1  H     8    30       P1  1227  1.00
      P1  H  3712  3721       L1    14  1.00

> <Gold.PLP.Chemscore.Internal.Correction>
0.4811

