#       Name:                EN300-1700178_i001
#       Creating user name   fsindt
#       Creation time:       Wed Mar  1 19:51:19 2023


#       File generated by GOLD software.
#

@<TRIPOS>MOLECULE
EN300-1700178_i001|acide_1|mol2|9825|dock9
    31    30     1
SMALL
USER_CHARGES


@<TRIPOS>ATOM
      1 C1           0.9239 -21.0037  12.4167 C.3            1 <1>                0.0000
      2 C2           0.1869 -19.6913  12.6918 C.3            1 <1>                0.0000
      3 C3          -1.2965 -19.9798  12.9307 C.3            1 <1>                0.0000
      4 C4           0.7825 -19.0221  13.9321 C.3            1 <1>                0.0000
      5 O5           0.3300 -18.8072  11.5489 O.3            1 <1>                0.0000
      6 C6          -0.0768 -17.5335  11.7066 C.2            1 <1>                0.0000
      7 O7          -0.9833 -17.2758  12.4735 O.2            1 <1>                0.0000
      8 N8           0.5216 -16.5444  11.0137 N.am           1 <1>                0.0000
      9 C9           0.0789 -15.1584  11.1853 C.3            1 <1>                0.0000
     10 C10         -0.1154 -14.5114   9.8125 C.3            1 <1>                0.0000
     11 C11          1.1609 -13.7677   9.4140 C.3            1 <1>                0.0000
     12 O12          2.1117 -14.6985   8.8928 O.3            1 <1>                0.0000
     13 C13          0.8353 -12.7395   8.3614 C.2            1 <1>                0.0000
     14 O14          1.0212 -11.5559   8.5871 O.co2          1 <1>                0.0000
     15 O15          0.3860 -13.0915   7.2839 O.co2          1 <1>               -1.0000
     16 H16          0.4995 -21.4805  11.5332 H              1 <1>                0.0000
     17 H17          1.9807 -20.7981  12.2465 H              1 <1>                0.0000
     18 H18          0.8164 -21.6674  13.2747 H              1 <1>                0.0000
     19 H19         -1.4040 -20.6436  13.7886 H              1 <1>                0.0000
     20 H20         -1.8215 -19.0450  13.1266 H              1 <1>                0.0000
     21 H21         -1.7208 -20.4566  12.0471 H              1 <1>                0.0000
     22 H22          1.8394 -18.8165  13.7618 H              1 <1>                0.0000
     23 H23          0.2575 -18.0872  14.1280 H              1 <1>                0.0000
     24 H24          0.6751 -19.6858  14.7900 H              1 <1>                0.0000
     25 H25         -0.8646 -15.1433  11.7308 H              1 <1>                0.0000
     26 H26          0.8314 -14.6033  11.7453 H              1 <1>                0.0000
     27 H27         -0.3314 -15.2836   9.0742 H              1 <1>                0.0000
     28 H28         -0.9470 -13.8081   9.8567 H              1 <1>                0.0000
     29 H29          1.5805 -13.2713  10.2892 H              1 <1>                0.0000
     30 H30          1.2453 -16.7501  10.4015 H              1 <1>                0.0000
     31 H31          2.1053 -15.5575   9.3370 H              1 <1>                0.0000
@<TRIPOS>BOND
    1    1    2 1     
    2    1   16 1     
    3    1   17 1     
    4    1   18 1     
    5    2    3 1     
    6    2    4 1     
    7    2    5 1     
    8    3   19 1     
    9    3   20 1     
   10    3   21 1     
   11    4   22 1     
   12    4   23 1     
   13    4   24 1     
   14    5    6 1     
   15    6    7 2     
   16    6    8 am    
   17    8    9 1     
   18    8   30 1     
   19    9   10 1     
   20    9   25 1     
   21    9   26 1     
   22   10   11 1     
   23   10   27 1     
   24   10   28 1     
   25   11   12 1     
   26   11   13 1     
   27   11   29 1     
   28   12   31 1     
   29   13   14 ar    
   30   13   15 ar    
@<TRIPOS>SUBSTRUCTURE
      1 ****           1
@<TRIPOS>SET
DONOR_HYDROGENS      STATIC     ATOMS    <user>   **** ""
2 30 31
ATOM$RED        STATIC     ATOMS    COLORGROUP SYSTEM
2 30 31
@<TRIPOS>COMMENT
> <Gold.Version>
2022.2.0

> <Gold.Id.Protein>
3pbl|protein|mol2

> <Gold.Protein.RotatedTorsions>
[ 1303 1298 1297 1294 ] final  -81.11 input  179.99 | X-H torsion
[ 2461 2456 2455 2452 ] final -155.16 input   30.03 | X-H torsion
[ 2515 2510 2509 2506 ] final   38.82 input  -89.99 | X-H torsion
[ 3721 3712 3711 3710 ] final   82.48 input -179.91 | X-H torsion
[ 3841 3832 3831 3830 ] final  123.29 input -179.91 | X-H torsion
[ 3767 3762 3761 3758 ] final  148.75 input  -89.99 | X-H torsion
[ 2472 2467 2466 2463 ] final  126.36 input  -89.97 | X-H torsion

> <Gold.Protein.ActiveResidues>
 VAL82   VAL86   LEU89   PHE106  VAL107  ASP110  VAL111  MET112  CYS114  THR115 
 CYS181  SER182  ILE183  PHE188  VAL189  ILE190  SER192  SER193  SER196  TRP342 
 PHE345  PHE346  HIS349  VAL350  TYR365  THR369  GLY372  TYR373 

> <Gold.Protein.RotatedAtoms>
    3.7165   -8.7129    3.8269 H   0  0  0  0  0  0  0  0  0  0  0  0  # atno 1303 bound_to 1298
    1.0570   -9.2885    8.3352 H   0  0  0  0  0  0  0  0  0  0  0  0  # atno 2461 bound_to 2456
   -5.4573   -5.1121    8.2218 H   0  0  0  0  0  0  0  0  0  0  0  0  # atno 2472 bound_to 2467
    2.2733   -7.4090    5.1298 H   0  0  0  0  0  0  0  0  0  0  0  0  # atno 2515 bound_to 2510
   -2.7302  -17.7006   13.1564 H   0  0  0  0  0  0  0  0  0  0  0  0  # atno 3721 bound_to 3712
   -3.9160  -22.9116   11.2790 H   0  0  0  0  0  0  0  0  0  0  0  0  # atno 3767 bound_to 3762
    3.0962  -20.6946    8.9029 H   0  0  0  0  0  0  0  0  0  0  0  0  # atno 3841 bound_to 3832
    4.9121   -9.1775    4.8374 LP  0  0  0  0  0  0  0  0  0  0  0  0  # atno 4297 bound_to 1298
    3.7338  -10.2312    4.4275 LP  0  0  0  0  0  0  0  0  0  0  0  0  # atno 4298 bound_to 1298
    2.1160   -8.2437    7.6611 LP  0  0  0  0  0  0  0  0  0  0  0  0  # atno 4299 bound_to 2456
    0.5647   -8.2761    7.1520 LP  0  0  0  0  0  0  0  0  0  0  0  0  # atno 4300 bound_to 2456
    2.8330   -8.8174    4.5224 LP  0  0  0  0  0  0  0  0  0  0  0  0  # atno 4301 bound_to 2510
    2.1905   -8.7732    6.0230 LP  0  0  0  0  0  0  0  0  0  0  0  0  # atno 4302 bound_to 2510
   -2.8126  -17.7346   14.7595 LP  0  0  0  0  0  0  0  0  0  0  0  0  # atno 4306 bound_to 3712
   -3.5630  -16.5561   13.9143 LP  0  0  0  0  0  0  0  0  0  0  0  0  # atno 4307 bound_to 3712
    1.6013  -20.6603    9.4860 LP  0  0  0  0  0  0  0  0  0  0  0  0  # atno 4314 bound_to 3832
    2.0514  -19.6396    8.2934 LP  0  0  0  0  0  0  0  0  0  0  0  0  # atno 4315 bound_to 3832
   -4.9994  -23.0448   10.0644 LP  0  0  0  0  0  0  0  0  0  0  0  0  # atno 4318 bound_to 3762
   -5.2116  -21.9188   11.2278 LP  0  0  0  0  0  0  0  0  0  0  0  0  # atno 4319 bound_to 3762
   -3.8613   -4.8533    7.9932 LP  0  0  0  0  0  0  0  0  0  0  0  0  # atno 4320 bound_to 2467
   -4.3985   -5.4281    9.4241 LP  0  0  0  0  0  0  0  0  0  0  0  0  # atno 4321 bound_to 2467

> <Gold.Score>
     Score     S(PLP)   S(hbond)     S(cho)   S(metal)  DE(clash)   DE(tors)     intcor
     37.46     -28.69       3.40       0.00       0.00       0.00       0.96       0.48

> <Gold.PLP.Fitness>
37.4566

> <Gold.PLP.PLP>
-28.6897

> <Gold.PLP.part.hbond>
-3.5023

> <Gold.PLP.part.metal>
0.0000

> <Gold.PLP.part.buried>
-6.0520

> <Gold.PLP.part.nonpolar>
-19.1041

> <Gold.PLP.part.repulsive>
0.1634

> <Gold.PLP.ligand.clash>
0.0000

> <Gold.PLP.ligand.torsion>
0.9578

> <Gold.PLP.Chemscore.Hbond>
3.4005

> <Gold.PLP.Chemscore.CHOScore>
0.0000

> <Gold.PLP.Chemscore.Metal>
0.0000

> <Gold.Chemscore.Hbonds>
donor molecule, donor type, donor heavy atom, donor atom, acceptor molecule, acceptor atom, score
      L1  H     8    30       P1  1227  1.00
      L1  H    12    31       P1  1227  1.00
      P1  H  2456  2461       L1    14  0.55
      P1  H  3712  3721       L1     7  0.85

> <Gold.PLP.Chemscore.Internal.Correction>
0.4811

