#       Name:                EN300-1700178_i001
#       Creating user name   fsindt
#       Creation time:       Wed Mar  1 19:51:23 2023


#       File generated by GOLD software.
#

@<TRIPOS>MOLECULE
EN300-1700178_i001|acide_1|mol2|9825|dock12
    31    30     1
SMALL
USER_CHARGES


@<TRIPOS>ATOM
      1 C1           0.9897 -11.7569   8.7359 C.3            1 <1>                0.0000
      2 C2           0.7566 -13.0780   8.0000 C.3            1 <1>                0.0000
      3 C3          -0.7467 -13.3318   7.8715 C.3            1 <1>                0.0000
      4 C4           1.3821 -13.0025   6.6057 C.3            1 <1>                0.0000
      5 O5           1.3684 -14.1625   8.7469 O.3            1 <1>                0.0000
      6 C6           0.8804 -14.4088   9.9773 C.2            1 <1>                0.0000
      7 O7           0.0758 -13.6466  10.4756 O.2            1 <1>                0.0000
      8 N8           1.2843 -15.5007  10.6563 N.am           1 <1>                0.0000
      9 C9           0.7533 -15.7688  11.9952 C.3            1 <1>                0.0000
     10 C10         -0.6947 -16.2498  11.8826 C.3            1 <1>                0.0000
     11 C11         -0.7147 -17.6926  11.3739 C.3            1 <1>                0.0000
     12 O12          0.0019 -17.7727  10.1402 O.3            1 <1>                0.0000
     13 C13         -0.0643 -18.5933  12.3922 C.2            1 <1>                0.0000
     14 O14         -0.5555 -18.7138  13.5015 O.co2          1 <1>                0.0000
     15 O15          0.9530 -19.2015  12.1065 O.co2          1 <1>               -1.0000
     16 H16          0.5441 -11.8107   9.7291 H              1 <1>                0.0000
     17 H17          2.0607 -11.5761   8.8274 H              1 <1>                0.0000
     18 H18          0.5304 -10.9428   8.1751 H              1 <1>                0.0000
     19 H19         -1.2061 -12.5176   7.3109 H              1 <1>                0.0000
     20 H20         -0.9128 -14.2729   7.3473 H              1 <1>                0.0000
     21 H21         -1.1923 -13.3856   8.8648 H              1 <1>                0.0000
     22 H22          2.4531 -12.8217   6.6974 H              1 <1>                0.0000
     23 H23          1.2160 -13.9437   6.0815 H              1 <1>                0.0000
     24 H24          0.9228 -12.1884   6.0451 H              1 <1>                0.0000
     25 H25          1.3555 -16.5388  12.4774 H              1 <1>                0.0000
     26 H26          0.7876 -14.8555  12.5892 H              1 <1>                0.0000
     27 H27         -1.1702 -16.2033  12.8623 H              1 <1>                0.0000
     28 H28         -1.2366 -15.6110  11.1851 H              1 <1>                0.0000
     29 H29         -1.7462 -18.0079  11.2161 H              1 <1>                0.0000
     30 H30          1.9266 -16.1091  10.2585 H              1 <1>                0.0000
     31 H31          0.9546 -17.9006  10.2464 H              1 <1>                0.0000
@<TRIPOS>BOND
    1    1    2 1     
    2    1   16 1     
    3    1   17 1     
    4    1   18 1     
    5    2    3 1     
    6    2    4 1     
    7    2    5 1     
    8    3   19 1     
    9    3   20 1     
   10    3   21 1     
   11    4   22 1     
   12    4   23 1     
   13    4   24 1     
   14    5    6 1     
   15    6    7 2     
   16    6    8 am    
   17    8    9 1     
   18    8   30 1     
   19    9   10 1     
   20    9   25 1     
   21    9   26 1     
   22   10   11 1     
   23   10   27 1     
   24   10   28 1     
   25   11   12 1     
   26   11   13 1     
   27   11   29 1     
   28   12   31 1     
   29   13   14 ar    
   30   13   15 ar    
@<TRIPOS>SUBSTRUCTURE
      1 ****           1
@<TRIPOS>SET
DONOR_HYDROGENS      STATIC     ATOMS    <user>   **** ""
2 30 31
ATOM$RED        STATIC     ATOMS    COLORGROUP SYSTEM
2 30 31
@<TRIPOS>COMMENT
> <Gold.Version>
2022.2.0

> <Gold.Id.Protein>
3pbl|protein|mol2

> <Gold.Protein.RotatedTorsions>
[ 1303 1298 1297 1294 ] final   -9.03 input  179.99 | X-H torsion
[ 2461 2456 2455 2452 ] final -128.52 input   30.03 | X-H torsion
[ 2515 2510 2509 2506 ] final   70.22 input  -89.99 | X-H torsion
[ 3721 3712 3711 3710 ] final   30.58 input -179.91 | X-H torsion
[ 3841 3832 3831 3830 ] final   75.97 input -179.91 | X-H torsion
[ 3767 3762 3761 3758 ] final  164.53 input  -89.99 | X-H torsion
[ 2472 2467 2466 2463 ] final   57.30 input  -89.97 | X-H torsion

> <Gold.Protein.ActiveResidues>
 VAL82   VAL86   LEU89   PHE106  VAL107  ASP110  VAL111  MET112  CYS114  THR115 
 CYS181  SER182  ILE183  PHE188  VAL189  ILE190  SER192  SER193  SER196  TRP342 
 PHE345  PHE346  HIS349  VAL350  TYR365  THR369  GLY372  TYR373 

> <Gold.Protein.RotatedAtoms>
    3.3491   -9.7492    3.9737 H   0  0  0  0  0  0  0  0  0  0  0  0  # atno 1303 bound_to 1298
    0.6754   -9.2241    8.1377 H   0  0  0  0  0  0  0  0  0  0  0  0  # atno 2461 bound_to 2456
   -4.5989   -4.8147    7.6587 H   0  0  0  0  0  0  0  0  0  0  0  0  # atno 2472 bound_to 2467
    2.1034   -7.5310    5.5949 H   0  0  0  0  0  0  0  0  0  0  0  0  # atno 2515 bound_to 2510
   -2.4837  -18.0323   13.7919 H   0  0  0  0  0  0  0  0  0  0  0  0  # atno 3721 bound_to 3712
   -3.9792  -22.7240   11.4457 H   0  0  0  0  0  0  0  0  0  0  0  0  # atno 3767 bound_to 3762
    2.6797  -20.9551    9.3940 H   0  0  0  0  0  0  0  0  0  0  0  0  # atno 3841 bound_to 3832
    4.3549   -8.4793    4.1793 LP  0  0  0  0  0  0  0  0  0  0  0  0  # atno 4297 bound_to 1298
    4.6585   -9.8927    4.9387 LP  0  0  0  0  0  0  0  0  0  0  0  0  # atno 4298 bound_to 1298
    2.1511   -8.5438    7.9731 LP  0  0  0  0  0  0  0  0  0  0  0  0  # atno 4299 bound_to 2456
    0.9111   -8.0404    7.0374 LP  0  0  0  0  0  0  0  0  0  0  0  0  # atno 4300 bound_to 2456
    2.7992   -8.3361    4.3566 LP  0  0  0  0  0  0  0  0  0  0  0  0  # atno 4301 bound_to 2510
    2.3943   -9.1324    5.7235 LP  0  0  0  0  0  0  0  0  0  0  0  0  # atno 4302 bound_to 2510
   -3.2278  -17.0071   14.7784 LP  0  0  0  0  0  0  0  0  0  0  0  0  # atno 4306 bound_to 3712
   -3.4325  -16.9007   13.1618 LP  0  0  0  0  0  0  0  0  0  0  0  0  # atno 4307 bound_to 3712
    1.3951  -20.0500    9.0673 LP  0  0  0  0  0  0  0  0  0  0  0  0  # atno 4314 bound_to 3832
    2.7388  -19.9490    8.1449 LP  0  0  0  0  0  0  0  0  0  0  0  0  # atno 4315 bound_to 3832
   -4.7852  -23.1849   10.1023 LP  0  0  0  0  0  0  0  0  0  0  0  0  # atno 4318 bound_to 3762
   -5.3627  -21.9662   11.0232 LP  0  0  0  0  0  0  0  0  0  0  0  0  # atno 4319 bound_to 3762
   -3.7472   -5.2025    8.9968 LP  0  0  0  0  0  0  0  0  0  0  0  0  # atno 4320 bound_to 2467
   -5.3708   -5.3763    8.9835 LP  0  0  0  0  0  0  0  0  0  0  0  0  # atno 4321 bound_to 2467

> <Gold.Score>
     Score     S(PLP)   S(hbond)     S(cho)   S(metal)  DE(clash)   DE(tors)     intcor
     40.43     -32.48       2.94       0.00       0.00       0.89       0.23       0.48

> <Gold.PLP.Fitness>
40.4340

> <Gold.PLP.PLP>
-32.4783

> <Gold.PLP.part.hbond>
-3.0000

> <Gold.PLP.part.metal>
0.0000

> <Gold.PLP.part.buried>
-6.5546

> <Gold.PLP.part.nonpolar>
-23.6239

> <Gold.PLP.part.repulsive>
0.2158

> <Gold.PLP.ligand.clash>
0.8947

> <Gold.PLP.ligand.torsion>
0.2313

> <Gold.PLP.Chemscore.Hbond>
2.9440

> <Gold.PLP.Chemscore.CHOScore>
0.0000

> <Gold.PLP.Chemscore.Metal>
0.0000

> <Gold.Chemscore.Hbonds>
donor molecule, donor type, donor heavy atom, donor atom, acceptor molecule, acceptor atom, score
      L1  H     8    30       P1  1227  1.00
      L1  H    12    31       P1  1227  0.94
      P1  H  3712  3721       L1    14  1.00

> <Gold.PLP.Chemscore.Internal.Correction>
0.4811

