#       Name:                EN300-00978_i001
#       Creating user name   aseyller
#       Creation time:       Fri Apr 21 16:30:01 2023


#       File generated by GOLD software.
#

@<TRIPOS>MOLECULE
EN300-00978_i001|benzaldehydes|mol2|27|dock10
    20    21     1
SMALL
USER_CHARGES


@<TRIPOS>ATOM
      1 C1          29.5418  36.3335  39.7009 C.3            1 <1>                0.0000
      2 C2          30.5876  35.8518  38.7285 C.2            1 <1>                0.0000
      3 C3          31.3052  34.7709  38.9897 C.2            1 <1>                0.0000
      4 S4          32.3896  34.5796  37.6003 S.3            1 <1>                0.0000
      5 C5          31.7738  36.0094  36.7551 C.2            1 <1>                0.0000
      6 N6          31.9013  36.7397  35.6611 N.2            1 <1>                0.0000
      7 C7          31.0456  37.7494  35.6957 C.2            1 <1>                0.0000
      8 C8          30.8789  38.8081  34.6362 C.3            1 <1>                0.0000
      9 C9          30.3303  37.6596  36.8790 C.2            1 <1>                0.0000
     10 C10         29.3195  38.5304  37.3176 C.2            1 <1>                0.0000
     11 O11         29.0577  39.5295  36.6765 O.2            1 <1>                0.0000
     12 N12         30.8110  36.5221  37.5520 N.pl3          1 <1>                0.0000
     13 H13         29.5150  35.6688  40.5644 H              1 <1>                0.0000
     14 H14         29.7875  37.3439  40.0278 H              1 <1>                0.0000
     15 H15         28.5666  36.3360  39.2140 H              1 <1>                0.0000
     16 H16         31.2434  34.1394  39.8636 H              1 <1>                0.0000
     17 H17         30.1340  38.4817  33.9105 H              1 <1>                0.0000
     18 H18         30.5510  39.7382  35.1004 H              1 <1>                0.0000
     19 H19         31.8313  38.9700  34.1315 H              1 <1>                0.0000
     20 H20         28.7750  38.3126  38.2245 H              1 <1>                0.0000
@<TRIPOS>BOND
    1    1    2 1     
    2    1   13 1     
    3    1   14 1     
    4    1   15 1     
    5    2    3 2     
    6    2   12 1     
    7    3    4 1     
    8    3   16 1     
    9    4    5 1     
   10    5    6 2     
   11    5   12 1     
   12    6    7 1     
   13    7    8 1     
   14    7    9 2     
   15    8   17 1     
   16    8   18 1     
   17    8   19 1     
   18    9   10 1     
   19    9   12 1     
   20   10   11 2     
   21   10   20 1     
@<TRIPOS>SUBSTRUCTURE
      1 ****           1
@<TRIPOS>COMMENT
> <Gold.Version>
2022.2.0

> <Gold.Id.Protein>
1qkm|1qkm_protein|mol2

> <Gold.Protein.RotatedTorsions>
[  496  491  490  487 ] final  -55.12 input  -89.99 | X-H torsion

> <Gold.Protein.ActiveResidues>
 MET295  LEU298  THR299  LEU301  ALA302  GLU305  TRP335  MET336  LEU339  MET340 
 GLY342  LEU343  ARG346  PHE356  ILE373  ILE376  PHE377  LEU380  LYS471  GLY472 
 MET473  HIS475  LEU476  LEU477  ASN478  MET479  VAL484  VAL487 

> <Gold.Protein.RotatedAtoms>
   36.4604   34.7218   41.5554 H   0  0  0  0  0  0  0  0  0  0  0  0  # atno 496  bound_to 491 

> <Gold.Score>
     Score     S(PLP)   S(hbond)     S(cho)   S(metal)  DE(clash)   DE(tors)     intcor
     38.33     -36.01       0.00       0.78       0.00       0.00       0.01       0.00

> <Gold.PLP.Fitness>
38.3276

> <Gold.PLP.PLP>
-36.0114

> <Gold.PLP.part.hbond>
0.0000

> <Gold.PLP.part.metal>
0.0000

> <Gold.PLP.part.buried>
-1.7184

> <Gold.PLP.part.nonpolar>
-34.6584

> <Gold.PLP.part.repulsive>
0.0543

> <Gold.PLP.ligand.clash>
0.0000

> <Gold.PLP.ligand.torsion>
0.0054

> <Gold.PLP.Chemscore.Hbond>
0.0000

> <Gold.PLP.Chemscore.CHOScore>
0.7757

> <Gold.PLP.Chemscore.Metal>
0.0000

> <Gold.Chemscore.Hbonds>
donor molecule, donor type, donor heavy atom, donor atom, acceptor molecule, acceptor atom, score
      L1  C     3    16       P1   470  0.78

> <Gold.PLP.Chemscore.Internal.Correction>
0.0000

