#       Name:                EN300-00978_i001
#       Creating user name   aseyller
#       Creation time:       Fri Apr 21 16:30:01 2023


#       File generated by GOLD software.
#

@<TRIPOS>MOLECULE
EN300-00978_i001|benzaldehydes|mol2|27|dock8
    20    21     1
SMALL
USER_CHARGES


@<TRIPOS>ATOM
      1 C1          31.9913  37.6627  36.8376 C.3            1 <1>                0.0000
      2 C2          31.5598  36.4493  37.6204 C.2            1 <1>                0.0000
      3 C3          32.4161  35.4743  37.8805 C.2            1 <1>                0.0000
      4 S4          31.4956  34.2746  38.8058 S.3            1 <1>                0.0000
      5 C5          29.9897  35.2067  38.7680 C.2            1 <1>                0.0000
      6 N6          28.7258  35.2085  39.1542 N.2            1 <1>                0.0000
      7 C7          28.1339  36.3182  38.7405 C.2            1 <1>                0.0000
      8 C8          26.6950  36.6980  38.9782 C.3            1 <1>                0.0000
      9 C9          29.0725  37.0686  38.0507 C.2            1 <1>                0.0000
     10 C10         28.8673  38.3182  37.4436 C.2            1 <1>                0.0000
     11 O11         27.7386  38.7465  37.3009 O.2            1 <1>                0.0000
     12 N12         30.2726  36.3359  38.0826 N.pl3          1 <1>                0.0000
     13 H13         33.0426  37.5654  36.5668 H              1 <1>                0.0000
     14 H14         31.3891  37.7443  35.9327 H              1 <1>                0.0000
     15 H15         31.8543  38.5559  37.4471 H              1 <1>                0.0000
     16 H16         33.4551  35.4207  37.5906 H              1 <1>                0.0000
     17 H17         26.6162  37.2581  39.9099 H              1 <1>                0.0000
     18 H18         26.3409  37.3150  38.1523 H              1 <1>                0.0000
     19 H19         26.0872  35.7956  39.0441 H              1 <1>                0.0000
     20 H20         29.7122  38.8986  37.1035 H              1 <1>                0.0000
@<TRIPOS>BOND
    1    1    2 1     
    2    1   13 1     
    3    1   14 1     
    4    1   15 1     
    5    2    3 2     
    6    2   12 1     
    7    3    4 1     
    8    3   16 1     
    9    4    5 1     
   10    5    6 2     
   11    5   12 1     
   12    6    7 1     
   13    7    8 1     
   14    7    9 2     
   15    8   17 1     
   16    8   18 1     
   17    8   19 1     
   18    9   10 1     
   19    9   12 1     
   20   10   11 2     
   21   10   20 1     
@<TRIPOS>SUBSTRUCTURE
      1 ****           1
@<TRIPOS>COMMENT
> <Gold.Version>
2022.2.0

> <Gold.Id.Protein>
1qkm|1qkm_protein|mol2

> <Gold.Protein.RotatedTorsions>
[  496  491  490  487 ] final  -86.30 input  -89.99 | X-H torsion

> <Gold.Protein.ActiveResidues>
 MET295  LEU298  THR299  LEU301  ALA302  GLU305  TRP335  MET336  LEU339  MET340 
 GLY342  LEU343  ARG346  PHE356  ILE373  ILE376  PHE377  LEU380  LYS471  GLY472 
 MET473  HIS475  LEU476  LEU477  ASN478  MET479  VAL484  VAL487 

> <Gold.Protein.RotatedAtoms>
   36.7232   34.6759   41.1244 H   0  0  0  0  0  0  0  0  0  0  0  0  # atno 496  bound_to 491 

> <Gold.Score>
     Score     S(PLP)   S(hbond)     S(cho)   S(metal)  DE(clash)   DE(tors)     intcor
     37.58     -37.65       0.00       0.00       0.00       0.00       0.03       0.00

> <Gold.PLP.Fitness>
37.5839

> <Gold.PLP.PLP>
-37.6486

> <Gold.PLP.part.hbond>
0.0000

> <Gold.PLP.part.metal>
0.0000

> <Gold.PLP.part.buried>
-1.8980

> <Gold.PLP.part.nonpolar>
-35.5944

> <Gold.PLP.part.repulsive>
0.0373

> <Gold.PLP.ligand.clash>
0.0000

> <Gold.PLP.ligand.torsion>
0.0323

> <Gold.PLP.Chemscore.Hbond>
0.0000

> <Gold.PLP.Chemscore.CHOScore>
0.0000

> <Gold.PLP.Chemscore.Metal>
0.0000

> <Gold.PLP.Chemscore.Internal.Correction>
0.0000

