#       Name:                EN300-00978_i001
#       Creating user name   aseyller
#       Creation time:       Fri Apr 21 16:30:01 2023


#       File generated by GOLD software.
#

@<TRIPOS>MOLECULE
EN300-00978_i001|benzaldehydes|mol2|27|dock7
    20    21     1
SMALL
USER_CHARGES


@<TRIPOS>ATOM
      1 C1          29.7538  37.0129  39.3101 C.3            1 <1>                0.0000
      2 C2          30.6866  36.1000  38.5567 C.2            1 <1>                0.0000
      3 C3          30.9924  34.9041  39.0342 C.2            1 <1>                0.0000
      4 S4          32.0969  34.1913  37.8447 S.3            1 <1>                0.0000
      5 C5          32.0581  35.5985  36.7695 C.2            1 <1>                0.0000
      6 N6          32.5233  36.0860  35.6326 N.2            1 <1>                0.0000
      7 C7          32.0342  37.3002  35.4338 C.2            1 <1>                0.0000
      8 C8          32.3229  38.1908  34.2529 C.3            1 <1>                0.0000
      9 C9          31.2095  37.6065  36.5043 C.2            1 <1>                0.0000
     10 C10         30.4885  38.7964  36.6955 C.2            1 <1>                0.0000
     11 O11         30.5750  39.6966  35.8833 O.2            1 <1>                0.0000
     12 N12         31.2315  36.4897  37.3590 N.pl3          1 <1>                0.0000
     13 H13         29.4282  36.5228  40.2276 H              1 <1>                0.0000
     14 H14         30.2729  37.9389  39.5574 H              1 <1>                0.0000
     15 H15         28.8857  37.2372  38.6903 H              1 <1>                0.0000
     16 H16         30.6433  34.4573  39.9533 H              1 <1>                0.0000
     17 H17         31.5919  38.0005  33.4671 H              1 <1>                0.0000
     18 H18         32.2616  39.2344  34.5612 H              1 <1>                0.0000
     19 H19         33.3241  37.9814  33.8761 H              1 <1>                0.0000
     20 H20         29.8572  38.9116  37.5642 H              1 <1>                0.0000
@<TRIPOS>BOND
    1    1    2 1     
    2    1   13 1     
    3    1   14 1     
    4    1   15 1     
    5    2    3 2     
    6    2   12 1     
    7    3    4 1     
    8    3   16 1     
    9    4    5 1     
   10    5    6 2     
   11    5   12 1     
   12    6    7 1     
   13    7    8 1     
   14    7    9 2     
   15    8   17 1     
   16    8   18 1     
   17    8   19 1     
   18    9   10 1     
   19    9   12 1     
   20   10   11 2     
   21   10   20 1     
@<TRIPOS>SUBSTRUCTURE
      1 ****           1
@<TRIPOS>COMMENT
> <Gold.Version>
2022.2.0

> <Gold.Id.Protein>
1qkm|1qkm_protein|mol2

> <Gold.Protein.RotatedTorsions>
[  496  491  490  487 ] final  -96.57 input  -89.99 | X-H torsion

> <Gold.Protein.ActiveResidues>
 MET295  LEU298  THR299  LEU301  ALA302  GLU305  TRP335  MET336  LEU339  MET340 
 GLY342  LEU343  ARG346  PHE356  ILE373  ILE376  PHE377  LEU380  LYS471  GLY472 
 MET473  HIS475  LEU476  LEU477  ASN478  MET479  VAL484  VAL487 

> <Gold.Protein.RotatedAtoms>
   36.8181   34.6049   41.0040 H   0  0  0  0  0  0  0  0  0  0  0  0  # atno 496  bound_to 491 

> <Gold.Score>
     Score     S(PLP)   S(hbond)     S(cho)   S(metal)  DE(clash)   DE(tors)     intcor
     41.12     -38.89       0.00       0.74       0.00       0.00       0.00       0.00

> <Gold.PLP.Fitness>
41.1185

> <Gold.PLP.PLP>
-38.8902

> <Gold.PLP.part.hbond>
0.0000

> <Gold.PLP.part.metal>
0.0000

> <Gold.PLP.part.buried>
-2.2811

> <Gold.PLP.part.nonpolar>
-36.5414

> <Gold.PLP.part.repulsive>
0.0731

> <Gold.PLP.ligand.clash>
0.0000

> <Gold.PLP.ligand.torsion>
0.0004

> <Gold.PLP.Chemscore.Hbond>
0.0000

> <Gold.PLP.Chemscore.CHOScore>
0.7430

> <Gold.PLP.Chemscore.Metal>
0.0000

> <Gold.Chemscore.Hbonds>
donor molecule, donor type, donor heavy atom, donor atom, acceptor molecule, acceptor atom, score
      L1  C     3    16       P1   470  0.74

> <Gold.PLP.Chemscore.Internal.Correction>
0.0000

