#       Name:                EN300-00978_i001
#       Creating user name   aseyller
#       Creation time:       Fri Apr 21 16:30:04 2023


#       File generated by GOLD software.
#

@<TRIPOS>MOLECULE
EN300-00978_i001|benzaldehydes|mol2|27|dock20
    20    21     1
SMALL
USER_CHARGES


@<TRIPOS>ATOM
      1 C1          26.7044  36.9184  38.7749 C.3            1 <1>                0.0000
      2 C2          27.6952  37.7210  37.9716 C.2            1 <1>                0.0000
      3 C3          27.3098  38.7984  37.3065 C.2            1 <1>                0.0000
      4 S4          28.7745  39.4145  36.5204 S.3            1 <1>                0.0000
      5 C5          29.8179  38.1376  37.1674 C.2            1 <1>                0.0000
      6 N6          31.0581  37.6815  37.1890 N.2            1 <1>                0.0000
      7 C7          31.1207  36.5927  37.9395 C.2            1 <1>                0.0000
      8 C8          32.3564  35.7757  38.2166 C.3            1 <1>                0.0000
      9 C9          29.8484  36.3380  38.4255 C.2            1 <1>                0.0000
     10 C10         29.4659  35.2778  39.2633 C.2            1 <1>                0.0000
     11 O11         28.6222  35.4545  40.1204 O.2            1 <1>                0.0000
     12 N12         29.0161  37.3527  37.9197 N.pl3          1 <1>                0.0000
     13 H13         25.7170  37.3727  38.6925 H              1 <1>                0.0000
     14 H14         26.6680  35.8984  38.3924 H              1 <1>                0.0000
     15 H15         27.0114  36.9036  39.8206 H              1 <1>                0.0000
     16 H16         26.3144  39.2141  37.2539 H              1 <1>                0.0000
     17 H17         32.8531  36.1590  39.1079 H              1 <1>                0.0000
     18 H18         32.0755  34.7347  38.3764 H              1 <1>                0.0000
     19 H19         33.0344  35.8425  37.3657 H              1 <1>                0.0000
     20 H20         29.9214  34.3055  39.1462 H              1 <1>                0.0000
@<TRIPOS>BOND
    1    1    2 1     
    2    1   13 1     
    3    1   14 1     
    4    1   15 1     
    5    2    3 2     
    6    2   12 1     
    7    3    4 1     
    8    3   16 1     
    9    4    5 1     
   10    5    6 2     
   11    5   12 1     
   12    6    7 1     
   13    7    8 1     
   14    7    9 2     
   15    8   17 1     
   16    8   18 1     
   17    8   19 1     
   18    9   10 1     
   19    9   12 1     
   20   10   11 2     
   21   10   20 1     
@<TRIPOS>SUBSTRUCTURE
      1 ****           1
@<TRIPOS>COMMENT
> <Gold.Version>
2022.2.0

> <Gold.Id.Protein>
1qkm|1qkm_protein|mol2

> <Gold.Protein.RotatedTorsions>
[  496  491  490  487 ] final  -10.58 input  -89.99 | X-H torsion

> <Gold.Protein.ActiveResidues>
 MET295  LEU298  THR299  LEU301  ALA302  GLU305  TRP335  MET336  LEU339  MET340 
 GLY342  LEU343  ARG346  PHE356  ILE373  ILE376  PHE377  LEU380  LYS471  GLY472 
 MET473  HIS475  LEU476  LEU477  ASN478  MET479  VAL484  VAL487 

> <Gold.Protein.RotatedAtoms>
   36.2629   34.3570   42.1376 H   0  0  0  0  0  0  0  0  0  0  0  0  # atno 496  bound_to 491 

> <Gold.Score>
     Score     S(PLP)   S(hbond)     S(cho)   S(metal)  DE(clash)   DE(tors)     intcor
     37.87     -38.39       0.00       0.00       0.00       0.00       0.26       0.00

> <Gold.PLP.Fitness>
37.8657

> <Gold.PLP.PLP>
-38.3910

> <Gold.PLP.part.hbond>
0.0000

> <Gold.PLP.part.metal>
0.0000

> <Gold.PLP.part.buried>
-2.4332

> <Gold.PLP.part.nonpolar>
-36.1619

> <Gold.PLP.part.repulsive>
0.0862

> <Gold.PLP.ligand.clash>
0.0000

> <Gold.PLP.ligand.torsion>
0.2626

> <Gold.PLP.Chemscore.Hbond>
0.0000

> <Gold.PLP.Chemscore.CHOScore>
0.0000

> <Gold.PLP.Chemscore.Metal>
0.0000

> <Gold.PLP.Chemscore.Internal.Correction>
0.0000

