#       Name:                EN300-00978_i001
#       Creating user name   aseyller
#       Creation time:       Fri Apr 21 16:30:03 2023


#       File generated by GOLD software.
#

@<TRIPOS>MOLECULE
EN300-00978_i001|benzaldehydes|mol2|27|dock16
    20    21     1
SMALL
USER_CHARGES


@<TRIPOS>ATOM
      1 C1          31.9493  38.2465  34.1068 C.3            1 <1>                0.0000
      2 C2          32.4638  37.2927  35.1541 C.2            1 <1>                0.0000
      3 C3          33.6000  36.6390  34.9717 C.2            1 <1>                0.0000
      4 S4          33.8120  35.6497  36.4275 S.3            1 <1>                0.0000
      5 C5          32.3130  36.2103  37.1868 C.2            1 <1>                0.0000
      6 N6          31.5523  36.0931  38.2611 N.2            1 <1>                0.0000
      7 C7          30.4889  36.8729  38.1427 C.2            1 <1>                0.0000
      8 C8          29.3822  37.0239  39.1544 C.3            1 <1>                0.0000
      9 C9          30.5744  37.5257  36.9235 C.2            1 <1>                0.0000
     10 C10         29.6542  38.4471  36.3977 C.2            1 <1>                0.0000
     11 O11         30.0510  39.4326  35.8071 O.2            1 <1>                0.0000
     12 N12         31.7665  37.0889  36.3183 N.pl3          1 <1>                0.0000
     13 H13         32.6426  38.2715  33.2661 H              1 <1>                0.0000
     14 H14         30.9709  37.9129  33.7609 H              1 <1>                0.0000
     15 H15         31.8622  39.2447  34.5358 H              1 <1>                0.0000
     16 H16         34.2584  36.6960  34.1175 H              1 <1>                0.0000
     17 H17         29.6297  37.8291  39.8461 H              1 <1>                0.0000
     18 H18         28.4501  37.2597  38.6409 H              1 <1>                0.0000
     19 H19         29.2664  36.0921  39.7080 H              1 <1>                0.0000
     20 H20         28.5940  38.2801  36.5183 H              1 <1>                0.0000
@<TRIPOS>BOND
    1    1    2 1     
    2    1   13 1     
    3    1   14 1     
    4    1   15 1     
    5    2    3 2     
    6    2   12 1     
    7    3    4 1     
    8    3   16 1     
    9    4    5 1     
   10    5    6 2     
   11    5   12 1     
   12    6    7 1     
   13    7    8 1     
   14    7    9 2     
   15    8   17 1     
   16    8   18 1     
   17    8   19 1     
   18    9   10 1     
   19    9   12 1     
   20   10   11 2     
   21   10   20 1     
@<TRIPOS>SUBSTRUCTURE
      1 ****           1
@<TRIPOS>COMMENT
> <Gold.Version>
2022.2.0

> <Gold.Id.Protein>
1qkm|1qkm_protein|mol2

> <Gold.Protein.RotatedTorsions>
[  496  491  490  487 ] final  128.72 input  -89.99 | X-H torsion

> <Gold.Protein.ActiveResidues>
 MET295  LEU298  THR299  LEU301  ALA302  GLU305  TRP335  MET336  LEU339  MET340 
 GLY342  LEU343  ARG346  PHE356  ILE373  ILE376  PHE377  LEU380  LYS471  GLY472 
 MET473  HIS475  LEU476  LEU477  ASN478  MET479  VAL484  VAL487 

> <Gold.Protein.RotatedAtoms>
   37.1443   32.9660   41.4923 H   0  0  0  0  0  0  0  0  0  0  0  0  # atno 496  bound_to 491 

> <Gold.Score>
     Score     S(PLP)   S(hbond)     S(cho)   S(metal)  DE(clash)   DE(tors)     intcor
     40.31     -37.93       0.00       1.00       0.00       0.00       0.31       0.00

> <Gold.PLP.Fitness>
40.3095

> <Gold.PLP.PLP>
-37.9314

> <Gold.PLP.part.hbond>
0.0000

> <Gold.PLP.part.metal>
0.0000

> <Gold.PLP.part.buried>
-3.3870

> <Gold.PLP.part.nonpolar>
-35.4871

> <Gold.PLP.part.repulsive>
0.0557

> <Gold.PLP.ligand.clash>
0.0000

> <Gold.PLP.ligand.torsion>
0.3109

> <Gold.PLP.Chemscore.Hbond>
0.0000

> <Gold.PLP.Chemscore.CHOScore>
1.0000

> <Gold.PLP.Chemscore.Metal>
0.0000

> <Gold.Chemscore.Hbonds>
donor molecule, donor type, donor heavy atom, donor atom, acceptor molecule, acceptor atom, score
      L1  C     3    16       P1  3229  1.00

> <Gold.PLP.Chemscore.Internal.Correction>
0.0000

