#       Name:                EN300-00978_i001
#       Creating user name   aseyller
#       Creation time:       Fri Apr 21 16:30:02 2023


#       File generated by GOLD software.
#

@<TRIPOS>MOLECULE
EN300-00978_i001|benzaldehydes|mol2|27|dock13
    20    21     1
SMALL
USER_CHARGES


@<TRIPOS>ATOM
      1 C1          32.0997  34.2596  38.1187 C.3            1 <1>                0.0000
      2 C2          31.1453  35.4070  38.3281 C.2            1 <1>                0.0000
      3 C3          30.3607  35.4466  39.3932 C.2            1 <1>                0.0000
      4 S4          29.4245  36.9433  39.2320 S.3            1 <1>                0.0000
      5 C5          30.1847  37.4097  37.7015 C.2            1 <1>                0.0000
      6 N6          30.2046  38.3353  36.7584 N.2            1 <1>                0.0000
      7 C7          31.0919  38.0093  35.8313 C.2            1 <1>                0.0000
      8 C8          31.4138  38.8047  34.5924 C.3            1 <1>                0.0000
      9 C9          31.6722  36.8071  36.2027 C.2            1 <1>                0.0000
     10 C10         32.6646  36.1018  35.5027 C.2            1 <1>                0.0000
     11 O11         33.2975  36.6543  34.6242 O.2            1 <1>                0.0000
     12 N12         31.0765  36.4346  37.4211 N.pl3          1 <1>                0.0000
     13 H13         32.0070  33.5545  38.9447 H              1 <1>                0.0000
     14 H14         31.8615  33.7552  37.1822 H              1 <1>                0.0000
     15 H15         33.1207  34.6390  38.0777 H              1 <1>                0.0000
     16 H16         30.3031  34.7211  40.1911 H              1 <1>                0.0000
     17 H17         32.2183  39.5070  34.8104 H              1 <1>                0.0000
     18 H18         31.7275  38.1281  33.7976 H              1 <1>                0.0000
     19 H19         30.5282  39.3542  34.2732 H              1 <1>                0.0000
     20 H20         32.8653  35.0687  35.7448 H              1 <1>                0.0000
@<TRIPOS>BOND
    1    1    2 1     
    2    1   13 1     
    3    1   14 1     
    4    1   15 1     
    5    2    3 2     
    6    2   12 1     
    7    3    4 1     
    8    3   16 1     
    9    4    5 1     
   10    5    6 2     
   11    5   12 1     
   12    6    7 1     
   13    7    8 1     
   14    7    9 2     
   15    8   17 1     
   16    8   18 1     
   17    8   19 1     
   18    9   10 1     
   19    9   12 1     
   20   10   11 2     
   21   10   20 1     
@<TRIPOS>SUBSTRUCTURE
      1 ****           1
@<TRIPOS>COMMENT
> <Gold.Version>
2022.2.0

> <Gold.Id.Protein>
1qkm|1qkm_protein|mol2

> <Gold.Protein.RotatedTorsions>
[  496  491  490  487 ] final  -82.07 input  -89.99 | X-H torsion

> <Gold.Protein.ActiveResidues>
 MET295  LEU298  THR299  LEU301  ALA302  GLU305  TRP335  MET336  LEU339  MET340 
 GLY342  LEU343  ARG346  PHE356  ILE373  ILE376  PHE377  LEU380  LYS471  GLY472 
 MET473  HIS475  LEU476  LEU477  ASN478  MET479  VAL484  VAL487 

> <Gold.Protein.RotatedAtoms>
   36.6846   34.6974   41.1782 H   0  0  0  0  0  0  0  0  0  0  0  0  # atno 496  bound_to 491 

> <Gold.Score>
     Score     S(PLP)   S(hbond)     S(cho)   S(metal)  DE(clash)   DE(tors)     intcor
     39.47     -37.45       0.00       0.71       0.00       0.00       0.05       0.00

> <Gold.PLP.Fitness>
39.4681

> <Gold.PLP.PLP>
-37.4544

> <Gold.PLP.part.hbond>
0.0000

> <Gold.PLP.part.metal>
0.0000

> <Gold.PLP.part.buried>
-2.1174

> <Gold.PLP.part.nonpolar>
-35.1765

> <Gold.PLP.part.repulsive>
0.1801

> <Gold.PLP.ligand.clash>
0.0000

> <Gold.PLP.ligand.torsion>
0.0544

> <Gold.PLP.Chemscore.Hbond>
0.0000

> <Gold.PLP.Chemscore.CHOScore>
0.7075

> <Gold.PLP.Chemscore.Metal>
0.0000

> <Gold.Chemscore.Hbonds>
donor molecule, donor type, donor heavy atom, donor atom, acceptor molecule, acceptor atom, score
      L1  C     3    16       P1   470  0.71

> <Gold.PLP.Chemscore.Internal.Correction>
0.0000

