#       Name:                EN300-00978_i001
#       Creating user name   aseyller
#       Creation time:       Fri Apr 21 16:30:03 2023


#       File generated by GOLD software.
#

@<TRIPOS>MOLECULE
EN300-00978_i001|benzaldehydes|mol2|27|dock17
    20    21     1
SMALL
USER_CHARGES


@<TRIPOS>ATOM
      1 C1          29.5631  36.5268  38.9051 C.3            1 <1>                0.0000
      2 C2          29.7107  37.4768  37.7445 C.2            1 <1>                0.0000
      3 C3          28.8316  38.4469  37.5504 C.2            1 <1>                0.0000
      4 S4          29.3871  39.3013  36.0999 S.3            1 <1>                0.0000
      5 C5          30.7975  38.2559  35.8635 C.2            1 <1>                0.0000
      6 N6          31.8457  38.0368  35.0890 N.2            1 <1>                0.0000
      7 C7          32.5286  36.9982  35.5448 C.2            1 <1>                0.0000
      8 C8          33.7877  36.4303  34.9419 C.3            1 <1>                0.0000
      9 C9          31.8804  36.5264  36.6749 C.2            1 <1>                0.0000
     10 C10         32.2670  35.4362  37.4713 C.2            1 <1>                0.0000
     11 O11         32.0999  35.4733  38.6748 O.2            1 <1>                0.0000
     12 N12         30.7624  37.3568  36.8711 N.pl3          1 <1>                0.0000
     13 H13         28.6740  36.7891  39.4786 H              1 <1>                0.0000
     14 H14         29.4661  35.5078  38.5304 H              1 <1>                0.0000
     15 H15         30.4422  36.5963  39.5456 H              1 <1>                0.0000
     16 H16         27.9607  38.6706  38.1487 H              1 <1>                0.0000
     17 H17         34.6551  36.9218  35.3824 H              1 <1>                0.0000
     18 H18         33.8357  35.3600  35.1423 H              1 <1>                0.0000
     19 H19         33.7826  36.5985  33.8650 H              1 <1>                0.0000
     20 H20         32.7128  34.5649  37.0147 H              1 <1>                0.0000
@<TRIPOS>BOND
    1    1    2 1     
    2    1   13 1     
    3    1   14 1     
    4    1   15 1     
    5    2    3 2     
    6    2   12 1     
    7    3    4 1     
    8    3   16 1     
    9    4    5 1     
   10    5    6 2     
   11    5   12 1     
   12    6    7 1     
   13    7    8 1     
   14    7    9 2     
   15    8   17 1     
   16    8   18 1     
   17    8   19 1     
   18    9   10 1     
   19    9   12 1     
   20   10   11 2     
   21   10   20 1     
@<TRIPOS>SUBSTRUCTURE
      1 ****           1
@<TRIPOS>COMMENT
> <Gold.Version>
2022.2.0

> <Gold.Id.Protein>
1qkm|1qkm_protein|mol2

> <Gold.Protein.RotatedTorsions>
[  496  491  490  487 ] final  110.66 input  -89.99 | X-H torsion

> <Gold.Protein.ActiveResidues>
 MET295  LEU298  THR299  LEU301  ALA302  GLU305  TRP335  MET336  LEU339  MET340 
 GLY342  LEU343  ARG346  PHE356  ILE373  ILE376  PHE377  LEU380  LYS471  GLY472 
 MET473  HIS475  LEU476  LEU477  ASN478  MET479  VAL484  VAL487 

> <Gold.Protein.RotatedAtoms>
   37.0049   32.9418   41.7524 H   0  0  0  0  0  0  0  0  0  0  0  0  # atno 496  bound_to 491 

> <Gold.Score>
     Score     S(PLP)   S(hbond)     S(cho)   S(metal)  DE(clash)   DE(tors)     intcor
     36.14     -36.66       0.00       0.00       0.00       0.00       0.26       0.00

> <Gold.PLP.Fitness>
36.1427

> <Gold.PLP.PLP>
-36.6555

> <Gold.PLP.part.hbond>
0.0000

> <Gold.PLP.part.metal>
0.0000

> <Gold.PLP.part.buried>
-2.6400

> <Gold.PLP.part.nonpolar>
-34.2887

> <Gold.PLP.part.repulsive>
0.1593

> <Gold.PLP.ligand.clash>
0.0000

> <Gold.PLP.ligand.torsion>
0.2564

> <Gold.PLP.Chemscore.Hbond>
0.0000

> <Gold.PLP.Chemscore.CHOScore>
0.0000

> <Gold.PLP.Chemscore.Metal>
0.0000

> <Gold.PLP.Chemscore.Internal.Correction>
0.0000

