#       Name:                EN300-00978_i001
#       Creating user name   aseyller
#       Creation time:       Fri Apr 21 16:30:03 2023


#       File generated by GOLD software.
#

@<TRIPOS>MOLECULE
EN300-00978_i001|benzaldehydes|mol2|27|dock15
    20    21     1
SMALL
USER_CHARGES


@<TRIPOS>ATOM
      1 C1          30.7672  39.3826  35.4951 C.3            1 <1>                0.0000
      2 C2          31.7365  38.2289  35.4679 C.2            1 <1>                0.0000
      3 C3          32.7026  38.1802  34.5646 C.2            1 <1>                0.0000
      4 S4          33.5841  36.6790  34.8997 S.3            1 <1>                0.0000
      5 C5          32.5537  36.2238  36.2668 C.2            1 <1>                0.0000
      6 N6          32.3552  35.3024  37.1931 N.2            1 <1>                0.0000
      7 C7          31.3150  35.6373  37.9406 C.2            1 <1>                0.0000
      8 C8          30.7667  34.8493  39.1024 C.3            1 <1>                0.0000
      9 C9          30.8203  36.8411  37.4653 C.2            1 <1>                0.0000
     10 C10         29.7209  37.5550  37.9692 C.2            1 <1>                0.0000
     11 O11         29.0801  37.1067  38.8999 O.2            1 <1>                0.0000
     12 N12         31.6386  37.2108  36.3829 N.pl3          1 <1>                0.0000
     13 H13         31.0134  40.0829  34.6969 H              1 <1>                0.0000
     14 H14         29.7535  39.0089  35.3506 H              1 <1>                0.0000
     15 H15         30.8337  39.8904  36.4573 H              1 <1>                0.0000
     16 H16         32.9099  38.9017  33.7882 H              1 <1>                0.0000
     17 H17         31.2581  35.1679  40.0217 H              1 <1>                0.0000
     18 H18         29.6938  35.0227  39.1849 H              1 <1>                0.0000
     19 H19         30.9517  33.7874  38.9406 H              1 <1>                0.0000
     20 H20         29.4446  38.5021  37.5298 H              1 <1>                0.0000
@<TRIPOS>BOND
    1    1    2 1     
    2    1   13 1     
    3    1   14 1     
    4    1   15 1     
    5    2    3 2     
    6    2   12 1     
    7    3    4 1     
    8    3   16 1     
    9    4    5 1     
   10    5    6 2     
   11    5   12 1     
   12    6    7 1     
   13    7    8 1     
   14    7    9 2     
   15    8   17 1     
   16    8   18 1     
   17    8   19 1     
   18    9   10 1     
   19    9   12 1     
   20   10   11 2     
   21   10   20 1     
@<TRIPOS>SUBSTRUCTURE
      1 ****           1
@<TRIPOS>COMMENT
> <Gold.Version>
2022.2.0

> <Gold.Id.Protein>
1qkm|1qkm_protein|mol2

> <Gold.Protein.RotatedTorsions>
[  496  491  490  487 ] final -145.95 input  -89.99 | X-H torsion

> <Gold.Protein.ActiveResidues>
 MET295  LEU298  THR299  LEU301  ALA302  GLU305  TRP335  MET336  LEU339  MET340 
 GLY342  LEU343  ARG346  PHE356  ILE373  ILE376  PHE377  LEU380  LYS471  GLY472 
 MET473  HIS475  LEU476  LEU477  ASN478  MET479  VAL484  VAL487 

> <Gold.Protein.RotatedAtoms>
   37.2095   33.9828   40.7202 H   0  0  0  0  0  0  0  0  0  0  0  0  # atno 496  bound_to 491 

> <Gold.Score>
     Score     S(PLP)   S(hbond)     S(cho)   S(metal)  DE(clash)   DE(tors)     intcor
     38.71     -38.23       0.00       0.16       0.00       0.00       0.00       0.00

> <Gold.PLP.Fitness>
38.7119

> <Gold.PLP.PLP>
-38.2336

> <Gold.PLP.part.hbond>
0.0000

> <Gold.PLP.part.metal>
0.0000

> <Gold.PLP.part.buried>
-1.8738

> <Gold.PLP.part.nonpolar>
-35.7827

> <Gold.PLP.part.repulsive>
0.0186

> <Gold.PLP.ligand.clash>
0.0000

> <Gold.PLP.ligand.torsion>
0.0006

> <Gold.PLP.Chemscore.Hbond>
0.0000

> <Gold.PLP.Chemscore.CHOScore>
0.1598

> <Gold.PLP.Chemscore.Metal>
0.0000

> <Gold.Chemscore.Hbonds>
donor molecule, donor type, donor heavy atom, donor atom, acceptor molecule, acceptor atom, score
      L1  C     3    16       P1  3229  0.16

> <Gold.PLP.Chemscore.Internal.Correction>
0.0000

