#       Name:                EN300-00978_i001
#       Creating user name   aseyller
#       Creation time:       Fri Apr 21 16:29:59 2023


#       File generated by GOLD software.
#

@<TRIPOS>MOLECULE
EN300-00978_i001|benzaldehydes|mol2|27|dock2
    20    21     1
SMALL
USER_CHARGES


@<TRIPOS>ATOM
      1 C1          31.2263  38.6098  34.5230 C.3            1 <1>                0.0000
      2 C2          31.9234  37.5472  35.3331 C.2            1 <1>                0.0000
      3 C3          33.0655  37.0229  34.9181 C.2            1 <1>                0.0000
      4 S4          33.5157  35.8371  36.1566 S.3            1 <1>                0.0000
      5 C5          32.0915  36.1501  37.1623 C.2            1 <1>                0.0000
      6 N6          31.4785  35.8053  38.2812 N.2            1 <1>                0.0000
      7 C7          30.3636  36.5068  38.4142 C.2            1 <1>                0.0000
      8 C8          29.3840  36.4084  39.5552 C.3            1 <1>                0.0000
      9 C9          30.2577  37.3480  37.3182 C.2            1 <1>                0.0000
     10 C10         29.2254  38.2644  37.0594 C.2            1 <1>                0.0000
     11 O11         28.1397  38.1217  37.5871 O.2            1 <1>                0.0000
     12 N12         31.3895  37.1081  36.5186 N.pl3          1 <1>                0.0000
     13 H13         31.8072  38.8219  33.6254 H              1 <1>                0.0000
     14 H14         30.2345  38.2580  34.2392 H              1 <1>                0.0000
     15 H15         31.1332  39.5180  35.1184 H              1 <1>                0.0000
     16 H16         33.6081  37.2657  34.0165 H              1 <1>                0.0000
     17 H17         29.6665  37.1119  40.3383 H              1 <1>                0.0000
     18 H18         28.3829  36.6471  39.1961 H              1 <1>                0.0000
     19 H19         29.3941  35.3949  39.9562 H              1 <1>                0.0000
     20 H20         29.3962  39.0957  36.3915 H              1 <1>                0.0000
@<TRIPOS>BOND
    1    1    2 1     
    2    1   13 1     
    3    1   14 1     
    4    1   15 1     
    5    2    3 2     
    6    2   12 1     
    7    3    4 1     
    8    3   16 1     
    9    4    5 1     
   10    5    6 2     
   11    5   12 1     
   12    6    7 1     
   13    7    8 1     
   14    7    9 2     
   15    8   17 1     
   16    8   18 1     
   17    8   19 1     
   18    9   10 1     
   19    9   12 1     
   20   10   11 2     
   21   10   20 1     
@<TRIPOS>SUBSTRUCTURE
      1 ****           1
@<TRIPOS>COMMENT
> <Gold.Version>
2022.2.0

> <Gold.Id.Protein>
1qkm|1qkm_protein|mol2

> <Gold.Protein.RotatedTorsions>
[  496  491  490  487 ] final -171.01 input  -89.99 | X-H torsion

> <Gold.Protein.ActiveResidues>
 MET295  LEU298  THR299  LEU301  ALA302  GLU305  TRP335  MET336  LEU339  MET340 
 GLY342  LEU343  ARG346  PHE356  ILE373  ILE376  PHE377  LEU380  LYS471  GLY472 
 MET473  HIS475  LEU476  LEU477  ASN478  MET479  VAL484  VAL487 

> <Gold.Protein.RotatedAtoms>
   37.3064   33.5937   40.8020 H   0  0  0  0  0  0  0  0  0  0  0  0  # atno 496  bound_to 491 

> <Gold.Score>
     Score     S(PLP)   S(hbond)     S(cho)   S(metal)  DE(clash)   DE(tors)     intcor
     40.99     -38.19       0.00       1.00       0.00       0.00       0.10       0.00

> <Gold.PLP.Fitness>
40.9924

> <Gold.PLP.PLP>
-38.1936

> <Gold.PLP.part.hbond>
0.0000

> <Gold.PLP.part.metal>
0.0000

> <Gold.PLP.part.buried>
-2.8257

> <Gold.PLP.part.nonpolar>
-35.3849

> <Gold.PLP.part.repulsive>
0.0598

> <Gold.PLP.ligand.clash>
0.0000

> <Gold.PLP.ligand.torsion>
0.1006

> <Gold.PLP.Chemscore.Hbond>
0.0000

> <Gold.PLP.Chemscore.CHOScore>
1.0000

> <Gold.PLP.Chemscore.Metal>
0.0000

> <Gold.Chemscore.Hbonds>
donor molecule, donor type, donor heavy atom, donor atom, acceptor molecule, acceptor atom, score
      L1  C     3    16       P1  3229  1.00

> <Gold.PLP.Chemscore.Internal.Correction>
0.0000

