#       Name:                EN300-00978_i001
#       Creating user name   aseyller
#       Creation time:       Fri Apr 21 16:30:04 2023


#       File generated by GOLD software.
#

@<TRIPOS>MOLECULE
EN300-00978_i001|benzaldehydes|mol2|27|dock19
    20    21     1
SMALL
USER_CHARGES


@<TRIPOS>ATOM
      1 C1          28.3048  39.1705  36.9813 C.3            1 <1>                0.0000
      2 C2          27.8480  37.9991  37.8122 C.2            1 <1>                0.0000
      3 C3          26.5865  37.8972  38.1992 C.2            1 <1>                0.0000
      4 S4          26.5021  36.3944  39.1358 S.3            1 <1>                0.0000
      5 C5          28.2191  36.0122  38.9262 C.2            1 <1>                0.0000
      6 N6          29.1600  35.1320  39.2201 N.2            1 <1>                0.0000
      7 C7          30.3114  35.5153  38.6905 C.2            1 <1>                0.0000
      8 C8          31.6246  34.7838  38.7976 C.3            1 <1>                0.0000
      9 C9          30.0943  36.7082  38.0199 C.2            1 <1>                0.0000
     10 C10         31.0478  37.4615  37.3158 C.2            1 <1>                0.0000
     11 O11         32.2159  37.1253  37.3258 O.2            1 <1>                0.0000
     12 N12         28.7306  37.0138  38.1778 N.pl3          1 <1>                0.0000
     13 H13         27.4610  39.8348  36.7949 H              1 <1>                0.0000
     14 H14         29.0835  39.7139  37.5166 H              1 <1>                0.0000
     15 H15         28.7003  38.8102  36.0317 H              1 <1>                0.0000
     16 H16         25.7797  38.5837  37.9890 H              1 <1>                0.0000
     17 H17         31.7203  34.0853  37.9663 H              1 <1>                0.0000
     18 H18         32.4441  35.5017  38.7652 H              1 <1>                0.0000
     19 H19         31.6592  34.2352  39.7388 H              1 <1>                0.0000
     20 H20         30.7432  38.3395  36.7655 H              1 <1>                0.0000
@<TRIPOS>BOND
    1    1    2 1     
    2    1   13 1     
    3    1   14 1     
    4    1   15 1     
    5    2    3 2     
    6    2   12 1     
    7    3    4 1     
    8    3   16 1     
    9    4    5 1     
   10    5    6 2     
   11    5   12 1     
   12    6    7 1     
   13    7    8 1     
   14    7    9 2     
   15    8   17 1     
   16    8   18 1     
   17    8   19 1     
   18    9   10 1     
   19    9   12 1     
   20   10   11 2     
   21   10   20 1     
@<TRIPOS>SUBSTRUCTURE
      1 ****           1
@<TRIPOS>COMMENT
> <Gold.Version>
2022.2.0

> <Gold.Id.Protein>
1qkm|1qkm_protein|mol2

> <Gold.Protein.RotatedTorsions>
[  496  491  490  487 ] final   78.63 input  -89.99 | X-H torsion

> <Gold.Protein.ActiveResidues>
 MET295  LEU298  THR299  LEU301  ALA302  GLU305  TRP335  MET336  LEU339  MET340 
 GLY342  LEU343  ARG346  PHE356  ILE373  ILE376  PHE377  LEU380  LYS471  GLY472 
 MET473  HIS475  LEU476  LEU477  ASN478  MET479  VAL484  VAL487 

> <Gold.Protein.RotatedAtoms>
   36.7153   33.1121   42.1499 H   0  0  0  0  0  0  0  0  0  0  0  0  # atno 496  bound_to 491 

> <Gold.Score>
     Score     S(PLP)   S(hbond)     S(cho)   S(metal)  DE(clash)   DE(tors)     intcor
     37.45     -37.46       0.00       0.00       0.00       0.00       0.01       0.00

> <Gold.PLP.Fitness>
37.4537

> <Gold.PLP.PLP>
-37.4637

> <Gold.PLP.part.hbond>
0.0000

> <Gold.PLP.part.metal>
0.0000

> <Gold.PLP.part.buried>
-2.1430

> <Gold.PLP.part.nonpolar>
-35.2676

> <Gold.PLP.part.repulsive>
0.0570

> <Gold.PLP.ligand.clash>
0.0000

> <Gold.PLP.ligand.torsion>
0.0050

> <Gold.PLP.Chemscore.Hbond>
0.0000

> <Gold.PLP.Chemscore.CHOScore>
0.0000

> <Gold.PLP.Chemscore.Metal>
0.0000

> <Gold.PLP.Chemscore.Internal.Correction>
0.0000

