#       Name:                EN300-00978_i001
#       Creating user name   aseyller
#       Creation time:       Fri Apr 21 16:30:02 2023


#       File generated by GOLD software.
#

@<TRIPOS>MOLECULE
EN300-00978_i001|benzaldehydes|mol2|27|dock12
    20    21     1
SMALL
USER_CHARGES


@<TRIPOS>ATOM
      1 C1          31.3955  36.0879  38.5005 C.3            1 <1>                0.0000
      2 C2          30.5553  37.0590  37.7118 C.2            1 <1>                0.0000
      3 C3          31.0861  37.7657  36.7267 C.2            1 <1>                0.0000
      4 S4          29.7602  38.7559  36.0911 S.3            1 <1>                0.0000
      5 C5          28.5636  38.1224  37.2334 C.2            1 <1>                0.0000
      6 N6          27.2974  38.1984  37.6041 N.2            1 <1>                0.0000
      7 C7          27.0770  37.3707  38.6137 C.2            1 <1>                0.0000
      8 C8          25.7621  37.1630  39.3201 C.3            1 <1>                0.0000
      9 C9          28.2700  36.7291  38.9051 C.2            1 <1>                0.0000
     10 C10         28.4843  35.7688  39.9072 C.2            1 <1>                0.0000
     11 O11         27.5912  35.4912  40.6838 O.2            1 <1>                0.0000
     12 N12         29.2230  37.2239  37.9968 N.pl3          1 <1>                0.0000
     13 H13         32.4172  36.0995  38.1207 H              1 <1>                0.0000
     14 H14         31.3954  36.3775  39.5514 H              1 <1>                0.0000
     15 H15         30.9820  35.0844  38.4001 H              1 <1>                0.0000
     16 H16         32.1097  37.7438  36.3830 H              1 <1>                0.0000
     17 H17         25.2060  36.3665  38.8259 H              1 <1>                0.0000
     18 H18         25.9471  36.8870  40.3582 H              1 <1>                0.0000
     19 H19         25.1824  38.0855  39.2872 H              1 <1>                0.0000
     20 H20         29.4424  35.2770  39.9880 H              1 <1>                0.0000
@<TRIPOS>BOND
    1    1    2 1     
    2    1   13 1     
    3    1   14 1     
    4    1   15 1     
    5    2    3 2     
    6    2   12 1     
    7    3    4 1     
    8    3   16 1     
    9    4    5 1     
   10    5    6 2     
   11    5   12 1     
   12    6    7 1     
   13    7    8 1     
   14    7    9 2     
   15    8   17 1     
   16    8   18 1     
   17    8   19 1     
   18    9   10 1     
   19    9   12 1     
   20   10   11 2     
   21   10   20 1     
@<TRIPOS>SUBSTRUCTURE
      1 ****           1
@<TRIPOS>COMMENT
> <Gold.Version>
2022.2.0

> <Gold.Id.Protein>
1qkm|1qkm_protein|mol2

> <Gold.Protein.RotatedTorsions>
[  496  491  490  487 ] final   99.25 input  -89.99 | X-H torsion

> <Gold.Protein.ActiveResidues>
 MET295  LEU298  THR299  LEU301  ALA302  GLU305  TRP335  MET336  LEU339  MET340 
 GLY342  LEU343  ARG346  PHE356  ILE373  ILE376  PHE377  LEU380  LYS471  GLY472 
 MET473  HIS475  LEU476  LEU477  ASN478  MET479  VAL484  VAL487 

> <Gold.Protein.RotatedAtoms>
   36.9049   32.9721   41.9081 H   0  0  0  0  0  0  0  0  0  0  0  0  # atno 496  bound_to 491 

> <Gold.Score>
     Score     S(PLP)   S(hbond)     S(cho)   S(metal)  DE(clash)   DE(tors)     intcor
     37.49     -37.51       0.00       0.00       0.00       0.00       0.01       0.00

> <Gold.PLP.Fitness>
37.4943

> <Gold.PLP.PLP>
-37.5056

> <Gold.PLP.part.hbond>
0.0000

> <Gold.PLP.part.metal>
0.0000

> <Gold.PLP.part.buried>
-2.6792

> <Gold.PLP.part.nonpolar>
-34.7249

> <Gold.PLP.part.repulsive>
0.1014

> <Gold.PLP.ligand.clash>
0.0000

> <Gold.PLP.ligand.torsion>
0.0057

> <Gold.PLP.Chemscore.Hbond>
0.0000

> <Gold.PLP.Chemscore.CHOScore>
0.0000

> <Gold.PLP.Chemscore.Metal>
0.0000

> <Gold.PLP.Chemscore.Internal.Correction>
0.0000

