#       Name:                EN300-00978_i001
#       Creating user name   aseyller
#       Creation time:       Fri Apr 21 16:30:00 2023


#       File generated by GOLD software.
#

@<TRIPOS>MOLECULE
EN300-00978_i001|benzaldehydes|mol2|27|dock6
    20    21     1
SMALL
USER_CHARGES


@<TRIPOS>ATOM
      1 C1          25.7521  37.4954  39.3651 C.3            1 <1>                0.0000
      2 C2          26.9437  36.8115  39.9844 C.2            1 <1>                0.0000
      3 C3          26.8167  36.1159  41.1031 C.2            1 <1>                0.0000
      4 S4          28.4401  35.4998  41.4604 S.3            1 <1>                0.0000
      5 C5          29.1812  36.2481  40.0361 C.2            1 <1>                0.0000
      6 N6          30.3193  36.4030  39.3824 N.2            1 <1>                0.0000
      7 C7          30.1187  37.1485  38.3068 C.2            1 <1>                0.0000
      8 C8          31.1647  37.5537  37.3003 C.3            1 <1>                0.0000
      9 C9          28.7763  37.4896  38.2706 C.2            1 <1>                0.0000
     10 C10         28.1346  38.2729  37.2974 C.2            1 <1>                0.0000
     11 O11         28.7764  39.0637  36.6338 O.2            1 <1>                0.0000
     12 N12         28.1811  36.8928  39.3965 N.pl3          1 <1>                0.0000
     13 H13         24.8685  37.3092  39.9756 H              1 <1>                0.0000
     14 H14         25.9366  38.5683  39.3107 H              1 <1>                0.0000
     15 H15         25.5892  37.1033  38.3612 H              1 <1>                0.0000
     16 H16         25.9155  35.9573  41.6767 H              1 <1>                0.0000
     17 H17         31.2168  36.8056  36.5093 H              1 <1>                0.0000
     18 H18         30.9001  38.5196  36.8702 H              1 <1>                0.0000
     19 H19         32.1337  37.6289  37.7937 H              1 <1>                0.0000
     20 H20         27.0710  38.1728  37.1388 H              1 <1>                0.0000
@<TRIPOS>BOND
    1    1    2 1     
    2    1   13 1     
    3    1   14 1     
    4    1   15 1     
    5    2    3 2     
    6    2   12 1     
    7    3    4 1     
    8    3   16 1     
    9    4    5 1     
   10    5    6 2     
   11    5   12 1     
   12    6    7 1     
   13    7    8 1     
   14    7    9 2     
   15    8   17 1     
   16    8   18 1     
   17    8   19 1     
   18    9   10 1     
   19    9   12 1     
   20   10   11 2     
   21   10   20 1     
@<TRIPOS>SUBSTRUCTURE
      1 ****           1
@<TRIPOS>COMMENT
> <Gold.Version>
2022.2.0

> <Gold.Id.Protein>
1qkm|1qkm_protein|mol2

> <Gold.Protein.RotatedTorsions>
[  496  491  490  487 ] final   -4.11 input  -89.99 | X-H torsion

> <Gold.Protein.ActiveResidues>
 MET295  LEU298  THR299  LEU301  ALA302  GLU305  TRP335  MET336  LEU339  MET340 
 GLY342  LEU343  ARG346  PHE356  ILE373  ILE376  PHE377  LEU380  LYS471  GLY472 
 MET473  HIS475  LEU476  LEU477  ASN478  MET479  VAL484  VAL487 

> <Gold.Protein.RotatedAtoms>
   36.2588   34.2711   42.2004 H   0  0  0  0  0  0  0  0  0  0  0  0  # atno 496  bound_to 491 

> <Gold.Score>
     Score     S(PLP)   S(hbond)     S(cho)   S(metal)  DE(clash)   DE(tors)     intcor
     42.13     -40.06       0.00       0.77       0.00       0.00       0.12       0.00

> <Gold.PLP.Fitness>
42.1333

> <Gold.PLP.PLP>
-40.0611

> <Gold.PLP.part.hbond>
0.0000

> <Gold.PLP.part.metal>
0.0000

> <Gold.PLP.part.buried>
-1.9666

> <Gold.PLP.part.nonpolar>
-38.0259

> <Gold.PLP.part.repulsive>
0.0886

> <Gold.PLP.ligand.clash>
0.0000

> <Gold.PLP.ligand.torsion>
0.1191

> <Gold.PLP.Chemscore.Hbond>
0.0000

> <Gold.PLP.Chemscore.CHOScore>
0.7701

> <Gold.PLP.Chemscore.Metal>
0.0000

> <Gold.Chemscore.Hbonds>
donor molecule, donor type, donor heavy atom, donor atom, acceptor molecule, acceptor atom, score
      L1  C     3    16       P1   582  0.77

> <Gold.PLP.Chemscore.Internal.Correction>
0.0000

