#       Name:                EN300-00978_i001
#       Creating user name   aseyller
#       Creation time:       Fri Apr 21 16:30:01 2023


#       File generated by GOLD software.
#

@<TRIPOS>MOLECULE
EN300-00978_i001|benzaldehydes|mol2|27|dock9
    20    21     1
SMALL
USER_CHARGES


@<TRIPOS>ATOM
      1 C1          31.4313  34.6231  38.7978 C.3            1 <1>                0.0000
      2 C2          31.9226  35.4832  37.6620 C.2            1 <1>                0.0000
      3 C3          32.9941  35.1361  36.9671 C.2            1 <1>                0.0000
      4 S4          33.2019  36.4126  35.7547 S.3            1 <1>                0.0000
      5 C5          31.7909  37.3375  36.2944 C.2            1 <1>                0.0000
      6 N6          31.0789  38.4275  36.0675 N.2            1 <1>                0.0000
      7 C7          30.0747  38.4924  36.9280 C.2            1 <1>                0.0000
      8 C8          29.0354  39.5814  36.9985 C.3            1 <1>                0.0000
      9 C9          30.1488  37.3807  37.7518 C.2            1 <1>                0.0000
     10 C10         29.2774  37.0556  38.8041 C.2            1 <1>                0.0000
     11 O11         29.7105  36.5313  39.8117 O.2            1 <1>                0.0000
     12 N12         31.2644  36.6389  37.3238 N.pl3          1 <1>                0.0000
     13 H13         32.0819  33.7550  38.9039 H              1 <1>                0.0000
     14 H14         31.4427  35.2007  39.7221 H              1 <1>                0.0000
     15 H15         30.4142  34.2915  38.5890 H              1 <1>                0.0000
     16 H16         33.6110  34.2610  37.1086 H              1 <1>                0.0000
     17 H17         28.1909  39.3196  36.3612 H              1 <1>                0.0000
     18 H18         28.6937  39.6914  38.0277 H              1 <1>                0.0000
     19 H19         29.4702  40.5211  36.6577 H              1 <1>                0.0000
     20 H20         28.2227  37.2711  38.7180 H              1 <1>                0.0000
@<TRIPOS>BOND
    1    1    2 1     
    2    1   13 1     
    3    1   14 1     
    4    1   15 1     
    5    2    3 2     
    6    2   12 1     
    7    3    4 1     
    8    3   16 1     
    9    4    5 1     
   10    5    6 2     
   11    5   12 1     
   12    6    7 1     
   13    7    8 1     
   14    7    9 2     
   15    8   17 1     
   16    8   18 1     
   17    8   19 1     
   18    9   10 1     
   19    9   12 1     
   20   10   11 2     
   21   10   20 1     
@<TRIPOS>SUBSTRUCTURE
      1 ****           1
@<TRIPOS>COMMENT
> <Gold.Version>
2022.2.0

> <Gold.Id.Protein>
1qkm|1qkm_protein|mol2

> <Gold.Protein.RotatedTorsions>
[  496  491  490  487 ] final  -12.29 input  -89.99 | X-H torsion

> <Gold.Protein.ActiveResidues>
 MET295  LEU298  THR299  LEU301  ALA302  GLU305  TRP335  MET336  LEU339  MET340 
 GLY342  LEU343  ARG346  PHE356  ILE373  ILE376  PHE377  LEU380  LYS471  GLY472 
 MET473  HIS475  LEU476  LEU477  ASN478  MET479  VAL484  VAL487 

> <Gold.Protein.RotatedAtoms>
   36.2651   34.3786   42.1198 H   0  0  0  0  0  0  0  0  0  0  0  0  # atno 496  bound_to 491 

> <Gold.Score>
     Score     S(PLP)   S(hbond)     S(cho)   S(metal)  DE(clash)   DE(tors)     intcor
     37.51     -38.04       0.00       0.00       0.00       0.00       0.27       0.00

> <Gold.PLP.Fitness>
37.5090

> <Gold.PLP.PLP>
-38.0401

> <Gold.PLP.part.hbond>
0.0000

> <Gold.PLP.part.metal>
0.0000

> <Gold.PLP.part.buried>
-2.5401

> <Gold.PLP.part.nonpolar>
-35.5961

> <Gold.PLP.part.repulsive>
0.0850

> <Gold.PLP.ligand.clash>
0.0000

> <Gold.PLP.ligand.torsion>
0.2656

> <Gold.PLP.Chemscore.Hbond>
0.0000

> <Gold.PLP.Chemscore.CHOScore>
0.0000

> <Gold.PLP.Chemscore.Metal>
0.0000

> <Gold.PLP.Chemscore.Internal.Correction>
0.0000

