#       Name:                EN300-00978_i001
#       Creating user name   aseyller
#       Creation time:       Fri Apr 21 16:29:59 2023


#       File generated by GOLD software.
#

@<TRIPOS>MOLECULE
EN300-00978_i001|benzaldehydes|mol2|27|dock3
    20    21     1
SMALL
USER_CHARGES


@<TRIPOS>ATOM
      1 C1          26.1862  38.1903  37.9063 C.3            1 <1>                0.0000
      2 C2          26.6969  37.1997  38.9207 C.2            1 <1>                0.0000
      3 C3          25.8902  36.7038  39.8453 C.2            1 <1>                0.0000
      4 S4          26.8948  35.6012  40.8033 S.3            1 <1>                0.0000
      5 C5          28.3613  35.9036  39.8568 C.2            1 <1>                0.0000
      6 N6          29.6398  35.5900  39.7402 N.2            1 <1>                0.0000
      7 C7          30.1708  36.2502  38.7228 C.2            1 <1>                0.0000
      8 C8          31.6033  36.1675  38.2620 C.3            1 <1>                0.0000
      9 C9          29.1753  37.0301  38.1566 C.2            1 <1>                0.0000
     10 C10         29.3065  37.8884  37.0527 C.2            1 <1>                0.0000
     11 O11         30.4008  38.0818  36.5600 O.2            1 <1>                0.0000
     12 N12         28.0063  36.7894  38.9006 N.pl3          1 <1>                0.0000
     13 H13         25.1285  38.3824  38.0865 H              1 <1>                0.0000
     14 H14         26.7449  39.1220  37.9951 H              1 <1>                0.0000
     15 H15         26.3157  37.7831  36.9035 H              1 <1>                0.0000
     16 H16         24.8424  36.9241  39.9864 H              1 <1>                0.0000
     17 H17         31.7013  35.3745  37.5207 H              1 <1>                0.0000
     18 H18         31.8975  37.1185  37.8178 H              1 <1>                0.0000
     19 H19         32.2470  35.9500  39.1142 H              1 <1>                0.0000
     20 H20         28.4353  38.3766  36.6417 H              1 <1>                0.0000
@<TRIPOS>BOND
    1    1    2 1     
    2    1   13 1     
    3    1   14 1     
    4    1   15 1     
    5    2    3 2     
    6    2   12 1     
    7    3    4 1     
    8    3   16 1     
    9    4    5 1     
   10    5    6 2     
   11    5   12 1     
   12    6    7 1     
   13    7    8 1     
   14    7    9 2     
   15    8   17 1     
   16    8   18 1     
   17    8   19 1     
   18    9   10 1     
   19    9   12 1     
   20   10   11 2     
   21   10   20 1     
@<TRIPOS>SUBSTRUCTURE
      1 ****           1
@<TRIPOS>COMMENT
> <Gold.Version>
2022.2.0

> <Gold.Id.Protein>
1qkm|1qkm_protein|mol2

> <Gold.Protein.RotatedTorsions>
[  496  491  490  487 ] final   61.64 input  -89.99 | X-H torsion

> <Gold.Protein.ActiveResidues>
 MET295  LEU298  THR299  LEU301  ALA302  GLU305  TRP335  MET336  LEU339  MET340 
 GLY342  LEU343  ARG346  PHE356  ILE373  ILE376  PHE377  LEU380  LYS471  GLY472 
 MET473  HIS475  LEU476  LEU477  ASN478  MET479  VAL484  VAL487 

> <Gold.Protein.RotatedAtoms>
   36.5652   33.2984   42.2926 H   0  0  0  0  0  0  0  0  0  0  0  0  # atno 496  bound_to 491 

> <Gold.Score>
     Score     S(PLP)   S(hbond)     S(cho)   S(metal)  DE(clash)   DE(tors)     intcor
     41.29     -38.32       0.00       1.00       0.00       0.00       0.01       0.00

> <Gold.PLP.Fitness>
41.2943

> <Gold.PLP.PLP>
-38.3171

> <Gold.PLP.part.hbond>
0.0000

> <Gold.PLP.part.metal>
0.0000

> <Gold.PLP.part.buried>
-2.9427

> <Gold.PLP.part.nonpolar>
-36.1643

> <Gold.PLP.part.repulsive>
0.0944

> <Gold.PLP.ligand.clash>
0.0000

> <Gold.PLP.ligand.torsion>
0.0074

> <Gold.PLP.Chemscore.Hbond>
0.0000

> <Gold.PLP.Chemscore.CHOScore>
0.9973

> <Gold.PLP.Chemscore.Metal>
0.0000

> <Gold.Chemscore.Hbonds>
donor molecule, donor type, donor heavy atom, donor atom, acceptor molecule, acceptor atom, score
      L1  C     3    16       P1  1131  1.00

> <Gold.PLP.Chemscore.Internal.Correction>
0.0000

