#       Name:                EN300-00978_i001
#       Creating user name   aseyller
#       Creation time:       Fri Apr 21 16:29:58 2023


#       File generated by GOLD software.
#

@<TRIPOS>MOLECULE
EN300-00978_i001
    20    21     1
SMALL
USER_CHARGES


@<TRIPOS>ATOM
      1 C1           1.4124   2.2199  -0.0004 C.3            1 <1>                0.0000
      2 C2           1.7033   0.7412  -0.0004 C.2            1 <1>                0.0000
      3 C3           2.9506   0.2987  -0.0006 C.2            1 <1>                0.0000
      4 S4           2.8221  -1.4694  -0.0005 S.3            1 <1>                0.0000
      5 C5           1.0507  -1.4725  -0.0001 C.2            1 <1>                0.0000
      6 N6          -0.0151  -2.2539  -0.0002 N.2            1 <1>                0.0000
      7 C7          -1.1123  -1.5129  -0.0003 C.2            1 <1>                0.0000
      8 C8          -2.5294  -2.0257  -0.0000 C.3            1 <1>                0.0000
      9 C9          -0.7262  -0.1822  -0.0002 C.2            1 <1>                0.0000
     10 C10         -1.5731   0.9381  -0.0002 C.2            1 <1>                0.0000
     11 O11         -2.7794   0.7880  -0.0008 O.2            1 <1>                0.0000
     12 N12          0.6802  -0.1734   0.0056 N.pl3          1 <1>                0.0000
     13 H13          2.3506   2.7748  -0.0011 H              1 <1>                0.0000
     14 H14          0.8376   2.4771  -0.8901 H              1 <1>                0.0000
     15 H15          0.8387   2.4774   0.8899 H              1 <1>                0.0000
     16 H16          3.8548   0.8893  -0.0008 H              1 <1>                0.0000
     17 H17         -2.8708  -2.1495   1.0277 H              1 <1>                0.0000
     18 H18         -3.1740  -1.3124  -0.5136 H              1 <1>                0.0000
     19 H19         -2.5683  -2.9861  -0.5140 H              1 <1>                0.0000
     20 H20         -1.1527   1.9329   0.0002 H              1 <1>                0.0000
@<TRIPOS>BOND
    1    1    2 1     
    2    1   13 1     
    3    1   14 1     
    4    1   15 1     
    5    2    3 2     
    6    2   12 1     
    7    3    4 1     
    8    3   16 1     
    9    4    5 1     
   10    5    6 2     
   11    5   12 1     
   12    6    7 1     
   13    7    8 1     
   14    7    9 2     
   15    8   17 1     
   16    8   18 1     
   17    8   19 1     
   18    9   10 1     
   19    9   12 1     
   20   10   11 2     
   21   10   20 1     
@<TRIPOS>SUBSTRUCTURE
      1 ****           1
