#       Name:                EN300-00978_i001
#       Creating user name   aseyller
#       Creation time:       Fri Apr 21 16:30:00 2023


#       File generated by GOLD software.
#

@<TRIPOS>MOLECULE
EN300-00978_i001|benzaldehydes|mol2|27|dock5
    20    21     1
SMALL
USER_CHARGES


@<TRIPOS>ATOM
      1 C1          30.3001  39.0404  36.6361 C.3            1 <1>                0.0000
      2 C2          31.3054  38.0877  36.0420 C.2            1 <1>                0.0000
      3 C3          31.9464  38.3930  34.9251 C.2            1 <1>                0.0000
      4 S4          33.0089  37.0116  34.6003 S.3            1 <1>                0.0000
      5 C5          32.4916  36.1080  36.0335 C.2            1 <1>                0.0000
      6 N6          32.6652  34.9840  36.7065 N.2            1 <1>                0.0000
      7 C7          31.8823  34.9772  37.7742 C.2            1 <1>                0.0000
      8 C8          31.7860  33.8745  38.7969 C.3            1 <1>                0.0000
      9 C9          31.1677  36.1642  37.7845 C.2            1 <1>                0.0000
     10 C10         30.2222  36.5671  38.7417 C.2            1 <1>                0.0000
     11 O11         29.9805  35.8530  39.6952 O.2            1 <1>                0.0000
     12 N12         31.5788  36.8889  36.6515 N.pl3          1 <1>                0.0000
     13 H13         30.2294  39.9305  36.0110 H              1 <1>                0.0000
     14 H14         29.3257  38.5545  36.6878 H              1 <1>                0.0000
     15 H15         30.6178  39.3251  37.6391 H              1 <1>                0.0000
     16 H16         31.8439  39.2926  34.3364 H              1 <1>                0.0000
     17 H17         32.5089  34.0531  39.5929 H              1 <1>                0.0000
     18 H18         30.7804  33.8553  39.2169 H              1 <1>                0.0000
     19 H19         31.9991  32.9176  38.3205 H              1 <1>                0.0000
     20 H20         29.7099  37.5114  38.6305 H              1 <1>                0.0000
@<TRIPOS>BOND
    1    1    2 1     
    2    1   13 1     
    3    1   14 1     
    4    1   15 1     
    5    2    3 2     
    6    2   12 1     
    7    3    4 1     
    8    3   16 1     
    9    4    5 1     
   10    5    6 2     
   11    5   12 1     
   12    6    7 1     
   13    7    8 1     
   14    7    9 2     
   15    8   17 1     
   16    8   18 1     
   17    8   19 1     
   18    9   10 1     
   19    9   12 1     
   20   10   11 2     
   21   10   20 1     
@<TRIPOS>SUBSTRUCTURE
      1 ****           1
@<TRIPOS>COMMENT
> <Gold.Version>
2022.2.0

> <Gold.Id.Protein>
1qkm|1qkm_protein|mol2

> <Gold.Protein.RotatedTorsions>
[  496  491  490  487 ] final   -3.11 input  -89.99 | X-H torsion

> <Gold.Protein.ActiveResidues>
 MET295  LEU298  THR299  LEU301  ALA302  GLU305  TRP335  MET336  LEU339  MET340 
 GLY342  LEU343  ARG346  PHE356  ILE373  ILE376  PHE377  LEU380  LYS471  GLY472 
 MET473  HIS475  LEU476  LEU477  ASN478  MET479  VAL484  VAL487 

> <Gold.Protein.RotatedAtoms>
   36.2588   34.2573   42.2094 H   0  0  0  0  0  0  0  0  0  0  0  0  # atno 496  bound_to 491 

> <Gold.Score>
     Score     S(PLP)   S(hbond)     S(cho)   S(metal)  DE(clash)   DE(tors)     intcor
     40.29     -40.29       0.00       0.00       0.00       0.00       0.00       0.00

> <Gold.PLP.Fitness>
40.2879

> <Gold.PLP.PLP>
-40.2889

> <Gold.PLP.part.hbond>
0.0000

> <Gold.PLP.part.metal>
0.0000

> <Gold.PLP.part.buried>
-3.4194

> <Gold.PLP.part.nonpolar>
-37.5759

> <Gold.PLP.part.repulsive>
0.3149

> <Gold.PLP.ligand.clash>
0.0000

> <Gold.PLP.ligand.torsion>
0.0005

> <Gold.PLP.Chemscore.Hbond>
0.0000

> <Gold.PLP.Chemscore.CHOScore>
0.0000

> <Gold.PLP.Chemscore.Metal>
0.0000

> <Gold.PLP.Chemscore.Internal.Correction>
0.0000

