#       Name:                EN300-00978_i001
#       Creating user name   aseyller
#       Creation time:       Fri Apr 21 16:30:00 2023


#       File generated by GOLD software.
#

@<TRIPOS>MOLECULE
EN300-00978_i001|benzaldehydes|mol2|27|dock4
    20    21     1
SMALL
USER_CHARGES


@<TRIPOS>ATOM
      1 C1          33.8077  36.0990  35.6807 C.3            1 <1>                0.0000
      2 C2          32.6938  37.1140  35.6918 C.2            1 <1>                0.0000
      3 C3          32.6264  38.0523  34.7609 C.2            1 <1>                0.0000
      4 S4          31.1853  39.0054  35.1577 S.3            1 <1>                0.0000
      5 C5          30.7768  38.0383  36.5845 C.2            1 <1>                0.0000
      6 N6          29.9088  37.9079  37.5725 N.2            1 <1>                0.0000
      7 C7          30.2491  36.8791  38.3331 C.2            1 <1>                0.0000
      8 C8          29.5148  36.4008  39.5592 C.3            1 <1>                0.0000
      9 C9          31.3999  36.3199  37.8013 C.2            1 <1>                0.0000
     10 C10         32.1003  35.2083  38.2975 C.2            1 <1>                0.0000
     11 O11         31.5566  34.4422  39.0690 O.2            1 <1>                0.0000
     12 N12         31.7259  37.0803  36.6640 N.pl3          1 <1>                0.0000
     13 H13         34.4661  36.2912  34.8335 H              1 <1>                0.0000
     14 H14         34.3768  36.1740  36.6073 H              1 <1>                0.0000
     15 H15         33.3861  35.0976  35.5932 H              1 <1>                0.0000
     16 H16         33.3052  38.2050  33.9349 H              1 <1>                0.0000
     17 H17         28.7655  35.6641  39.2697 H              1 <1>                0.0000
     18 H18         30.2227  35.9461  40.2523 H              1 <1>                0.0000
     19 H19         29.0254  37.2464  40.0425 H              1 <1>                0.0000
     20 H20         33.1219  35.0341  37.9937 H              1 <1>                0.0000
@<TRIPOS>BOND
    1    1    2 1     
    2    1   13 1     
    3    1   14 1     
    4    1   15 1     
    5    2    3 2     
    6    2   12 1     
    7    3    4 1     
    8    3   16 1     
    9    4    5 1     
   10    5    6 2     
   11    5   12 1     
   12    6    7 1     
   13    7    8 1     
   14    7    9 2     
   15    8   17 1     
   16    8   18 1     
   17    8   19 1     
   18    9   10 1     
   19    9   12 1     
   20   10   11 2     
   21   10   20 1     
@<TRIPOS>SUBSTRUCTURE
      1 ****           1
@<TRIPOS>COMMENT
> <Gold.Version>
2022.2.0

> <Gold.Id.Protein>
1qkm|1qkm_protein|mol2

> <Gold.Protein.RotatedTorsions>
[  496  491  490  487 ] final  -83.37 input  -89.99 | X-H torsion

> <Gold.Protein.ActiveResidues>
 MET295  LEU298  THR299  LEU301  ALA302  GLU305  TRP335  MET336  LEU339  MET340 
 GLY342  LEU343  ARG346  PHE356  ILE373  ILE376  PHE377  LEU380  LYS471  GLY472 
 MET473  HIS475  LEU476  LEU477  ASN478  MET479  VAL484  VAL487 

> <Gold.Protein.RotatedAtoms>
   36.6964   34.6913   41.1614 H   0  0  0  0  0  0  0  0  0  0  0  0  # atno 496  bound_to 491 

> <Gold.Score>
     Score     S(PLP)   S(hbond)     S(cho)   S(metal)  DE(clash)   DE(tors)     intcor
     40.96     -38.21       0.00       0.97       0.00       0.00       0.07       0.00

> <Gold.PLP.Fitness>
40.9634

> <Gold.PLP.PLP>
-38.2128

> <Gold.PLP.part.hbond>
0.0000

> <Gold.PLP.part.metal>
0.0000

> <Gold.PLP.part.buried>
-3.5464

> <Gold.PLP.part.nonpolar>
-34.4530

> <Gold.PLP.part.repulsive>
0.4662

> <Gold.PLP.ligand.clash>
0.0000

> <Gold.PLP.ligand.torsion>
0.0733

> <Gold.PLP.Chemscore.Hbond>
0.0000

> <Gold.PLP.Chemscore.CHOScore>
0.9657

> <Gold.PLP.Chemscore.Metal>
0.0000

> <Gold.Chemscore.Hbonds>
donor molecule, donor type, donor heavy atom, donor atom, acceptor molecule, acceptor atom, score
      L1  C     3    16       P1  3229  0.97

> <Gold.PLP.Chemscore.Internal.Correction>
0.0000

