#       Name:                EN300-00978_i001
#       Creating user name   aseyller
#       Creation time:       Fri Apr 21 16:30:02 2023


#       File generated by GOLD software.
#

@<TRIPOS>MOLECULE
EN300-00978_i001|benzaldehydes|mol2|27|dock14
    20    21     1
SMALL
USER_CHARGES


@<TRIPOS>ATOM
      1 C1          32.8377  36.9393  35.2241 C.3            1 <1>                0.0000
      2 C2          31.6391  37.7482  35.6485 C.2            1 <1>                0.0000
      3 C3          31.2513  38.8000  34.9450 C.2            1 <1>                0.0000
      4 S4          29.8300  39.4349  35.7934 S.3            1 <1>                0.0000
      5 C5          29.8719  38.1998  37.0625 C.2            1 <1>                0.0000
      6 N6          29.2693  37.7764  38.1598 N.2            1 <1>                0.0000
      7 C7          29.8940  36.7072  38.6283 C.2            1 <1>                0.0000
      8 C8          29.5164  35.9283  39.8620 C.3            1 <1>                0.0000
      9 C9          30.9562  36.4312  37.7826 C.2            1 <1>                0.0000
     10 C10         31.8801  35.3811  37.9095 C.2            1 <1>                0.0000
     11 O11         31.7089  34.5193  38.7495 O.2            1 <1>                0.0000
     12 N12         30.9245  37.4056  36.7688 N.pl3          1 <1>                0.0000
     13 H13         33.2615  37.3670  34.3155 H              1 <1>                0.0000
     14 H14         33.5860  36.9555  36.0165 H              1 <1>                0.0000
     15 H15         32.5326  35.9104  35.0333 H              1 <1>                0.0000
     16 H16         31.7044  39.1891  34.0452 H              1 <1>                0.0000
     17 H17         28.8169  35.1370  39.5922 H              1 <1>                0.0000
     18 H18         30.4112  35.4879  40.3017 H              1 <1>                0.0000
     19 H19         29.0478  36.5967  40.5843 H              1 <1>                0.0000
     20 H20         32.7427  35.3394  37.2610 H              1 <1>                0.0000
@<TRIPOS>BOND
    1    1    2 1     
    2    1   13 1     
    3    1   14 1     
    4    1   15 1     
    5    2    3 2     
    6    2   12 1     
    7    3    4 1     
    8    3   16 1     
    9    4    5 1     
   10    5    6 2     
   11    5   12 1     
   12    6    7 1     
   13    7    8 1     
   14    7    9 2     
   15    8   17 1     
   16    8   18 1     
   17    8   19 1     
   18    9   10 1     
   19    9   12 1     
   20   10   11 2     
   21   10   20 1     
@<TRIPOS>SUBSTRUCTURE
      1 ****           1
@<TRIPOS>COMMENT
> <Gold.Version>
2022.2.0

> <Gold.Id.Protein>
1qkm|1qkm_protein|mol2

> <Gold.Protein.RotatedTorsions>
[  496  491  490  487 ] final -149.37 input  -89.99 | X-H torsion

> <Gold.Protein.ActiveResidues>
 MET295  LEU298  THR299  LEU301  ALA302  GLU305  TRP335  MET336  LEU339  MET340 
 GLY342  LEU343  ARG346  PHE356  ILE373  ILE376  PHE377  LEU380  LYS471  GLY472 
 MET473  HIS475  LEU476  LEU477  ASN478  MET479  VAL484  VAL487 

> <Gold.Protein.RotatedAtoms>
   37.2280   33.9297   40.7222 H   0  0  0  0  0  0  0  0  0  0  0  0  # atno 496  bound_to 491 

> <Gold.Score>
     Score     S(PLP)   S(hbond)     S(cho)   S(metal)  DE(clash)   DE(tors)     intcor
     37.68     -37.70       0.00       0.00       0.00       0.00       0.01       0.00

> <Gold.PLP.Fitness>
37.6754

> <Gold.PLP.PLP>
-37.7046

> <Gold.PLP.part.hbond>
0.0000

> <Gold.PLP.part.metal>
0.0000

> <Gold.PLP.part.buried>
-2.9329

> <Gold.PLP.part.nonpolar>
-35.3014

> <Gold.PLP.part.repulsive>
0.0873

> <Gold.PLP.ligand.clash>
0.0000

> <Gold.PLP.ligand.torsion>
0.0146

> <Gold.PLP.Chemscore.Hbond>
0.0000

> <Gold.PLP.Chemscore.CHOScore>
0.0000

> <Gold.PLP.Chemscore.Metal>
0.0000

> <Gold.PLP.Chemscore.Internal.Correction>
0.0000

