#       Name:                EN300-00978_i001
#       Creating user name   aseyller
#       Creation time:       Fri Apr 21 16:30:02 2023


#       File generated by GOLD software.
#

@<TRIPOS>MOLECULE
EN300-00978_i001|benzaldehydes|mol2|27|dock11
    20    21     1
SMALL
USER_CHARGES


@<TRIPOS>ATOM
      1 C1          32.9957  35.7341  37.2459 C.3            1 <1>                0.0000
      2 C2          32.5546  36.6407  36.1258 C.2            1 <1>                0.0000
      3 C3          33.2787  36.7533  35.0237 C.2            1 <1>                0.0000
      4 S4          32.3999  37.9026  33.9992 S.3            1 <1>                0.0000
      5 C5          31.0915  38.1469  35.1681 C.2            1 <1>                0.0000
      6 N6          29.9588  38.7931  35.3824 N.2            1 <1>                0.0000
      7 C7          29.4780  38.4691  36.5727 C.2            1 <1>                0.0000
      8 C8          28.2050  38.9912  37.1876 C.3            1 <1>                0.0000
      9 C9          30.3528  37.5644  37.1523 C.2            1 <1>                0.0000
     10 C10         30.2247  36.9633  38.4151 C.2            1 <1>                0.0000
     11 O11         29.1996  37.1027  39.0534 O.2            1 <1>                0.0000
     12 N12         31.3913  37.3617  36.2258 N.pl3          1 <1>                0.0000
     13 H13         33.9342  35.2509  36.9741 H              1 <1>                0.0000
     14 H14         33.1386  36.3207  38.1533 H              1 <1>                0.0000
     15 H15         32.2334  34.9747  37.4203 H              1 <1>                0.0000
     16 H16         34.2077  36.2516  34.7966 H              1 <1>                0.0000
     17 H17         27.3751  38.3403  36.9127 H              1 <1>                0.0000
     18 H18         28.3072  39.0112  38.2726 H              1 <1>                0.0000
     19 H19         28.0121  39.9999  36.8222 H              1 <1>                0.0000
     20 H20         31.0370  36.3773  38.8192 H              1 <1>                0.0000
@<TRIPOS>BOND
    1    1    2 1     
    2    1   13 1     
    3    1   14 1     
    4    1   15 1     
    5    2    3 2     
    6    2   12 1     
    7    3    4 1     
    8    3   16 1     
    9    4    5 1     
   10    5    6 2     
   11    5   12 1     
   12    6    7 1     
   13    7    8 1     
   14    7    9 2     
   15    8   17 1     
   16    8   18 1     
   17    8   19 1     
   18    9   10 1     
   19    9   12 1     
   20   10   11 2     
   21   10   20 1     
@<TRIPOS>SUBSTRUCTURE
      1 ****           1
@<TRIPOS>COMMENT
> <Gold.Version>
2022.2.0

> <Gold.Id.Protein>
1qkm|1qkm_protein|mol2

> <Gold.Protein.RotatedTorsions>
[  496  491  490  487 ] final  -10.34 input  -89.99 | X-H torsion

> <Gold.Protein.ActiveResidues>
 MET295  LEU298  THR299  LEU301  ALA302  GLU305  TRP335  MET336  LEU339  MET340 
 GLY342  LEU343  ARG346  PHE356  ILE373  ILE376  PHE377  LEU380  LYS471  GLY472 
 MET473  HIS475  LEU476  LEU477  ASN478  MET479  VAL484  VAL487 

> <Gold.Protein.RotatedAtoms>
   36.2627   34.3539   42.1401 H   0  0  0  0  0  0  0  0  0  0  0  0  # atno 496  bound_to 491 

> <Gold.Score>
     Score     S(PLP)   S(hbond)     S(cho)   S(metal)  DE(clash)   DE(tors)     intcor
     39.22     -39.25       0.00       0.00       0.00       0.00       0.02       0.00

> <Gold.PLP.Fitness>
39.2200

> <Gold.PLP.PLP>
-39.2529

> <Gold.PLP.part.hbond>
0.0000

> <Gold.PLP.part.metal>
0.0000

> <Gold.PLP.part.buried>
-2.9146

> <Gold.PLP.part.nonpolar>
-36.4634

> <Gold.PLP.part.repulsive>
0.0260

> <Gold.PLP.ligand.clash>
0.0000

> <Gold.PLP.ligand.torsion>
0.0165

> <Gold.PLP.Chemscore.Hbond>
0.0000

> <Gold.PLP.Chemscore.CHOScore>
0.0000

> <Gold.PLP.Chemscore.Metal>
0.0000

> <Gold.PLP.Chemscore.Internal.Correction>
0.0000

