#       Name:                EN300-00978_i001
#       Creating user name   aseyller
#       Creation time:       Fri Apr 21 16:30:03 2023


#       File generated by GOLD software.
#

@<TRIPOS>MOLECULE
EN300-00978_i001|benzaldehydes|mol2|27|dock18
    20    21     1
SMALL
USER_CHARGES


@<TRIPOS>ATOM
      1 C1          32.3604  34.9075  37.6063 C.3            1 <1>                0.0000
      2 C2          31.2803  35.7749  38.1998 C.2            1 <1>                0.0000
      3 C3          30.6320  35.3948  39.2892 C.2            1 <1>                0.0000
      4 S4          29.4739  36.6945  39.6245 S.3            1 <1>                0.0000
      5 C5          29.9681  37.6731  38.2331 C.2            1 <1>                0.0000
      6 N6          29.7387  38.8035  37.5881 N.2            1 <1>                0.0000
      7 C7          30.5463  38.8932  36.5428 C.2            1 <1>                0.0000
      8 C8          30.5969  40.0308  35.5556 C.3            1 <1>                0.0000
      9 C9          31.3370  37.7557  36.5180 C.2            1 <1>                0.0000
     10 C10         32.3308  37.4439  35.5760 C.2            1 <1>                0.0000
     11 O11         32.5496  38.2009  34.6503 O.2            1 <1>                0.0000
     12 N12         30.9531  36.9771  37.6246 N.pl3          1 <1>                0.0000
     13 H13         32.4720  34.0045  38.2065 H              1 <1>                0.0000
     14 H14         32.0881  34.6347  36.5867 H              1 <1>                0.0000
     15 H15         33.3024  35.4559  37.5965 H              1 <1>                0.0000
     16 H16         30.7776  34.4860  39.8541 H              1 <1>                0.0000
     17 H17         31.3100  40.7796  35.9003 H              1 <1>                0.0000
     18 H18         30.9088  39.6531  34.5818 H              1 <1>                0.0000
     19 H19         29.6085  40.4823  35.4706 H              1 <1>                0.0000
     20 H20         32.9004  36.5316  35.6738 H              1 <1>                0.0000
@<TRIPOS>BOND
    1    1    2 1     
    2    1   13 1     
    3    1   14 1     
    4    1   15 1     
    5    2    3 2     
    6    2   12 1     
    7    3    4 1     
    8    3   16 1     
    9    4    5 1     
   10    5    6 2     
   11    5   12 1     
   12    6    7 1     
   13    7    8 1     
   14    7    9 2     
   15    8   17 1     
   16    8   18 1     
   17    8   19 1     
   18    9   10 1     
   19    9   12 1     
   20   10   11 2     
   21   10   20 1     
@<TRIPOS>SUBSTRUCTURE
      1 ****           1
@<TRIPOS>COMMENT
> <Gold.Version>
2022.2.0

> <Gold.Id.Protein>
1qkm|1qkm_protein|mol2

> <Gold.Protein.RotatedTorsions>
[  496  491  490  487 ] final  -65.52 input  -89.99 | X-H torsion

> <Gold.Protein.ActiveResidues>
 MET295  LEU298  THR299  LEU301  ALA302  GLU305  TRP335  MET336  LEU339  MET340 
 GLY342  LEU343  ARG346  PHE356  ILE373  ILE376  PHE377  LEU380  LYS471  GLY472 
 MET473  HIS475  LEU476  LEU477  ASN478  MET479  VAL484  VAL487 

> <Gold.Protein.RotatedAtoms>
   36.5409   34.7358   41.4053 H   0  0  0  0  0  0  0  0  0  0  0  0  # atno 496  bound_to 491 

> <Gold.Score>
     Score     S(PLP)   S(hbond)     S(cho)   S(metal)  DE(clash)   DE(tors)     intcor
     37.66     -35.97       0.00       0.56       0.00       0.00       0.00       0.00

> <Gold.PLP.Fitness>
37.6591

> <Gold.PLP.PLP>
-35.9731

> <Gold.PLP.part.hbond>
0.0000

> <Gold.PLP.part.metal>
0.0000

> <Gold.PLP.part.buried>
-1.0885

> <Gold.PLP.part.nonpolar>
-35.0515

> <Gold.PLP.part.repulsive>
0.1287

> <Gold.PLP.ligand.clash>
0.0000

> <Gold.PLP.ligand.torsion>
0.0004

> <Gold.PLP.Chemscore.Hbond>
0.0000

> <Gold.PLP.Chemscore.CHOScore>
0.5623

> <Gold.PLP.Chemscore.Metal>
0.0000

> <Gold.Chemscore.Hbonds>
donor molecule, donor type, donor heavy atom, donor atom, acceptor molecule, acceptor atom, score
      L1  C     3    16       P1   470  0.56

> <Gold.PLP.Chemscore.Internal.Correction>
0.0000

