#       Name:                EN300-00978_i001
#       Creating user name   aseyller
#       Creation time:       Fri Apr 21 16:29:59 2023


#       File generated by GOLD software.
#

@<TRIPOS>MOLECULE
EN300-00978_i001|benzaldehydes|mol2|27|dock1
    20    21     1
SMALL
USER_CHARGES


@<TRIPOS>ATOM
      1 C1          28.4756  35.5069  41.4330 C.3            1 <1>                0.0000
      2 C2          27.5177  36.2650  40.5505 C.2            1 <1>                0.0000
      3 C3          26.2384  36.3668  40.8739 C.2            1 <1>                0.0000
      4 S4          25.5006  37.3247  39.5775 S.3            1 <1>                0.0000
      5 C5          27.0146  37.5174  38.6784 C.2            1 <1>                0.0000
      6 N6          27.5517  38.0493  37.5944 N.2            1 <1>                0.0000
      7 C7          28.8457  37.7718  37.5547 C.2            1 <1>                0.0000
      8 C8          29.8122  38.1984  36.4800 C.3            1 <1>                0.0000
      9 C9          29.1534  37.0198  38.6771 C.2            1 <1>                0.0000
     10 C10         30.4152  36.5129  39.0284 C.2            1 <1>                0.0000
     11 O11         31.2879  36.4188  38.1875 O.2            1 <1>                0.0000
     12 N12         27.9556  36.8685  39.3984 N.pl3          1 <1>                0.0000
     13 H13         27.9389  35.1090  42.2943 H              1 <1>                0.0000
     14 H14         28.9168  34.6853  40.8687 H              1 <1>                0.0000
     15 H15         29.2639  36.1778  41.7744 H              1 <1>                0.0000
     16 H16         25.7480  35.9540  41.7431 H              1 <1>                0.0000
     17 H17         30.2457  39.1631  36.7434 H              1 <1>                0.0000
     18 H18         30.6053  37.4562  36.3892 H              1 <1>                0.0000
     19 H19         29.2845  38.2843  35.5301 H              1 <1>                0.0000
     20 H20         30.6100  36.2065  40.0455 H              1 <1>                0.0000
@<TRIPOS>BOND
    1    1    2 1     
    2    1   13 1     
    3    1   14 1     
    4    1   15 1     
    5    2    3 2     
    6    2   12 1     
    7    3    4 1     
    8    3   16 1     
    9    4    5 1     
   10    5    6 2     
   11    5   12 1     
   12    6    7 1     
   13    7    8 1     
   14    7    9 2     
   15    8   17 1     
   16    8   18 1     
   17    8   19 1     
   18    9   10 1     
   19    9   12 1     
   20   10   11 2     
   21   10   20 1     
@<TRIPOS>SUBSTRUCTURE
      1 ****           1
@<TRIPOS>COMMENT
> <Gold.Version>
2022.2.0

> <Gold.Id.Protein>
1qkm|1qkm_protein|mol2

> <Gold.Protein.RotatedTorsions>
[  496  491  490  487 ] final  -84.21 input  -89.99 | X-H torsion

> <Gold.Protein.ActiveResidues>
 MET295  LEU298  THR299  LEU301  ALA302  GLU305  TRP335  MET336  LEU339  MET340 
 GLY342  LEU343  ARG346  PHE356  ILE373  ILE376  PHE377  LEU380  LYS471  GLY472 
 MET473  HIS475  LEU476  LEU477  ASN478  MET479  VAL484  VAL487 

> <Gold.Protein.RotatedAtoms>
   36.7041   34.6871   41.1507 H   0  0  0  0  0  0  0  0  0  0  0  0  # atno 496  bound_to 491 

> <Gold.Score>
     Score     S(PLP)   S(hbond)     S(cho)   S(metal)  DE(clash)   DE(tors)     intcor
     43.36     -40.51       0.00       1.00       0.00       0.00       0.08       0.00

> <Gold.PLP.Fitness>
43.3627

> <Gold.PLP.PLP>
-40.5134

> <Gold.PLP.part.hbond>
0.0000

> <Gold.PLP.part.metal>
0.0000

> <Gold.PLP.part.buried>
-3.1243

> <Gold.PLP.part.nonpolar>
-37.1905

> <Gold.PLP.part.repulsive>
0.0451

> <Gold.PLP.ligand.clash>
0.0000

> <Gold.PLP.ligand.torsion>
0.0754

> <Gold.PLP.Chemscore.Hbond>
0.0000

> <Gold.PLP.Chemscore.CHOScore>
1.0000

> <Gold.PLP.Chemscore.Metal>
0.0000

> <Gold.Chemscore.Hbonds>
donor molecule, donor type, donor heavy atom, donor atom, acceptor molecule, acceptor atom, score
      L1  C     3    16       P1   582  1.00

> <Gold.PLP.Chemscore.Internal.Correction>
0.0000

