#       Name:                EN300-395701_i002
#       Creating user name   fsindt
#       Creation time:       Mon Feb 27 22:05:44 2023


#       File generated by GOLD software.
#

@<TRIPOS>MOLECULE
EN300-395701_i002|amine_3|mol2|975|dock2
    43    43     1
SMALL
USER_CHARGES


@<TRIPOS>ATOM
      1 C1           0.6382 -11.7014   8.7007 C.3            1 <1>                0.0000
      2 C2           0.6334 -13.0444   7.9679 C.3            1 <1>                0.0000
      3 C3          -0.8066 -13.5406   7.8220 C.3            1 <1>                0.0000
      4 C4           1.2560 -12.8709   6.5811 C.3            1 <1>                0.0000
      5 O5           1.4043 -14.0127   8.7269 O.3            1 <1>                0.0000
      6 C6           0.9159 -14.3771   9.9275 C.2            1 <1>                0.0000
      7 O7           0.0168 -13.7379  10.4370 O.2            1 <1>                0.0000
      8 N8           1.4241 -15.4509  10.5641 N.am           1 <1>                0.0000
      9 C9           0.8925 -15.8474  11.8704 C.3            1 <1>                0.0000
     10 C10          2.0486 -16.0428  12.8553 C.3            1 <1>                0.0000
     11 C11          1.4921 -16.5155  14.2003 C.3            1 <1>                0.0000
     12 N12          0.7652 -17.7778  14.0142 N.3            1 <1>                0.0000
     13 C13          0.3354 -18.3329  15.3046 C.3            1 <1>                0.0000
     14 C14          0.7890 -19.7904  15.4093 C.3            1 <1>                0.0000
     15 N15          0.5136 -20.2928  16.7620 N.4            1 <1>                1.0000
     16 C16         -0.3780 -17.6039  13.1090 C.3            1 <1>                0.0000
     17 C17          0.1227 -17.1636  11.7316 C.3            1 <1>                0.0000
     18 H18          0.1946 -11.8250   9.6887 H              1 <1>                0.0000
     19 H19          1.6641 -11.3479   8.8047 H              1 <1>                0.0000
     20 H20          0.0594 -10.9744   8.1309 H              1 <1>                0.0000
     21 H21         -1.3854 -12.8137   7.2522 H              1 <1>                0.0000
     22 H22         -0.8101 -14.4974   7.2998 H              1 <1>                0.0000
     23 H23         -1.2502 -13.6642   8.8099 H              1 <1>                0.0000
     24 H24          2.2819 -12.5175   6.6851 H              1 <1>                0.0000
     25 H25          1.2526 -13.8277   6.0591 H              1 <1>                0.0000
     26 H26          0.6772 -12.1440   6.0113 H              1 <1>                0.0000
     27 H27          0.2243 -15.0709  12.2426 H              1 <1>                0.0000
     28 H28          2.7380 -16.7907  12.4636 H              1 <1>                0.0000
     29 H29          2.5746 -15.0979  12.9911 H              1 <1>                0.0000
     30 H30          2.3140 -16.6693  14.8996 H              1 <1>                0.0000
     31 H31          0.8134 -15.7609  14.5980 H              1 <1>                0.0000
     32 H32          0.7797 -17.7549  16.1149 H              1 <1>                0.0000
     33 H33         -0.7512 -18.2844  15.3770 H              1 <1>                0.0000
     34 H34          0.2468 -20.3930  14.6806 H              1 <1>                0.0000
     35 H35          1.8585 -19.8533  15.2092 H              1 <1>                0.0000
     36 H36         -0.9143 -18.5482  13.0159 H              1 <1>                0.0000
     37 H37         -1.0478 -16.8442  13.5119 H              1 <1>                0.0000
     38 H38         -0.7272 -17.0196  11.0645 H              1 <1>                0.0000
     39 H39          0.7818 -17.9292  11.3221 H              1 <1>                0.0000
     40 H40          2.1418 -15.9612  10.1573 H              1 <1>                0.0000
     41 H41          1.1817 -19.9010  17.4087 H              1 <1>                0.0000
     42 H42         -0.4189 -20.0235  17.0375 H              1 <1>                0.0000
     43 H43          0.5890 -21.2989  16.7690 H              1 <1>                0.0000
@<TRIPOS>BOND
    1    1    2 1     
    2    1   18 1     
    3    1   19 1     
    4    1   20 1     
    5    2    3 1     
    6    2    4 1     
    7    2    5 1     
    8    3   21 1     
    9    3   22 1     
   10    3   23 1     
   11    4   24 1     
   12    4   25 1     
   13    4   26 1     
   14    5    6 1     
   15    6    7 2     
   16    6    8 am    
   17    8    9 1     
   18    8   40 1     
   19    9   10 1     
   20    9   17 1     
   21    9   27 1     
   22   10   11 1     
   23   10   28 1     
   24   10   29 1     
   25   11   12 1     
   26   11   30 1     
   27   11   31 1     
   28   12   13 1     
   29   12   16 1     
   30   13   14 1     
   31   13   32 1     
   32   13   33 1     
   33   14   15 1     
   34   14   34 1     
   35   14   35 1     
   36   15   41 1     
   37   15   42 1     
   38   15   43 1     
   39   16   17 1     
   40   16   36 1     
   41   16   37 1     
   42   17   38 1     
   43   17   39 1     
@<TRIPOS>SUBSTRUCTURE
      1 ****           1
@<TRIPOS>SET
DONOR_HYDROGENS      STATIC     ATOMS    <user>   **** ""
4 40 41 42 43
ATOM$RED        STATIC     ATOMS    COLORGROUP SYSTEM
4 40 41 42 43
@<TRIPOS>COMMENT
> <Gold.Version>
2022.2.0

> <Gold.Id.Protein>
3pbl|protein|mol2

> <Gold.Protein.RotatedTorsions>
[ 1303 1298 1297 1294 ] final  -66.27 input  179.99 | X-H torsion
[ 2461 2456 2455 2452 ] final -110.23 input   30.03 | X-H torsion
[ 2515 2510 2509 2506 ] final  -32.40 input  -89.99 | X-H torsion
[ 3721 3712 3711 3710 ] final  -99.20 input -179.91 | X-H torsion
[ 3841 3832 3831 3830 ] final  105.43 input -179.91 | X-H torsion
[ 3767 3762 3761 3758 ] final   28.69 input  -89.99 | X-H torsion
[ 2472 2467 2466 2463 ] final  -72.23 input  -89.97 | X-H torsion

> <Gold.Protein.ActiveResidues>
 VAL82   VAL86   LEU89   PHE106  VAL107  ASP110  VAL111  MET112  CYS114  THR115 
 CYS181  SER182  ILE183  PHE188  VAL189  ILE190  SER192  SER193  SER196  TRP342 
 PHE345  PHE346  HIS349  VAL350  TYR365  THR369  GLY372  TYR373 

> <Gold.Protein.RotatedAtoms>
    3.5557   -8.8908    3.7842 H   0  0  0  0  0  0  0  0  0  0  0  0  # atno 1303 bound_to 1298
    0.4795   -9.1014    7.9467 H   0  0  0  0  0  0  0  0  0  0  0  0  # atno 2461 bound_to 2456
   -3.8323   -5.2560    9.1170 H   0  0  0  0  0  0  0  0  0  0  0  0  # atno 2472 bound_to 2467
    2.7323   -8.0597    4.3745 H   0  0  0  0  0  0  0  0  0  0  0  0  # atno 2515 bound_to 2510
   -3.0901  -16.8455   14.6192 H   0  0  0  0  0  0  0  0  0  0  0  0  # atno 3721 bound_to 3712
   -5.0000  -23.0437   10.0638 H   0  0  0  0  0  0  0  0  0  0  0  0  # atno 3767 bound_to 3762
    2.9870  -20.8400    9.1007 H   0  0  0  0  0  0  0  0  0  0  0  0  # atno 3841 bound_to 3832
    4.8831   -8.9594    4.7327 LP  0  0  0  0  0  0  0  0  0  0  0  0  # atno 4297 bound_to 1298
    3.9235  -10.2713    4.5749 LP  0  0  0  0  0  0  0  0  0  0  0  0  # atno 4298 bound_to 1298
    2.0626   -8.7613    8.1596 LP  0  0  0  0  0  0  0  0  0  0  0  0  # atno 4299 bound_to 2456
    1.1954   -7.9456    7.0419 LP  0  0  0  0  0  0  0  0  0  0  0  0  # atno 4300 bound_to 2456
    2.5160   -9.2348    5.4872 LP  0  0  0  0  0  0  0  0  0  0  0  0  # atno 4301 bound_to 2510
    2.0483   -7.7047    5.8139 LP  0  0  0  0  0  0  0  0  0  0  0  0  # atno 4302 bound_to 2510
   -3.3504  -17.0614   13.0497 LP  0  0  0  0  0  0  0  0  0  0  0  0  # atno 4306 bound_to 3712
   -2.6098  -18.2164   13.9352 LP  0  0  0  0  0  0  0  0  0  0  0  0  # atno 4307 bound_to 3712
    1.4586  -20.4284    9.3668 LP  0  0  0  0  0  0  0  0  0  0  0  0  # atno 4314 bound_to 3832
    2.3203  -19.7035    8.1842 LP  0  0  0  0  0  0  0  0  0  0  0  0  # atno 4315 bound_to 3832
   -5.2110  -21.9187   11.2285 LP  0  0  0  0  0  0  0  0  0  0  0  0  # atno 4318 bound_to 3762
   -3.9164  -22.9128   11.2785 LP  0  0  0  0  0  0  0  0  0  0  0  0  # atno 4319 bound_to 3762
   -5.4412   -5.3358    8.8497 LP  0  0  0  0  0  0  0  0  0  0  0  0  # atno 4320 bound_to 2467
   -4.4434   -4.8018    7.6725 LP  0  0  0  0  0  0  0  0  0  0  0  0  # atno 4321 bound_to 2467

> <Gold.Score>
     Score     S(PLP)   S(hbond)     S(cho)   S(metal)  DE(clash)   DE(tors)     intcor
     45.00     -40.76       1.94       0.00       0.00       0.14       0.98       0.49

> <Gold.PLP.Fitness>
44.9956

> <Gold.PLP.PLP>
-40.7645

> <Gold.PLP.part.hbond>
-2.0000

> <Gold.PLP.part.metal>
0.0000

> <Gold.PLP.part.buried>
-4.1126

> <Gold.PLP.part.nonpolar>
-36.1528

> <Gold.PLP.part.repulsive>
0.1698

> <Gold.PLP.ligand.clash>
0.1402

> <Gold.PLP.ligand.torsion>
0.9758

> <Gold.PLP.Chemscore.Hbond>
1.9440

> <Gold.PLP.Chemscore.CHOScore>
0.0000

> <Gold.PLP.Chemscore.Metal>
0.0000

> <Gold.Chemscore.Hbonds>
donor molecule, donor type, donor heavy atom, donor atom, acceptor molecule, acceptor atom, score
      L1  H     8    40       P1  1227  0.94
      L1  H    15    41       P1  2287  1.00

> <Gold.PLP.Chemscore.Internal.Correction>
0.4909

