#       Name:                EN300-395701_i002
#       Creating user name   fsindt
#       Creation time:       Mon Feb 27 22:05:46 2023


#       File generated by GOLD software.
#

@<TRIPOS>MOLECULE
EN300-395701_i002|amine_3|mol2|975|dock3
    43    43     1
SMALL
USER_CHARGES


@<TRIPOS>ATOM
      1 C1          -0.3871 -10.3374  10.5274 C.3            1 <1>                0.0000
      2 C2          -1.5824 -11.2044  10.1269 C.3            1 <1>                0.0000
      3 C3          -2.8401 -10.3361  10.0526 C.3            1 <1>                0.0000
      4 C4          -1.3180 -11.8369   8.7591 C.3            1 <1>                0.0000
      5 O5          -1.7743 -12.2506  11.1151 O.3            1 <1>                0.0000
      6 C6          -0.7944 -13.1663  11.2340 C.2            1 <1>                0.0000
      7 O7           0.2600 -13.0068  10.6516 O.2            1 <1>                0.0000
      8 N8          -0.9831 -14.2597  11.9991 N.am           1 <1>                0.0000
      9 C9           0.0832 -15.2560  12.1285 C.3            1 <1>                0.0000
     10 C10         -0.3200 -16.5356  11.3905 C.3            1 <1>                0.0000
     11 C11          0.7700 -17.5930  11.5801 C.3            1 <1>                0.0000
     12 N12          0.9442 -17.8668  13.0123 N.3            1 <1>                0.0000
     13 C13          1.8839 -18.9756  13.2258 C.3            1 <1>                0.0000
     14 C14          1.5177 -20.1394  12.3026 C.3            1 <1>                0.0000
     15 N15          2.3632 -20.0967  11.1020 N.4            1 <1>                1.0000
     16 C16          1.3772 -16.6635  13.7341 C.3            1 <1>                0.0000
     17 C17          0.3054 -15.5784  13.6087 C.3            1 <1>                0.0000
     18 H18         -0.5756  -9.8867  11.5019 H              1 <1>                0.0000
     19 H19          0.5088 -10.9560  10.5804 H              1 <1>                0.0000
     20 H20         -0.2430  -9.5519   9.7856 H              1 <1>                0.0000
     21 H21         -2.6960  -9.5506   9.3107 H              1 <1>                0.0000
     22 H22         -3.6916 -10.9537   9.7671 H              1 <1>                0.0000
     23 H23         -3.0285  -9.8854  11.0270 H              1 <1>                0.0000
     24 H24         -0.4220 -12.4555   8.8120 H              1 <1>                0.0000
     25 H25         -2.1695 -12.4546   8.4737 H              1 <1>                0.0000
     26 H26         -1.1739 -11.0515   8.0172 H              1 <1>                0.0000
     27 H27          1.0039 -14.8621  11.6982 H              1 <1>                0.0000
     28 H28         -1.2617 -16.9073  11.7941 H              1 <1>                0.0000
     29 H29         -0.4381 -16.3213  10.3283 H              1 <1>                0.0000
     30 H30          0.4794 -18.5101  11.0677 H              1 <1>                0.0000
     31 H31          1.7083 -17.2262  11.1637 H              1 <1>                0.0000
     32 H32          2.8972 -18.6408  13.0042 H              1 <1>                0.0000
     33 H33          1.8285 -19.3038  14.2638 H              1 <1>                0.0000
     34 H34          1.6771 -21.0822  12.8258 H              1 <1>                0.0000
     35 H35          0.4703 -20.0573  12.0125 H              1 <1>                0.0000
     36 H36          1.5277 -16.9056  14.7862 H              1 <1>                0.0000
     37 H37          2.3126 -16.3011  13.3076 H              1 <1>                0.0000
     38 H38          0.6341 -14.6802  14.1314 H              1 <1>                0.0000
     39 H39         -0.6265 -15.9350  14.0474 H              1 <1>                0.0000
     40 H40         -1.8248 -14.3870  12.4641 H              1 <1>                0.0000
     41 H41          3.2127 -20.6145  11.2705 H              1 <1>                0.0000
     42 H42          1.8667 -20.5082  10.3261 H              1 <1>                0.0000
     43 H43          2.5912 -19.1380  10.8852 H              1 <1>                0.0000
@<TRIPOS>BOND
    1    1    2 1     
    2    1   18 1     
    3    1   19 1     
    4    1   20 1     
    5    2    3 1     
    6    2    4 1     
    7    2    5 1     
    8    3   21 1     
    9    3   22 1     
   10    3   23 1     
   11    4   24 1     
   12    4   25 1     
   13    4   26 1     
   14    5    6 1     
   15    6    7 2     
   16    6    8 am    
   17    8    9 1     
   18    8   40 1     
   19    9   10 1     
   20    9   17 1     
   21    9   27 1     
   22   10   11 1     
   23   10   28 1     
   24   10   29 1     
   25   11   12 1     
   26   11   30 1     
   27   11   31 1     
   28   12   13 1     
   29   12   16 1     
   30   13   14 1     
   31   13   32 1     
   32   13   33 1     
   33   14   15 1     
   34   14   34 1     
   35   14   35 1     
   36   15   41 1     
   37   15   42 1     
   38   15   43 1     
   39   16   17 1     
   40   16   36 1     
   41   16   37 1     
   42   17   38 1     
   43   17   39 1     
@<TRIPOS>SUBSTRUCTURE
      1 ****           1
@<TRIPOS>SET
DONOR_HYDROGENS      STATIC     ATOMS    <user>   **** ""
4 40 41 42 43
ATOM$RED        STATIC     ATOMS    COLORGROUP SYSTEM
4 40 41 42 43
@<TRIPOS>COMMENT
> <Gold.Version>
2022.2.0

> <Gold.Id.Protein>
3pbl|protein|mol2

> <Gold.Protein.RotatedTorsions>
[ 1303 1298 1297 1294 ] final  -30.40 input  179.99 | X-H torsion
[ 2461 2456 2455 2452 ] final   61.86 input   30.03 | X-H torsion
[ 2515 2510 2509 2506 ] final  -73.05 input  -89.99 | X-H torsion
[ 3721 3712 3711 3710 ] final -164.21 input -179.91 | X-H torsion
[ 3841 3832 3831 3830 ] final -156.10 input -179.91 | X-H torsion
[ 3767 3762 3761 3758 ] final  167.55 input  -89.99 | X-H torsion
[ 2472 2467 2466 2463 ] final -158.51 input  -89.97 | X-H torsion

> <Gold.Protein.ActiveResidues>
 VAL82   VAL86   LEU89   PHE106  VAL107  ASP110  VAL111  MET112  CYS114  THR115 
 CYS181  SER182  ILE183  PHE188  VAL189  ILE190  SER192  SER193  SER196  TRP342 
 PHE345  PHE346  HIS349  VAL350  TYR365  THR369  GLY372  TYR373 

> <Gold.Protein.RotatedAtoms>
    3.3383   -9.4260    3.8408 H   0  0  0  0  0  0  0  0  0  0  0  0  # atno 1303 bound_to 1298
    1.9361   -8.0439    7.3987 H   0  0  0  0  0  0  0  0  0  0  0  0  # atno 2461 bound_to 2456
   -5.0991   -5.4474    9.2615 H   0  0  0  0  0  0  0  0  0  0  0  0  # atno 2472 bound_to 2467
    2.8357   -8.7009    4.4569 H   0  0  0  0  0  0  0  0  0  0  0  0  # atno 2515 bound_to 2510
   -3.3388  -16.5424   13.7750 H   0  0  0  0  0  0  0  0  0  0  0  0  # atno 3721 bound_to 3712
   -3.9978  -22.6868   11.4729 H   0  0  0  0  0  0  0  0  0  0  0  0  # atno 3767 bound_to 3762
    2.7048  -19.8041    8.3479 H   0  0  0  0  0  0  0  0  0  0  0  0  # atno 3841 bound_to 3832
    4.6142   -8.5710    4.3951 LP  0  0  0  0  0  0  0  0  0  0  0  0  # atno 4297 bound_to 1298
    4.4100  -10.1243    4.8559 LP  0  0  0  0  0  0  0  0  0  0  0  0  # atno 4298 bound_to 1298
    0.3801   -8.5375    7.3487 LP  0  0  0  0  0  0  0  0  0  0  0  0  # atno 4299 bound_to 2456
    1.4218   -9.2266    8.4007 LP  0  0  0  0  0  0  0  0  0  0  0  0  # atno 4300 bound_to 2456
    2.2386   -8.8837    5.9655 LP  0  0  0  0  0  0  0  0  0  0  0  0  # atno 4301 bound_to 2510
    2.2222   -7.4143    5.2532 LP  0  0  0  0  0  0  0  0  0  0  0  0  # atno 4302 bound_to 2510
   -2.8342  -17.9429   13.1736 LP  0  0  0  0  0  0  0  0  0  0  0  0  # atno 4306 bound_to 3712
   -2.8387  -17.6849   14.7860 LP  0  0  0  0  0  0  0  0  0  0  0  0  # atno 4307 bound_to 3712
    2.7127  -21.1442    9.2311 LP  0  0  0  0  0  0  0  0  0  0  0  0  # atno 4314 bound_to 3832
    1.3922  -20.1845    9.1895 LP  0  0  0  0  0  0  0  0  0  0  0  0  # atno 4315 bound_to 3832
   -4.7431  -23.2071   10.1162 LP  0  0  0  0  0  0  0  0  0  0  0  0  # atno 4318 bound_to 3762
   -5.3863  -21.9811   10.9821 LP  0  0  0  0  0  0  0  0  0  0  0  0  # atno 4319 bound_to 3762
   -4.9809   -4.8830    7.7338 LP  0  0  0  0  0  0  0  0  0  0  0  0  # atno 4320 bound_to 2467
   -3.6371   -5.0632    8.6440 LP  0  0  0  0  0  0  0  0  0  0  0  0  # atno 4321 bound_to 2467

> <Gold.Score>
     Score     S(PLP)   S(hbond)     S(cho)   S(metal)  DE(clash)   DE(tors)     intcor
     43.87     -37.16       2.69       0.00       0.00       0.82       0.51       0.49

> <Gold.PLP.Fitness>
43.8708

> <Gold.PLP.PLP>
-37.1616

> <Gold.PLP.part.hbond>
-1.7019

> <Gold.PLP.part.metal>
0.0000

> <Gold.PLP.part.buried>
1.9048

> <Gold.PLP.part.nonpolar>
-39.1053

> <Gold.PLP.part.repulsive>
0.2022

> <Gold.PLP.ligand.clash>
0.8248

> <Gold.PLP.ligand.torsion>
0.5105

> <Gold.PLP.Chemscore.Hbond>
2.6880

> <Gold.PLP.Chemscore.CHOScore>
0.0000

> <Gold.PLP.Chemscore.Metal>
0.0000

> <Gold.Chemscore.Hbonds>
donor molecule, donor type, donor heavy atom, donor atom, acceptor molecule, acceptor atom, score
      L1  H    15    42       P1  3832  0.69
      L1  H    15    43       P1  1227  2.00

> <Gold.PLP.Chemscore.Internal.Correction>
0.4909

