#       Name:                EN300-395701_i002
#       Creating user name   fsindt
#       Creation time:       Mon Feb 27 22:06:09 2023


#       File generated by GOLD software.
#

@<TRIPOS>MOLECULE
EN300-395701_i002|amine_3|mol2|975|dock17
    43    43     1
SMALL
USER_CHARGES


@<TRIPOS>ATOM
      1 C1           0.8144 -16.5037  14.4026 C.3            1 <1>                0.0000
      2 C2           1.1608 -17.1319  13.0512 C.3            1 <1>                0.0000
      3 C3           2.4151 -17.9959  13.1970 C.3            1 <1>                0.0000
      4 C4          -0.0058 -18.0021  12.5793 C.3            1 <1>                0.0000
      5 O5           1.4064 -16.0825  12.0783 O.3            1 <1>                0.0000
      6 C6           0.3737 -15.2718  11.7799 C.2            1 <1>                0.0000
      7 O7          -0.6718 -15.3696  12.3912 O.2            1 <1>                0.0000
      8 N8           0.4998 -14.3517  10.8032 N.am           1 <1>                0.0000
      9 C9          -0.6239 -13.4695  10.4785 C.3            1 <1>                0.0000
     10 C10         -0.2435 -12.5690   9.2999 C.3            1 <1>                0.0000
     11 C11         -1.3979 -11.6086   9.0046 C.3            1 <1>                0.0000
     12 N12         -1.6763 -10.7954  10.1952 N.3            1 <1>                0.0000
     13 C13         -2.6851  -9.7673   9.9064 C.3            1 <1>                0.0000
     14 C14         -4.0212 -10.4400   9.5849 C.3            1 <1>                0.0000
     15 N15         -4.8445 -10.4991  10.8001 N.4            1 <1>                1.0000
     16 C16         -2.0895 -11.6349  11.3270 C.3            1 <1>                0.0000
     17 C17         -0.9559 -12.5961  11.6915 C.3            1 <1>                0.0000
     18 H18          1.6455 -15.8837  14.7388 H              1 <1>                0.0000
     19 H19         -0.0792 -15.8881  14.2987 H              1 <1>                0.0000
     20 H20          0.6300 -17.2915  15.1330 H              1 <1>                0.0000
     21 H21          2.2308 -18.7837  13.9274 H              1 <1>                0.0000
     22 H22          2.6619 -18.4436  12.2344 H              1 <1>                0.0000
     23 H23          3.2462 -17.3760  13.5333 H              1 <1>                0.0000
     24 H24         -0.8994 -17.3866  12.4754 H              1 <1>                0.0000
     25 H25          0.2410 -18.4497  11.6166 H              1 <1>                0.0000
     26 H26         -0.1902 -18.7899  13.3097 H              1 <1>                0.0000
     27 H27         -1.4934 -14.0703  10.2121 H              1 <1>                0.0000
     28 H28          0.6498 -11.9977   9.5518 H              1 <1>                0.0000
     29 H29         -0.0474 -13.1833   8.4211 H              1 <1>                0.0000
     30 H30         -1.1246 -10.9565   8.1751 H              1 <1>                0.0000
     31 H31         -2.2872 -12.1804   8.7393 H              1 <1>                0.0000
     32 H32         -2.8038  -9.1205  10.7756 H              1 <1>                0.0000
     33 H33         -2.3630  -9.1722   9.0519 H              1 <1>                0.0000
     34 H34         -4.5429  -9.8646   8.8202 H              1 <1>                0.0000
     35 H35         -3.8404 -11.4506   9.2190 H              1 <1>                0.0000
     36 H36         -2.3187 -11.0018  12.1842 H              1 <1>                0.0000
     37 H37         -2.9756 -12.2065  11.0508 H              1 <1>                0.0000
     38 H38         -1.2687 -13.2296  12.5215 H              1 <1>                0.0000
     39 H39         -0.0737 -12.0251  11.9812 H              1 <1>                0.0000
     40 H40          1.3344 -14.2735  10.3152 H              1 <1>                0.0000
     41 H41         -5.5432 -11.2199  10.6981 H              1 <1>                0.0000
     42 H42         -4.2581 -10.7090  11.5938 H              1 <1>                0.0000
     43 H43         -5.2979  -9.6091  10.9428 H              1 <1>                0.0000
@<TRIPOS>BOND
    1    1    2 1     
    2    1   18 1     
    3    1   19 1     
    4    1   20 1     
    5    2    3 1     
    6    2    4 1     
    7    2    5 1     
    8    3   21 1     
    9    3   22 1     
   10    3   23 1     
   11    4   24 1     
   12    4   25 1     
   13    4   26 1     
   14    5    6 1     
   15    6    7 2     
   16    6    8 am    
   17    8    9 1     
   18    8   40 1     
   19    9   10 1     
   20    9   17 1     
   21    9   27 1     
   22   10   11 1     
   23   10   28 1     
   24   10   29 1     
   25   11   12 1     
   26   11   30 1     
   27   11   31 1     
   28   12   13 1     
   29   12   16 1     
   30   13   14 1     
   31   13   32 1     
   32   13   33 1     
   33   14   15 1     
   34   14   34 1     
   35   14   35 1     
   36   15   41 1     
   37   15   42 1     
   38   15   43 1     
   39   16   17 1     
   40   16   36 1     
   41   16   37 1     
   42   17   38 1     
   43   17   39 1     
@<TRIPOS>SUBSTRUCTURE
      1 ****           1
@<TRIPOS>SET
DONOR_HYDROGENS      STATIC     ATOMS    <user>   **** ""
4 40 41 42 43
ATOM$RED        STATIC     ATOMS    COLORGROUP SYSTEM
4 40 41 42 43
@<TRIPOS>COMMENT
> <Gold.Version>
2022.2.0

> <Gold.Id.Protein>
3pbl|protein|mol2

> <Gold.Protein.RotatedTorsions>
[ 1303 1298 1297 1294 ] final  109.20 input  179.99 | X-H torsion
[ 2461 2456 2455 2452 ] final   54.88 input   30.03 | X-H torsion
[ 2515 2510 2509 2506 ] final  168.99 input  -89.99 | X-H torsion
[ 3721 3712 3711 3710 ] final  107.69 input -179.91 | X-H torsion
[ 3841 3832 3831 3830 ] final  -80.56 input -179.91 | X-H torsion
[ 3767 3762 3761 3758 ] final  131.52 input  -89.99 | X-H torsion
[ 2472 2467 2466 2463 ] final  157.56 input  -89.97 | X-H torsion

> <Gold.Protein.ActiveResidues>
 VAL82   VAL86   LEU89   PHE106  VAL107  ASP110  VAL111  MET112  CYS114  THR115 
 CYS181  SER182  ILE183  PHE188  VAL189  ILE190  SER192  SER193  SER196  TRP342 
 PHE345  PHE346  HIS349  VAL350  TYR365  THR369  GLY372  TYR373 

> <Gold.Protein.RotatedAtoms>
    4.6399   -9.9149    4.9350 H   0  0  0  0  0  0  0  0  0  0  0  0  # atno 1303 bound_to 1298
    1.8579   -7.9996    7.3272 H   0  0  0  0  0  0  0  0  0  0  0  0  # atno 2461 bound_to 2456
   -5.4899   -5.2868    8.6967 H   0  0  0  0  0  0  0  0  0  0  0  0  # atno 2472 bound_to 2467
    2.2515   -8.9096    5.9484 H   0  0  0  0  0  0  0  0  0  0  0  0  # atno 2515 bound_to 2510
   -2.9164  -17.3944   13.0357 H   0  0  0  0  0  0  0  0  0  0  0  0  # atno 3721 bound_to 3712
   -3.9153  -23.0914   11.0609 H   0  0  0  0  0  0  0  0  0  0  0  0  # atno 3767 bound_to 3762
    1.7587  -19.6598    8.8045 H   0  0  0  0  0  0  0  0  0  0  0  0  # atno 3841 bound_to 3832
    3.3441   -9.7240    3.9599 LP  0  0  0  0  0  0  0  0  0  0  0  0  # atno 4297 bound_to 1298
    4.3780   -8.4823    4.1965 LP  0  0  0  0  0  0  0  0  0  0  0  0  # atno 4298 bound_to 1298
    0.3504   -8.6210    7.4217 LP  0  0  0  0  0  0  0  0  0  0  0  0  # atno 4299 bound_to 2456
    1.5296   -9.1874    8.3991 LP  0  0  0  0  0  0  0  0  0  0  0  0  # atno 4300 bound_to 2456
    2.2101   -7.4187    5.2841 LP  0  0  0  0  0  0  0  0  0  0  0  0  # atno 4301 bound_to 2510
    2.8352   -8.6706    4.4424 LP  0  0  0  0  0  0  0  0  0  0  0  0  # atno 4302 bound_to 2510
   -2.6709  -18.0232   14.4925 LP  0  0  0  0  0  0  0  0  0  0  0  0  # atno 4306 bound_to 3712
   -3.4898  -16.6209   14.3205 LP  0  0  0  0  0  0  0  0  0  0  0  0  # atno 4307 bound_to 3712
    3.0903  -20.4434    8.3699 LP  0  0  0  0  0  0  0  0  0  0  0  0  # atno 4314 bound_to 3832
    2.1074  -21.0519    9.5233 LP  0  0  0  0  0  0  0  0  0  0  0  0  # atno 4315 bound_to 3832
   -5.2080  -22.8560   10.0912 LP  0  0  0  0  0  0  0  0  0  0  0  0  # atno 4318 bound_to 3762
   -5.0038  -21.9278   11.4191 LP  0  0  0  0  0  0  0  0  0  0  0  0  # atno 4319 bound_to 3762
   -4.2809   -4.7988    7.7137 LP  0  0  0  0  0  0  0  0  0  0  0  0  # atno 4320 bound_to 2467
   -3.9463   -5.3080    9.2288 LP  0  0  0  0  0  0  0  0  0  0  0  0  # atno 4321 bound_to 2467

> <Gold.Score>
     Score     S(PLP)   S(hbond)     S(cho)   S(metal)  DE(clash)   DE(tors)     intcor
     44.04     -45.34       0.00       0.00       0.00       1.16       0.29       0.45

> <Gold.PLP.Fitness>
44.0433

> <Gold.PLP.PLP>
-45.3439

> <Gold.PLP.part.hbond>
0.0000

> <Gold.PLP.part.metal>
0.0000

> <Gold.PLP.part.buried>
-5.1390

> <Gold.PLP.part.nonpolar>
-40.9716

> <Gold.PLP.part.repulsive>
0.3905

> <Gold.PLP.ligand.clash>
1.1602

> <Gold.PLP.ligand.torsion>
0.2950

> <Gold.PLP.Chemscore.Hbond>
0.0000

> <Gold.PLP.Chemscore.CHOScore>
0.0000

> <Gold.PLP.Chemscore.Metal>
0.0000

> <Gold.PLP.Chemscore.Internal.Correction>
0.4496

