#       Name:                EN300-395701_i002
#       Creating user name   fsindt
#       Creation time:       Mon Feb 27 22:06:03 2023


#       File generated by GOLD software.
#

@<TRIPOS>MOLECULE
EN300-395701_i002|amine_3|mol2|975|dock14
    43    43     1
SMALL
USER_CHARGES


@<TRIPOS>ATOM
      1 C1           2.0689 -16.2089  13.8976 C.3            1 <1>                0.0000
      2 C2           0.9801 -17.2828  13.9435 C.3            1 <1>                0.0000
      3 C3           1.5404 -18.5498  14.5929 C.3            1 <1>                0.0000
      4 C4          -0.2063 -16.7715  14.7633 C.3            1 <1>                0.0000
      5 O5           0.5409 -17.5848  12.5929 O.3            1 <1>                0.0000
      6 C6           0.2168 -16.5403  11.8076 C.2            1 <1>                0.0000
      7 O7          -0.1864 -15.5079  12.3056 O.2            1 <1>                0.0000
      8 N8           0.3396 -16.6399  10.4691 N.am           1 <1>                0.0000
      9 C9          -0.0131 -15.5033   9.6147 C.3            1 <1>                0.0000
     10 C10          0.0492 -15.9292   8.1452 C.3            1 <1>                0.0000
     11 C11         -0.2605 -14.7229   7.2559 C.3            1 <1>                0.0000
     12 N12          0.7155 -13.6573   7.5171 N.3            1 <1>                0.0000
     13 C13          0.5342 -12.5370   6.5842 C.3            1 <1>                0.0000
     14 C14          1.7105 -11.5677   6.7164 C.3            1 <1>                0.0000
     15 N15          2.3246 -11.3602   5.3981 N.4            1 <1>                1.0000
     16 C16          0.6415 -13.1992   8.9103 C.3            1 <1>                0.0000
     17 C17          0.9781 -14.3600   9.8489 C.3            1 <1>                0.0000
     18 H18          2.9141 -16.5732  13.3136 H              1 <1>                0.0000
     19 H19          1.6697 -15.3062  13.4349 H              1 <1>                0.0000
     20 H20          2.3986 -15.9821  14.9115 H              1 <1>                0.0000
     21 H21          1.8702 -18.3230  15.6067 H              1 <1>                0.0000
     22 H22          0.7647 -19.3148  14.6257 H              1 <1>                0.0000
     23 H23          2.3856 -18.9140  14.0089 H              1 <1>                0.0000
     24 H24         -0.6054 -15.8688  14.3006 H              1 <1>                0.0000
     25 H25         -0.9820 -17.5364  14.7960 H              1 <1>                0.0000
     26 H26          0.1235 -16.5447  15.7772 H              1 <1>                0.0000
     27 H27         -1.0218 -15.1670   9.8539 H              1 <1>                0.0000
     28 H28          1.0472 -16.3032   7.9166 H              1 <1>                0.0000
     29 H29         -0.6848 -16.7140   7.9623 H              1 <1>                0.0000
     30 H30         -0.2030 -15.0194   6.2086 H              1 <1>                0.0000
     31 H31         -1.2640 -14.3580   7.4753 H              1 <1>                0.0000
     32 H32          0.4898 -12.9176   5.5638 H              1 <1>                0.0000
     33 H33         -0.3942 -12.0160   6.8183 H              1 <1>                0.0000
     34 H34          1.3535 -10.6139   7.1051 H              1 <1>                0.0000
     35 H35          2.4499 -11.9847   7.4000 H              1 <1>                0.0000
     36 H36          1.3542 -12.3890   9.0645 H              1 <1>                0.0000
     37 H37         -0.3662 -12.8414   9.1219 H              1 <1>                0.0000
     38 H38          0.9079 -14.0237  10.8833 H              1 <1>                0.0000
     39 H39          1.9908 -14.7092   9.6472 H              1 <1>                0.0000
     40 H40          0.6615 -17.4641  10.0716 H              1 <1>                0.0000
     41 H41          1.6532 -11.5768   4.6767 H              1 <1>                0.0000
     42 H42          2.6146 -10.3979   5.3098 H              1 <1>                0.0000
     43 H43          3.1275 -11.9637   5.3024 H              1 <1>                0.0000
@<TRIPOS>BOND
    1    1    2 1     
    2    1   18 1     
    3    1   19 1     
    4    1   20 1     
    5    2    3 1     
    6    2    4 1     
    7    2    5 1     
    8    3   21 1     
    9    3   22 1     
   10    3   23 1     
   11    4   24 1     
   12    4   25 1     
   13    4   26 1     
   14    5    6 1     
   15    6    7 2     
   16    6    8 am    
   17    8    9 1     
   18    8   40 1     
   19    9   10 1     
   20    9   17 1     
   21    9   27 1     
   22   10   11 1     
   23   10   28 1     
   24   10   29 1     
   25   11   12 1     
   26   11   30 1     
   27   11   31 1     
   28   12   13 1     
   29   12   16 1     
   30   13   14 1     
   31   13   32 1     
   32   13   33 1     
   33   14   15 1     
   34   14   34 1     
   35   14   35 1     
   36   15   41 1     
   37   15   42 1     
   38   15   43 1     
   39   16   17 1     
   40   16   36 1     
   41   16   37 1     
   42   17   38 1     
   43   17   39 1     
@<TRIPOS>SUBSTRUCTURE
      1 ****           1
@<TRIPOS>SET
DONOR_HYDROGENS      STATIC     ATOMS    <user>   **** ""
4 40 41 42 43
ATOM$RED        STATIC     ATOMS    COLORGROUP SYSTEM
4 40 41 42 43
@<TRIPOS>COMMENT
> <Gold.Version>
2022.2.0

> <Gold.Id.Protein>
3pbl|protein|mol2

> <Gold.Protein.RotatedTorsions>
[ 1303 1298 1297 1294 ] final   66.35 input  179.99 | X-H torsion
[ 2461 2456 2455 2452 ] final  167.57 input   30.03 | X-H torsion
[ 2515 2510 2509 2506 ] final  -33.09 input  -89.99 | X-H torsion
[ 3721 3712 3711 3710 ] final -178.06 input -179.91 | X-H torsion
[ 3841 3832 3831 3830 ] final  -56.81 input -179.91 | X-H torsion
[ 3767 3762 3761 3758 ] final  -19.54 input  -89.99 | X-H torsion
[ 2472 2467 2466 2463 ] final  -56.03 input  -89.97 | X-H torsion

> <Gold.Protein.ActiveResidues>
 VAL82   VAL86   LEU89   PHE106  VAL107  ASP110  VAL111  MET112  CYS114  THR115 
 CYS181  SER182  ILE183  PHE188  VAL189  ILE190  SER192  SER193  SER196  TRP342 
 PHE345  PHE346  HIS349  VAL350  TYR365  THR369  GLY372  TYR373 

> <Gold.Protein.RotatedAtoms>
    4.0954  -10.2579    4.6897 H   0  0  0  0  0  0  0  0  0  0  0  0  # atno 1303 bound_to 1298
    1.6381   -9.1371    8.3869 H   0  0  0  0  0  0  0  0  0  0  0  0  # atno 2461 bound_to 2456
   -3.7009   -5.1650    8.9048 H   0  0  0  0  0  0  0  0  0  0  0  0  # atno 2472 bound_to 2467
    2.7355   -8.0704    4.3723 H   0  0  0  0  0  0  0  0  0  0  0  0  # atno 2515 bound_to 2510
   -3.3256  -16.5967   13.5736 H   0  0  0  0  0  0  0  0  0  0  0  0  # atno 3721 bound_to 3712
   -5.4603  -22.4757   10.3070 H   0  0  0  0  0  0  0  0  0  0  0  0  # atno 3767 bound_to 3762
    1.5987  -19.8413    9.0661 H   0  0  0  0  0  0  0  0  0  0  0  0  # atno 3841 bound_to 3832
    3.4485   -9.0678    3.7778 LP  0  0  0  0  0  0  0  0  0  0  0  0  # atno 4297 bound_to 1298
    4.8183   -8.7952    4.6239 LP  0  0  0  0  0  0  0  0  0  0  0  0  # atno 4298 bound_to 1298
    1.7662   -7.9631    7.2587 LP  0  0  0  0  0  0  0  0  0  0  0  0  # atno 4299 bound_to 2456
    0.3336   -8.7081    7.5028 LP  0  0  0  0  0  0  0  0  0  0  0  0  # atno 4300 bound_to 2456
    2.5112   -9.2323    5.4973 LP  0  0  0  0  0  0  0  0  0  0  0  0  # atno 4301 bound_to 2510
    2.0498   -7.6966    5.8061 LP  0  0  0  0  0  0  0  0  0  0  0  0  # atno 4302 bound_to 2510
   -2.7438  -18.0748   13.3403 LP  0  0  0  0  0  0  0  0  0  0  0  0  # atno 4306 bound_to 3712
   -2.9443  -17.4903   14.8518 LP  0  0  0  0  0  0  0  0  0  0  0  0  # atno 4307 bound_to 3712
    2.9175  -20.1331    8.1991 LP  0  0  0  0  0  0  0  0  0  0  0  0  # atno 4314 bound_to 3832
    2.4651  -21.1525    9.3919 LP  0  0  0  0  0  0  0  0  0  0  0  0  # atno 4315 bound_to 3832
   -4.5768  -22.0979   11.6274 LP  0  0  0  0  0  0  0  0  0  0  0  0  # atno 4318 bound_to 3762
   -4.0905  -23.3013   10.6365 LP  0  0  0  0  0  0  0  0  0  0  0  0  # atno 4319 bound_to 3762
   -5.3082   -5.4007    9.0703 LP  0  0  0  0  0  0  0  0  0  0  0  0  # atno 4320 bound_to 2467
   -4.7076   -4.8278    7.6641 LP  0  0  0  0  0  0  0  0  0  0  0  0  # atno 4321 bound_to 2467

> <Gold.Score>
     Score     S(PLP)   S(hbond)     S(cho)   S(metal)  DE(clash)   DE(tors)     intcor
     49.81     -45.02       2.04       0.00       0.00       0.00       0.90       0.45

> <Gold.PLP.Fitness>
49.8057

> <Gold.PLP.PLP>
-45.0226

> <Gold.PLP.part.hbond>
-4.0000

> <Gold.PLP.part.metal>
0.0000

> <Gold.PLP.part.buried>
-5.6272

> <Gold.PLP.part.nonpolar>
-36.7570

> <Gold.PLP.part.repulsive>
0.2994

> <Gold.PLP.ligand.clash>
0.0000

> <Gold.PLP.ligand.torsion>
0.8982

> <Gold.PLP.Chemscore.Hbond>
2.0433

> <Gold.PLP.Chemscore.CHOScore>
0.0000

> <Gold.PLP.Chemscore.Metal>
0.0000

> <Gold.Chemscore.Hbonds>
donor molecule, donor type, donor heavy atom, donor atom, acceptor molecule, acceptor atom, score
      L1  H     8    40       P1  1227  0.35
      L1  H    15    42       P1  2510  0.69
      L1  H    15    43       P1  1235  1.00

> <Gold.PLP.Chemscore.Internal.Correction>
0.4496

