#       Name:                EN300-395701_i002
#       Creating user name   fsindt
#       Creation time:       Mon Feb 27 22:06:11 2023


#       File generated by GOLD software.
#

@<TRIPOS>MOLECULE
EN300-395701_i002|amine_3|mol2|975|dock18
    43    43     1
SMALL
USER_CHARGES


@<TRIPOS>ATOM
      1 C1           0.0280 -22.1342  12.5980 C.3            1 <1>                0.0000
      2 C2          -0.3517 -22.1148  14.0800 C.3            1 <1>                0.0000
      3 C3          -1.8452 -22.4123  14.2278 C.3            1 <1>                0.0000
      4 C4           0.4563 -23.1775  14.8275 C.3            1 <1>                0.0000
      5 O5          -0.0616 -20.8057  14.6369 O.3            1 <1>                0.0000
      6 C6          -0.4672 -19.7359  13.9271 C.2            1 <1>                0.0000
      7 O7          -1.4551 -19.8125  13.2239 O.2            1 <1>                0.0000
      8 N8           0.2226 -18.5801  13.9967 N.am           1 <1>                0.0000
      9 C9          -0.2187 -17.4161  13.2244 C.3            1 <1>                0.0000
     10 C10         -0.0424 -17.6971  11.7295 C.3            1 <1>                0.0000
     11 C11         -0.4476 -16.4561  10.9308 C.3            1 <1>                0.0000
     12 N12          0.3878 -15.3181  11.3351 N.3            1 <1>                0.0000
     13 C13          0.1219 -14.1443  10.4927 C.3            1 <1>                0.0000
     14 C14          0.3801 -14.4993   9.0271 C.3            1 <1>                0.0000
     15 N15          1.8201 -14.7026   8.8190 N.4            1 <1>                1.0000
     16 C16          0.1996 -14.9996  12.7562 C.3            1 <1>                0.0000
     17 C17          0.6240 -16.1971  13.6093 C.3            1 <1>                0.0000
     18 H18         -0.5477 -21.3771  12.0655 H              1 <1>                0.0000
     19 H19          1.0921 -21.9222  12.4928 H              1 <1>                0.0000
     20 H20         -0.1898 -23.1170  12.1799 H              1 <1>                0.0000
     21 H21         -2.0630 -23.3951  13.8097 H              1 <1>                0.0000
     22 H22         -2.1158 -22.3986  15.2835 H              1 <1>                0.0000
     23 H23         -2.4209 -21.6553  13.6953 H              1 <1>                0.0000
     24 H24          1.5204 -22.9655  14.7222 H              1 <1>                0.0000
     25 H25          0.1859 -23.1637  15.8832 H              1 <1>                0.0000
     26 H26          0.2386 -24.1603  14.4093 H              1 <1>                0.0000
     27 H27         -1.2690 -17.2156  13.4359 H              1 <1>                0.0000
     28 H28          1.0009 -17.9370  11.5248 H              1 <1>                0.0000
     29 H29         -0.6731 -18.5378  11.4404 H              1 <1>                0.0000
     30 H30         -0.3097 -16.6481   9.8667 H              1 <1>                0.0000
     31 H31         -1.4949 -16.2250  11.1253 H              1 <1>                0.0000
     32 H32         -0.9169 -13.8375  10.6147 H              1 <1>                0.0000
     33 H33          0.7794 -13.3274  10.7901 H              1 <1>                0.0000
     34 H34         -0.1561 -15.4142   8.7749 H              1 <1>                0.0000
     35 H35          0.0321 -13.6866   8.3896 H              1 <1>                0.0000
     36 H36          0.8075 -14.1335  13.0178 H              1 <1>                0.0000
     37 H37         -0.8508 -14.7753  12.9421 H              1 <1>                0.0000
     38 H38          0.4696 -15.9660  14.6633 H              1 <1>                0.0000
     39 H39          1.6779 -16.4133  13.4343 H              1 <1>                0.0000
     40 H40          1.0113 -18.5190  14.5581 H              1 <1>                0.0000
     41 H41          2.3380 -14.1029   9.4437 H              1 <1>                0.0000
     42 H42          2.0544 -15.6659   9.0062 H              1 <1>                0.0000
     43 H43          2.0570 -14.4782   7.8643 H              1 <1>                0.0000
@<TRIPOS>BOND
    1    1    2 1     
    2    1   18 1     
    3    1   19 1     
    4    1   20 1     
    5    2    3 1     
    6    2    4 1     
    7    2    5 1     
    8    3   21 1     
    9    3   22 1     
   10    3   23 1     
   11    4   24 1     
   12    4   25 1     
   13    4   26 1     
   14    5    6 1     
   15    6    7 2     
   16    6    8 am    
   17    8    9 1     
   18    8   40 1     
   19    9   10 1     
   20    9   17 1     
   21    9   27 1     
   22   10   11 1     
   23   10   28 1     
   24   10   29 1     
   25   11   12 1     
   26   11   30 1     
   27   11   31 1     
   28   12   13 1     
   29   12   16 1     
   30   13   14 1     
   31   13   32 1     
   32   13   33 1     
   33   14   15 1     
   34   14   34 1     
   35   14   35 1     
   36   15   41 1     
   37   15   42 1     
   38   15   43 1     
   39   16   17 1     
   40   16   36 1     
   41   16   37 1     
   42   17   38 1     
   43   17   39 1     
@<TRIPOS>SUBSTRUCTURE
      1 ****           1
@<TRIPOS>SET
DONOR_HYDROGENS      STATIC     ATOMS    <user>   **** ""
4 40 41 42 43
ATOM$RED        STATIC     ATOMS    COLORGROUP SYSTEM
4 40 41 42 43
@<TRIPOS>COMMENT
> <Gold.Version>
2022.2.0

> <Gold.Id.Protein>
3pbl|protein|mol2

> <Gold.Protein.RotatedTorsions>
[ 1303 1298 1297 1294 ] final -140.44 input  179.99 | X-H torsion
[ 2461 2456 2455 2452 ] final   12.54 input   30.03 | X-H torsion
[ 2515 2510 2509 2506 ] final   48.00 input  -89.99 | X-H torsion
[ 3721 3712 3711 3710 ] final   36.33 input -179.91 | X-H torsion
[ 3841 3832 3831 3830 ] final   71.38 input -179.91 | X-H torsion
[ 3767 3762 3761 3758 ] final -172.70 input  -89.99 | X-H torsion
[ 2472 2467 2466 2463 ] final -127.54 input  -89.97 | X-H torsion

> <Gold.Protein.ActiveResidues>
 VAL82   VAL86   LEU89   PHE106  VAL107  ASP110  VAL111  MET112  CYS114  THR115 
 CYS181  SER182  ILE183  PHE188  VAL189  ILE190  SER192  SER193  SER196  TRP342 
 PHE345  PHE346  HIS349  VAL350  TYR365  THR369  GLY372  TYR373 

> <Gold.Protein.RotatedAtoms>
    4.4994   -8.5134    4.2936 H   0  0  0  0  0  0  0  0  0  0  0  0  # atno 1303 bound_to 1298
    1.2396   -7.9366    7.0485 H   0  0  0  0  0  0  0  0  0  0  0  0  # atno 2461 bound_to 2456
   -4.6247   -5.4559    9.4299 H   0  0  0  0  0  0  0  0  0  0  0  0  # atno 2472 bound_to 2467
    2.2162   -7.4168    5.2692 H   0  0  0  0  0  0  0  0  0  0  0  0  # atno 2515 bound_to 2510
   -2.4967  -18.0228   13.7064 H   0  0  0  0  0  0  0  0  0  0  0  0  # atno 3721 bound_to 3712
   -4.1652  -22.4438   11.6057 H   0  0  0  0  0  0  0  0  0  0  0  0  # atno 3767 bound_to 3762
    2.6216  -20.9572    9.4318 H   0  0  0  0  0  0  0  0  0  0  0  0  # atno 3841 bound_to 3832
    4.5329  -10.0276    4.9038 LP  0  0  0  0  0  0  0  0  0  0  0  0  # atno 4297 bound_to 1298
    3.3297   -9.5806    3.8942 LP  0  0  0  0  0  0  0  0  0  0  0  0  # atno 4298 bound_to 1298
    0.4564   -9.0780    7.9152 LP  0  0  0  0  0  0  0  0  0  0  0  0  # atno 4299 bound_to 2456
    2.0417   -8.7934    8.1843 LP  0  0  0  0  0  0  0  0  0  0  0  0  # atno 4300 bound_to 2456
    2.8355   -8.6855    4.4492 LP  0  0  0  0  0  0  0  0  0  0  0  0  # atno 4301 bound_to 2510
    2.2451   -8.8973    5.9569 LP  0  0  0  0  0  0  0  0  0  0  0  0  # atno 4302 bound_to 2510
   -3.1810  -17.0832   14.8139 LP  0  0  0  0  0  0  0  0  0  0  0  0  # atno 4306 bound_to 3712
   -3.4642  -16.8355   13.2249 LP  0  0  0  0  0  0  0  0  0  0  0  0  # atno 4307 bound_to 3712
    1.4057  -19.9968    9.0131 LP  0  0  0  0  0  0  0  0  0  0  0  0  # atno 4314 bound_to 3832
    2.7953  -19.9998    8.1554 LP  0  0  0  0  0  0  0  0  0  0  0  0  # atno 4315 bound_to 3832
   -4.4702  -23.3107   10.2557 LP  0  0  0  0  0  0  0  0  0  0  0  0  # atno 4318 bound_to 3762
   -5.4918  -22.1205   10.7100 LP  0  0  0  0  0  0  0  0  0  0  0  0  # atno 4319 bound_to 3762
   -5.3570   -5.0323    8.0333 LP  0  0  0  0  0  0  0  0  0  0  0  0  # atno 4320 bound_to 2467
   -3.7352   -4.9054    8.1761 LP  0  0  0  0  0  0  0  0  0  0  0  0  # atno 4321 bound_to 2467

> <Gold.Score>
     Score     S(PLP)   S(hbond)     S(cho)   S(metal)  DE(clash)   DE(tors)     intcor
     40.66     -32.54       2.94       0.00       0.00       0.00       0.58       0.45

> <Gold.PLP.Fitness>
40.6642

> <Gold.PLP.PLP>
-32.5429

> <Gold.PLP.part.hbond>
-2.0000

> <Gold.PLP.part.metal>
0.0000

> <Gold.PLP.part.buried>
-4.1717

> <Gold.PLP.part.nonpolar>
-26.8935

> <Gold.PLP.part.repulsive>
0.1465

> <Gold.PLP.ligand.clash>
0.0000

> <Gold.PLP.ligand.torsion>
0.5779

> <Gold.PLP.Chemscore.Hbond>
2.9425

> <Gold.PLP.Chemscore.CHOScore>
0.0000

> <Gold.PLP.Chemscore.Metal>
0.0000

> <Gold.Chemscore.Hbonds>
donor molecule, donor type, donor heavy atom, donor atom, acceptor molecule, acceptor atom, score
      L1  H    15    42       P1  1227  2.00
      P1  H  3712  3721       L1     7  0.94

> <Gold.PLP.Chemscore.Internal.Correction>
0.4496

