#       Name:                EN300-395701_i002
#       Creating user name   fsindt
#       Creation time:       Mon Feb 27 22:06:05 2023


#       File generated by GOLD software.
#

@<TRIPOS>MOLECULE
EN300-395701_i002|amine_3|mol2|975|dock15
    43    43     1
SMALL
USER_CHARGES


@<TRIPOS>ATOM
      1 C1          -0.9570 -21.7709  13.7652 C.3            1 <1>                0.0000
      2 C2           0.5131 -21.7764  14.1892 C.3            1 <1>                0.0000
      3 C3           0.8092 -23.0486  14.9859 C.3            1 <1>                0.0000
      4 C4           1.4028 -21.7350  12.9451 C.3            1 <1>                0.0000
      5 O5           0.7827 -20.6138  15.0160 O.3            1 <1>                0.0000
      6 C6           0.7611 -19.4128  14.4078 C.2            1 <1>                0.0000
      7 O7           0.1977 -19.2831  13.3391 O.2            1 <1>                0.0000
      8 N8           1.3644 -18.3545  14.9844 N.am           1 <1>                0.0000
      9 C9           1.3409 -17.0477  14.3225 C.3            1 <1>                0.0000
     10 C10         -0.1101 -16.6241  14.0779 C.3            1 <1>                0.0000
     11 C11         -0.1275 -15.2877  13.3324 C.3            1 <1>                0.0000
     12 N12          0.5819 -15.4296  12.0545 N.3            1 <1>                0.0000
     13 C13          0.4667 -14.2060  11.2497 C.3            1 <1>                0.0000
     14 C14          0.4982 -14.5681   9.7635 C.3            1 <1>                0.0000
     15 N15          1.8877 -14.7957   9.3445 N.4            1 <1>                1.0000
     16 C16          1.9898 -15.7898  12.2657 C.3            1 <1>                0.0000
     17 C17          2.0703 -17.1411  12.9795 C.3            1 <1>                0.0000
     18 H18         -1.5909 -21.8004  14.6514 H              1 <1>                0.0000
     19 H19         -1.1680 -20.8644  13.1976 H              1 <1>                0.0000
     20 H20         -1.1595 -22.6436  13.1444 H              1 <1>                0.0000
     21 H21          0.6068 -23.9214  14.3651 H              1 <1>                0.0000
     22 H22          1.8565 -23.0527  15.2879 H              1 <1>                0.0000
     23 H23          0.1754 -23.0782  15.8721 H              1 <1>                0.0000
     24 H24          1.1918 -20.8286  12.3776 H              1 <1>                0.0000
     25 H25          2.4501 -21.7390  13.2472 H              1 <1>                0.0000
     26 H26          1.2003 -22.6078  12.3244 H              1 <1>                0.0000
     27 H27          1.8340 -16.3099  14.9555 H              1 <1>                0.0000
     28 H28         -0.6144 -17.3819  13.4784 H              1 <1>                0.0000
     29 H29         -0.6231 -16.5144  15.0334 H              1 <1>                0.0000
     30 H30         -1.1591 -14.9902  13.1441 H              1 <1>                0.0000
     31 H31          0.3648 -14.5272  13.9385 H              1 <1>                0.0000
     32 H32         -0.4734 -13.7056  11.4819 H              1 <1>                0.0000
     33 H33          1.2989 -13.5405  11.4793 H              1 <1>                0.0000
     34 H34         -0.0842 -15.4745   9.5979 H              1 <1>                0.0000
     35 H35          0.0723 -13.7510   9.1813 H              1 <1>                0.0000
     36 H36          2.4959 -15.8569  11.3027 H              1 <1>                0.0000
     37 H37          2.4721 -15.0269  12.8769 H              1 <1>                0.0000
     38 H38          3.1151 -17.4008  13.1501 H              1 <1>                0.0000
     39 H39          1.6004 -17.9071  12.3626 H              1 <1>                0.0000
     40 H40          1.8142 -18.4580  15.8376 H              1 <1>                0.0000
     41 H41          2.4703 -14.0488   9.6921 H              1 <1>                0.0000
     42 H42          2.2115 -15.6758   9.7166 H              1 <1>                0.0000
     43 H43          1.9357 -14.8184   8.3369 H              1 <1>                0.0000
@<TRIPOS>BOND
    1    1    2 1     
    2    1   18 1     
    3    1   19 1     
    4    1   20 1     
    5    2    3 1     
    6    2    4 1     
    7    2    5 1     
    8    3   21 1     
    9    3   22 1     
   10    3   23 1     
   11    4   24 1     
   12    4   25 1     
   13    4   26 1     
   14    5    6 1     
   15    6    7 2     
   16    6    8 am    
   17    8    9 1     
   18    8   40 1     
   19    9   10 1     
   20    9   17 1     
   21    9   27 1     
   22   10   11 1     
   23   10   28 1     
   24   10   29 1     
   25   11   12 1     
   26   11   30 1     
   27   11   31 1     
   28   12   13 1     
   29   12   16 1     
   30   13   14 1     
   31   13   32 1     
   32   13   33 1     
   33   14   15 1     
   34   14   34 1     
   35   14   35 1     
   36   15   41 1     
   37   15   42 1     
   38   15   43 1     
   39   16   17 1     
   40   16   36 1     
   41   16   37 1     
   42   17   38 1     
   43   17   39 1     
@<TRIPOS>SUBSTRUCTURE
      1 ****           1
@<TRIPOS>SET
DONOR_HYDROGENS      STATIC     ATOMS    <user>   **** ""
4 40 41 42 43
ATOM$RED        STATIC     ATOMS    COLORGROUP SYSTEM
4 40 41 42 43
@<TRIPOS>COMMENT
> <Gold.Version>
2022.2.0

> <Gold.Id.Protein>
3pbl|protein|mol2

> <Gold.Protein.RotatedTorsions>
[ 1303 1298 1297 1294 ] final -106.57 input  179.99 | X-H torsion
[ 2461 2456 2455 2452 ] final   -7.77 input   30.03 | X-H torsion
[ 2515 2510 2509 2506 ] final  100.26 input  -89.99 | X-H torsion
[ 3721 3712 3711 3710 ] final   73.31 input -179.91 | X-H torsion
[ 3841 3832 3831 3830 ] final  -88.30 input -179.91 | X-H torsion
[ 3767 3762 3761 3758 ] final   87.40 input  -89.99 | X-H torsion
[ 2472 2467 2466 2463 ] final  157.63 input  -89.97 | X-H torsion

> <Gold.Protein.ActiveResidues>
 VAL82   VAL86   LEU89   PHE106  VAL107  ASP110  VAL111  MET112  CYS114  THR115 
 CYS181  SER182  ILE183  PHE188  VAL189  ILE190  SER192  SER193  SER196  TRP342 
 PHE345  PHE346  HIS349  VAL350  TYR365  THR369  GLY372  TYR373 

> <Gold.Protein.RotatedAtoms>
    4.0481   -8.5156    3.9808 H   0  0  0  0  0  0  0  0  0  0  0  0  # atno 1303 bound_to 1298
    0.9223   -8.0351    7.0360 H   0  0  0  0  0  0  0  0  0  0  0  0  # atno 2461 bound_to 2456
   -5.4897   -5.2872    8.6979 H   0  0  0  0  0  0  0  0  0  0  0  0  # atno 2472 bound_to 2467
    2.0306   -7.8688    5.9402 H   0  0  0  0  0  0  0  0  0  0  0  0  # atno 2515 bound_to 2510
   -2.6690  -17.7948   13.2373 H   0  0  0  0  0  0  0  0  0  0  0  0  # atno 3721 bound_to 3712
   -4.2213  -23.3328   10.4695 H   0  0  0  0  0  0  0  0  0  0  0  0  # atno 3767 bound_to 3762
    1.8342  -19.6219    8.7238 H   0  0  0  0  0  0  0  0  0  0  0  0  # atno 3841 bound_to 3832
    4.8394   -9.5734    4.9405 LP  0  0  0  0  0  0  0  0  0  0  0  0  # atno 4297 bound_to 1298
    3.4747  -10.0327    4.1704 LP  0  0  0  0  0  0  0  0  0  0  0  0  # atno 4298 bound_to 1298
    0.6662   -9.2201    8.1304 LP  0  0  0  0  0  0  0  0  0  0  0  0  # atno 4299 bound_to 2456
    2.1492   -8.5528    7.9815 LP  0  0  0  0  0  0  0  0  0  0  0  0  # atno 4300 bound_to 2456
    2.6658   -7.8727    4.4361 LP  0  0  0  0  0  0  0  0  0  0  0  0  # atno 4301 bound_to 2510
    2.6006   -9.2578    5.2986 LP  0  0  0  0  0  0  0  0  0  0  0  0  # atno 4302 bound_to 2510
   -2.8788  -17.6099   14.8183 LP  0  0  0  0  0  0  0  0  0  0  0  0  # atno 4306 bound_to 3712
   -3.5674  -16.5720   13.7621 LP  0  0  0  0  0  0  0  0  0  0  0  0  # atno 4307 bound_to 3712
    3.1170  -20.5453    8.4446 LP  0  0  0  0  0  0  0  0  0  0  0  0  # atno 4314 bound_to 3832
    1.9935  -20.9937    9.5417 LP  0  0  0  0  0  0  0  0  0  0  0  0  # atno 4315 bound_to 3832
   -5.5046  -22.3231   10.4510 LP  0  0  0  0  0  0  0  0  0  0  0  0  # atno 4318 bound_to 3762
   -4.4013  -22.2193   11.6504 LP  0  0  0  0  0  0  0  0  0  0  0  0  # atno 4319 bound_to 3762
   -4.2821   -4.7987    7.7133 LP  0  0  0  0  0  0  0  0  0  0  0  0  # atno 4320 bound_to 2467
   -3.9453   -5.3076    9.2280 LP  0  0  0  0  0  0  0  0  0  0  0  0  # atno 4321 bound_to 2467

> <Gold.Score>
     Score     S(PLP)   S(hbond)     S(cho)   S(metal)  DE(clash)   DE(tors)     intcor
     42.42     -37.53       2.00       0.00       0.00       0.00       0.78       0.45

> <Gold.PLP.Fitness>
42.4242

> <Gold.PLP.PLP>
-37.5284

> <Gold.PLP.part.hbond>
-1.0000

> <Gold.PLP.part.metal>
0.0000

> <Gold.PLP.part.buried>
-4.8812

> <Gold.PLP.part.nonpolar>
-32.5064

> <Gold.PLP.part.repulsive>
0.2336

> <Gold.PLP.ligand.clash>
0.0000

> <Gold.PLP.ligand.torsion>
0.7769

> <Gold.PLP.Chemscore.Hbond>
2.0000

> <Gold.PLP.Chemscore.CHOScore>
0.0000

> <Gold.PLP.Chemscore.Metal>
0.0000

> <Gold.Chemscore.Hbonds>
donor molecule, donor type, donor heavy atom, donor atom, acceptor molecule, acceptor atom, score
      L1  H    15    42       P1  1227  2.00

> <Gold.PLP.Chemscore.Internal.Correction>
0.4496

