#       Name:                EN300-395701_i002
#       Creating user name   fsindt
#       Creation time:       Mon Feb 27 22:05:50 2023


#       File generated by GOLD software.
#

@<TRIPOS>MOLECULE
EN300-395701_i002|amine_3|mol2|975|dock6
    43    43     1
SMALL
USER_CHARGES


@<TRIPOS>ATOM
      1 C1           1.3415 -21.3754  13.6650 C.3            1 <1>                0.0000
      2 C2           0.4100 -20.1672  13.5490 C.3            1 <1>                0.0000
      3 C3          -0.8551 -20.5697  12.7885 C.3            1 <1>                0.0000
      4 C4           0.0302 -19.6799  14.9488 C.3            1 <1>                0.0000
      5 O5           1.0869 -19.1012  12.8325 O.3            1 <1>                0.0000
      6 C6           0.3485 -18.0276  12.4936 C.2            1 <1>                0.0000
      7 O7          -0.7209 -17.8302  13.0356 O.2            1 <1>                0.0000
      8 N8           0.7956 -17.1718  11.5533 N.am           1 <1>                0.0000
      9 C9          -0.0079 -16.0036  11.1845 C.3            1 <1>                0.0000
     10 C10          0.7058 -15.2198  10.0796 C.3            1 <1>                0.0000
     11 C11         -0.1079 -13.9686   9.7414 C.3            1 <1>                0.0000
     12 N12         -0.2504 -13.1363  10.9428 N.3            1 <1>                0.0000
     13 C13         -0.9067 -11.8610  10.6250 C.3            1 <1>                0.0000
     14 C14          0.1070 -10.9120   9.9826 C.3            1 <1>                0.0000
     15 N15         -0.0291 -10.9668   8.5209 N.4            1 <1>                1.0000
     16 C16         -0.9747 -13.8515  12.0013 C.3            1 <1>                0.0000
     17 C17         -0.1869 -15.0991  12.4070 C.3            1 <1>                0.0000
     18 H18          1.6120 -21.7226  12.6678 H              1 <1>                0.0000
     19 H19          2.2428 -21.0887  14.2068 H              1 <1>                0.0000
     20 H20          0.8333 -22.1758  14.2030 H              1 <1>                0.0000
     21 H21         -1.3632 -21.3701  13.3264 H              1 <1>                0.0000
     22 H22         -1.5188 -19.7091  12.7059 H              1 <1>                0.0000
     23 H23         -0.5846 -20.9170  11.7913 H              1 <1>                0.0000
     24 H24          0.9316 -19.3931  15.4906 H              1 <1>                0.0000
     25 H25         -0.6333 -18.8192  14.8662 H              1 <1>                0.0000
     26 H26         -0.4779 -20.4802  15.4867 H              1 <1>                0.0000
     27 H27         -0.9839 -16.3312  10.8264 H              1 <1>                0.0000
     28 H28          1.6977 -14.9268  10.4237 H              1 <1>                0.0000
     29 H29          0.7981 -15.8449   9.1915 H              1 <1>                0.0000
     30 H30          0.4048 -13.4008   8.9649 H              1 <1>                0.0000
     31 H31         -1.0949 -14.2627   9.3842 H              1 <1>                0.0000
     32 H32         -1.7287 -12.0383   9.9316 H              1 <1>                0.0000
     33 H33         -1.2937 -11.4136  11.5405 H              1 <1>                0.0000
     34 H34         -0.0787  -9.8947  10.3269 H              1 <1>                0.0000
     35 H35          1.1159 -11.2127  10.2650 H              1 <1>                0.0000
     36 H36         -1.0916 -13.1985  12.8663 H              1 <1>                0.0000
     37 H37         -1.9576 -14.1462  11.6335 H              1 <1>                0.0000
     38 H38         -0.7324 -15.6380  13.1816 H              1 <1>                0.0000
     39 H39          0.7909 -14.8043  12.7878 H              1 <1>                0.0000
     40 H40          1.6494 -17.3294  11.1206 H              1 <1>                0.0000
     41 H41          0.6535 -11.6068   8.1433 H              1 <1>                0.0000
     42 H42         -0.9564 -11.2841   8.2811 H              1 <1>                0.0000
     43 H43          0.1222 -10.0472   8.1342 H              1 <1>                0.0000
@<TRIPOS>BOND
    1    1    2 1     
    2    1   18 1     
    3    1   19 1     
    4    1   20 1     
    5    2    3 1     
    6    2    4 1     
    7    2    5 1     
    8    3   21 1     
    9    3   22 1     
   10    3   23 1     
   11    4   24 1     
   12    4   25 1     
   13    4   26 1     
   14    5    6 1     
   15    6    7 2     
   16    6    8 am    
   17    8    9 1     
   18    8   40 1     
   19    9   10 1     
   20    9   17 1     
   21    9   27 1     
   22   10   11 1     
   23   10   28 1     
   24   10   29 1     
   25   11   12 1     
   26   11   30 1     
   27   11   31 1     
   28   12   13 1     
   29   12   16 1     
   30   13   14 1     
   31   13   32 1     
   32   13   33 1     
   33   14   15 1     
   34   14   34 1     
   35   14   35 1     
   36   15   41 1     
   37   15   42 1     
   38   15   43 1     
   39   16   17 1     
   40   16   36 1     
   41   16   37 1     
   42   17   38 1     
   43   17   39 1     
@<TRIPOS>SUBSTRUCTURE
      1 ****           1
@<TRIPOS>SET
DONOR_HYDROGENS      STATIC     ATOMS    <user>   **** ""
4 40 41 42 43
ATOM$RED        STATIC     ATOMS    COLORGROUP SYSTEM
4 40 41 42 43
@<TRIPOS>COMMENT
> <Gold.Version>
2022.2.0

> <Gold.Id.Protein>
3pbl|protein|mol2

> <Gold.Protein.RotatedTorsions>
[ 1303 1298 1297 1294 ] final  -73.78 input  179.99 | X-H torsion
[ 2461 2456 2455 2452 ] final   76.04 input   30.03 | X-H torsion
[ 2515 2510 2509 2506 ] final   98.86 input  -89.99 | X-H torsion
[ 3721 3712 3711 3710 ] final   47.18 input -179.91 | X-H torsion
[ 3841 3832 3831 3830 ] final  -98.65 input -179.91 | X-H torsion
[ 3767 3762 3761 3758 ] final  165.15 input  -89.99 | X-H torsion
[ 2472 2467 2466 2463 ] final  -92.99 input  -89.97 | X-H torsion

> <Gold.Protein.ActiveResidues>
 VAL82   VAL86   LEU89   PHE106  VAL107  ASP110  VAL111  MET112  CYS114  THR115 
 CYS181  SER182  ILE183  PHE188  VAL189  ILE190  SER192  SER193  SER196  TRP342 
 PHE345  PHE346  HIS349  VAL350  TYR365  THR369  GLY372  TYR373 

> <Gold.Protein.RotatedAtoms>
    3.6330   -8.7959    3.8011 H   0  0  0  0  0  0  0  0  0  0  0  0  # atno 1303 bound_to 1298
    2.0624   -8.1584    7.5572 H   0  0  0  0  0  0  0  0  0  0  0  0  # atno 2461 bound_to 2456
   -4.0845   -5.3572    9.3209 H   0  0  0  0  0  0  0  0  0  0  0  0  # atno 2472 bound_to 2467
    2.0316   -7.8495    5.9279 H   0  0  0  0  0  0  0  0  0  0  0  0  # atno 2515 bound_to 2510
   -2.5322  -17.9848   13.5511 H   0  0  0  0  0  0  0  0  0  0  0  0  # atno 3721 bound_to 3712
   -3.9828  -22.7164   11.4514 H   0  0  0  0  0  0  0  0  0  0  0  0  # atno 3767 bound_to 3762
    1.9497  -19.5897    8.6235 H   0  0  0  0  0  0  0  0  0  0  0  0  # atno 3841 bound_to 3832
    4.9043   -9.0672    4.7892 LP  0  0  0  0  0  0  0  0  0  0  0  0  # atno 4297 bound_to 1298
    3.8250  -10.2584    4.5014 LP  0  0  0  0  0  0  0  0  0  0  0  0  # atno 4298 bound_to 1298
    0.4792   -8.3723    7.2182 LP  0  0  0  0  0  0  0  0  0  0  0  0  # atno 4299 bound_to 2456
    1.1964   -9.2774    8.3727 LP  0  0  0  0  0  0  0  0  0  0  0  0  # atno 4300 bound_to 2456
    2.6737   -7.8924    4.4273 LP  0  0  0  0  0  0  0  0  0  0  0  0  # atno 4301 bound_to 2510
    2.5916   -9.2575    5.3197 LP  0  0  0  0  0  0  0  0  0  0  0  0  # atno 4302 bound_to 2510
   -3.0906  -17.2343   14.8560 LP  0  0  0  0  0  0  0  0  0  0  0  0  # atno 4306 bound_to 3712
   -3.5135  -16.7282   13.3621 LP  0  0  0  0  0  0  0  0  0  0  0  0  # atno 4307 bound_to 3712
    3.1282  -20.6772    8.5558 LP  0  0  0  0  0  0  0  0  0  0  0  0  # atno 4314 bound_to 3832
    1.8490  -20.8990    9.5464 LP  0  0  0  0  0  0  0  0  0  0  0  0  # atno 4315 bound_to 3832
   -4.7766  -23.1896   10.1050 LP  0  0  0  0  0  0  0  0  0  0  0  0  # atno 4318 bound_to 3762
   -5.3677  -21.9691   11.0149 LP  0  0  0  0  0  0  0  0  0  0  0  0  # atno 4319 bound_to 3762
   -5.5098   -5.2297    8.5344 LP  0  0  0  0  0  0  0  0  0  0  0  0  # atno 4320 bound_to 2467
   -4.1225   -4.8067    7.7840 LP  0  0  0  0  0  0  0  0  0  0  0  0  # atno 4321 bound_to 2467

> <Gold.Score>
     Score     S(PLP)   S(hbond)     S(cho)   S(metal)  DE(clash)   DE(tors)     intcor
     41.05     -33.20       2.94       0.00       0.00       0.00       0.74       0.49

> <Gold.PLP.Fitness>
41.0528

> <Gold.PLP.PLP>
-33.2029

> <Gold.PLP.part.hbond>
-3.0000

> <Gold.PLP.part.metal>
0.0000

> <Gold.PLP.part.buried>
-2.0898

> <Gold.PLP.part.nonpolar>
-28.6131

> <Gold.PLP.part.repulsive>
0.1021

> <Gold.PLP.ligand.clash>
0.0000

> <Gold.PLP.ligand.torsion>
0.7365

> <Gold.PLP.Chemscore.Hbond>
2.9440

> <Gold.PLP.Chemscore.CHOScore>
0.0000

> <Gold.PLP.Chemscore.Metal>
0.0000

> <Gold.Chemscore.Hbonds>
donor molecule, donor type, donor heavy atom, donor atom, acceptor molecule, acceptor atom, score
      L1  H     8    40       P1  1227  1.00
      L1  H    15    43       P1  2456  1.00
      P1  H  3712  3721       L1     7  0.94

> <Gold.PLP.Chemscore.Internal.Correction>
0.4909

