#       Name:                EN300-395701_i002
#       Creating user name   fsindt
#       Creation time:       Mon Feb 27 22:05:58 2023


#       File generated by GOLD software.
#

@<TRIPOS>MOLECULE
EN300-395701_i002|amine_3|mol2|975|dock11
    43    43     1
SMALL
USER_CHARGES


@<TRIPOS>ATOM
      1 C1           1.2433 -20.5313  13.6812 C.3            1 <1>                0.0000
      2 C2           0.2279 -19.4361  13.3490 C.3            1 <1>                0.0000
      3 C3          -1.1204 -20.0760  13.0118 C.3            1 <1>                0.0000
      4 C4           0.0648 -18.5090  14.5553 C.3            1 <1>                0.0000
      5 O5           0.6983 -18.6693  12.2093 O.3            1 <1>                0.0000
      6 C6           0.0080 -17.5573  11.8939 C.2            1 <1>                0.0000
      7 O7          -1.1233 -17.4058  12.3106 O.2            1 <1>                0.0000
      8 N8           0.5718 -16.6121  11.1160 N.am           1 <1>                0.0000
      9 C9          -0.1793 -15.4020  10.7728 C.3            1 <1>                0.0000
     10 C10          0.5826 -14.6125   9.7047 C.3            1 <1>                0.0000
     11 C11         -0.1760 -13.3201   9.3944 C.3            1 <1>                0.0000
     12 N12         -0.3059 -12.5212  10.6197 N.3            1 <1>                0.0000
     13 C13         -0.9065 -11.2116  10.3331 C.3            1 <1>                0.0000
     14 C14         -2.4115 -11.3778  10.1134 C.3            1 <1>                0.0000
     15 N15         -3.0264 -10.0581   9.9174 N.4            1 <1>                1.0000
     16 C16         -1.0749 -13.2402  11.6435 C.3            1 <1>                0.0000
     17 C17         -0.3432 -14.5302  12.0208 C.3            1 <1>                0.0000
     18 H18          1.3594 -21.1918  12.8218 H              1 <1>                0.0000
     19 H19          2.2039 -20.0754  13.9214 H              1 <1>                0.0000
     20 H20          0.8902 -21.1069  14.5368 H              1 <1>                0.0000
     21 H21         -1.4735 -20.6516  13.8674 H              1 <1>                0.0000
     22 H22         -1.8439 -19.2958  12.7753 H              1 <1>                0.0000
     23 H23         -1.0043 -20.7365  12.1525 H              1 <1>                0.0000
     24 H24          1.0254 -18.0532  14.7955 H              1 <1>                0.0000
     25 H25         -0.6585 -17.7288  14.3187 H              1 <1>                0.0000
     26 H26         -0.2883 -19.0847  15.4109 H              1 <1>                0.0000
     27 H27         -1.1613 -15.6793  10.3894 H              1 <1>                0.0000
     28 H28          1.5793 -14.3699  10.0732 H              1 <1>                0.0000
     29 H29          0.6652 -15.2124   8.7984 H              1 <1>                0.0000
     30 H30          0.3713 -12.7488   8.6446 H              1 <1>                0.0000
     31 H31         -1.1676 -13.5637   9.0129 H              1 <1>                0.0000
     32 H32         -0.7340 -10.5407  11.1746 H              1 <1>                0.0000
     33 H33         -0.4524 -10.7923   9.4352 H              1 <1>                0.0000
     34 H34         -2.5841 -11.9938   9.2309 H              1 <1>                0.0000
     35 H35         -2.8549 -11.8593  10.9849 H              1 <1>                0.0000
     36 H36         -1.1806 -12.6108  12.5270 H              1 <1>                0.0000
     37 H37         -2.0623 -13.4841  11.2513 H              1 <1>                0.0000
     38 H38         -0.9220 -15.0713  12.7693 H              1 <1>                0.0000
     39 H39          0.6390 -14.2863  12.4258 H              1 <1>                0.0000
     40 H40          1.4750 -16.7330  10.7833 H              1 <1>                0.0000
     41 H41         -4.0243 -10.1292  10.0490 H              1 <1>                0.0000
     42 H42         -2.6445  -9.4064  10.5862 H              1 <1>                0.0000
     43 H43         -2.8330  -9.7325   8.9822 H              1 <1>                0.0000
@<TRIPOS>BOND
    1    1    2 1     
    2    1   18 1     
    3    1   19 1     
    4    1   20 1     
    5    2    3 1     
    6    2    4 1     
    7    2    5 1     
    8    3   21 1     
    9    3   22 1     
   10    3   23 1     
   11    4   24 1     
   12    4   25 1     
   13    4   26 1     
   14    5    6 1     
   15    6    7 2     
   16    6    8 am    
   17    8    9 1     
   18    8   40 1     
   19    9   10 1     
   20    9   17 1     
   21    9   27 1     
   22   10   11 1     
   23   10   28 1     
   24   10   29 1     
   25   11   12 1     
   26   11   30 1     
   27   11   31 1     
   28   12   13 1     
   29   12   16 1     
   30   13   14 1     
   31   13   32 1     
   32   13   33 1     
   33   14   15 1     
   34   14   34 1     
   35   14   35 1     
   36   15   41 1     
   37   15   42 1     
   38   15   43 1     
   39   16   17 1     
   40   16   36 1     
   41   16   37 1     
   42   17   38 1     
   43   17   39 1     
@<TRIPOS>SUBSTRUCTURE
      1 ****           1
@<TRIPOS>SET
DONOR_HYDROGENS      STATIC     ATOMS    <user>   **** ""
4 40 41 42 43
ATOM$RED        STATIC     ATOMS    COLORGROUP SYSTEM
4 40 41 42 43
@<TRIPOS>COMMENT
> <Gold.Version>
2022.2.0

> <Gold.Id.Protein>
3pbl|protein|mol2

> <Gold.Protein.RotatedTorsions>
[ 1303 1298 1297 1294 ] final  169.32 input  179.99 | X-H torsion
[ 2461 2456 2455 2452 ] final  109.10 input   30.03 | X-H torsion
[ 2515 2510 2509 2506 ] final -112.65 input  -89.99 | X-H torsion
[ 3721 3712 3711 3710 ] final   78.61 input -179.91 | X-H torsion
[ 3841 3832 3831 3830 ] final -122.36 input -179.91 | X-H torsion
[ 3767 3762 3761 3758 ] final  175.61 input  -89.99 | X-H torsion
[ 2472 2467 2466 2463 ] final  116.87 input  -89.97 | X-H torsion

> <Gold.Protein.ActiveResidues>
 VAL82   VAL86   LEU89   PHE106  VAL107  ASP110  VAL111  MET112  CYS114  THR115 
 CYS181  SER182  ILE183  PHE188  VAL189  ILE190  SER192  SER193  SER196  TRP342 
 PHE345  PHE346  HIS349  VAL350  TYR365  THR369  GLY372  TYR373 

> <Gold.Protein.RotatedAtoms>
    4.8967   -9.0219    4.7670 H   0  0  0  0  0  0  0  0  0  0  0  0  # atno 1303 bound_to 1298
    2.1562   -8.5155    7.9467 H   0  0  0  0  0  0  0  0  0  0  0  0  # atno 2461 bound_to 2456
   -5.3940   -5.0577    8.0901 H   0  0  0  0  0  0  0  0  0  0  0  0  # atno 2472 bound_to 2467
    2.7492   -9.1571    4.8953 H   0  0  0  0  0  0  0  0  0  0  0  0  # atno 2515 bound_to 2510
   -2.7038  -17.7417   13.1883 H   0  0  0  0  0  0  0  0  0  0  0  0  # atno 3721 bound_to 3712
   -4.0569  -22.5868   11.5370 H   0  0  0  0  0  0  0  0  0  0  0  0  # atno 3767 bound_to 3762
    2.2558  -19.5997    8.4429 H   0  0  0  0  0  0  0  0  0  0  0  0  # atno 3841 bound_to 3832
    3.8650  -10.2656    4.5320 LP  0  0  0  0  0  0  0  0  0  0  0  0  # atno 4297 bound_to 1298
    3.6001   -8.8340    3.7924 LP  0  0  0  0  0  0  0  0  0  0  0  0  # atno 4298 bound_to 1298
    0.8760   -8.0572    7.0419 LP  0  0  0  0  0  0  0  0  0  0  0  0  # atno 4299 bound_to 2456
    0.7058   -9.2355    8.1596 LP  0  0  0  0  0  0  0  0  0  0  0  0  # atno 4300 bound_to 2456
    2.0572   -8.2837    6.0887 LP  0  0  0  0  0  0  0  0  0  0  0  0  # atno 4301 bound_to 2510
    2.4902   -7.5580    4.6914 LP  0  0  0  0  0  0  0  0  0  0  0  0  # atno 4302 bound_to 2510
   -2.8397  -17.6829   14.7870 LP  0  0  0  0  0  0  0  0  0  0  0  0  # atno 4306 bound_to 3712
   -3.5664  -16.5602   13.8499 LP  0  0  0  0  0  0  0  0  0  0  0  0  # atno 4307 bound_to 3712
    3.0481  -20.9382    8.8390 LP  0  0  0  0  0  0  0  0  0  0  0  0  # atno 4314 bound_to 3832
    1.5754  -20.6265    9.4719 LP  0  0  0  0  0  0  0  0  0  0  0  0  # atno 4315 bound_to 3832
   -4.6303  -23.2586   10.1634 LP  0  0  0  0  0  0  0  0  0  0  0  0  # atno 4318 bound_to 3762
   -5.4399  -22.0296   10.8710 LP  0  0  0  0  0  0  0  0  0  0  0  0  # atno 4319 bound_to 3762
   -3.7702   -4.8872    8.1151 LP  0  0  0  0  0  0  0  0  0  0  0  0  # atno 4320 bound_to 2467
   -4.5528   -5.4486    9.4339 LP  0  0  0  0  0  0  0  0  0  0  0  0  # atno 4321 bound_to 2467

> <Gold.Score>
     Score     S(PLP)   S(hbond)     S(cho)   S(metal)  DE(clash)   DE(tors)     intcor
     42.51     -37.08       1.99       0.00       0.00       0.00       0.49       0.45

> <Gold.PLP.Fitness>
42.5131

> <Gold.PLP.PLP>
-37.0767

> <Gold.PLP.part.hbond>
-2.0000

> <Gold.PLP.part.metal>
0.0000

> <Gold.PLP.part.buried>
-5.8589

> <Gold.PLP.part.nonpolar>
-30.5256

> <Gold.PLP.part.repulsive>
0.1884

> <Gold.PLP.ligand.clash>
0.0000

> <Gold.PLP.ligand.torsion>
0.4945

> <Gold.PLP.Chemscore.Hbond>
1.9920

> <Gold.PLP.Chemscore.CHOScore>
0.0000

> <Gold.PLP.Chemscore.Metal>
0.0000

> <Gold.Chemscore.Hbonds>
donor molecule, donor type, donor heavy atom, donor atom, acceptor molecule, acceptor atom, score
      L1  H     8    40       P1  1227  1.00
      P1  H  3712  3721       L1     7  0.99

> <Gold.PLP.Chemscore.Internal.Correction>
0.4496

