#       Name:                EN300-395701_i002
#       Creating user name   fsindt
#       Creation time:       Mon Feb 27 22:06:15 2023


#       File generated by GOLD software.
#

@<TRIPOS>MOLECULE
EN300-395701_i002|amine_3|mol2|975|dock20
    43    43     1
SMALL
USER_CHARGES


@<TRIPOS>ATOM
      1 C1          -1.2326 -20.9549  13.5866 C.3            1 <1>                0.0000
      2 C2          -0.0815 -20.8136  14.5845 C.3            1 <1>                0.0000
      3 C3          -0.2759 -21.8075  15.7314 C.3            1 <1>                0.0000
      4 C4           1.2443 -21.1034  13.8779 C.3            1 <1>                0.0000
      5 O5          -0.0626 -19.4617  15.1136 O.3            1 <1>                0.0000
      6 C6           0.2062 -18.4690  14.2447 C.2            1 <1>                0.0000
      7 O7           0.2148 -18.6926  13.0504 O.2            1 <1>                0.0000
      8 N8           0.4657 -17.2271  14.6997 N.am           1 <1>                0.0000
      9 C9           0.7582 -16.1469  13.7543 C.3            1 <1>                0.0000
     10 C10         -0.4267 -15.9660  12.8015 C.3            1 <1>                0.0000
     11 C11         -0.0911 -14.8784  11.7785 C.3            1 <1>                0.0000
     12 N12          1.1097 -15.2653  11.0270 N.3            1 <1>                0.0000
     13 C13          1.3822 -14.3121   9.9430 C.3            1 <1>                0.0000
     14 C14          0.3998 -14.5512   8.7946 C.3            1 <1>                0.0000
     15 N15          0.7957 -15.7570   8.0547 N.4            1 <1>                1.0000
     16 C16          2.2717 -15.3988  11.9149 C.3            1 <1>                0.0000
     17 C17          2.0066 -16.5019  12.9419 C.3            1 <1>                0.0000
     18 H18         -2.1772 -20.7485  14.0900 H              1 <1>                0.0000
     19 H19         -1.0942 -20.2468  12.7695 H              1 <1>                0.0000
     20 H20         -1.2468 -21.9698  13.1894 H              1 <1>                0.0000
     21 H21         -0.2901 -22.8225  15.3341 H              1 <1>                0.0000
     22 H22          0.5442 -21.7071  16.4422 H              1 <1>                0.0000
     23 H23         -1.2204 -21.6012  16.2347 H              1 <1>                0.0000
     24 H24          1.3828 -20.3953  13.0608 H              1 <1>                0.0000
     25 H25          2.0644 -21.0028  14.5887 H              1 <1>                0.0000
     26 H26          1.2302 -22.1183  13.4806 H              1 <1>                0.0000
     27 H27          0.9300 -15.2202  14.3018 H              1 <1>                0.0000
     28 H28         -0.6238 -16.9045  12.2834 H              1 <1>                0.0000
     29 H29         -1.3090 -15.6713  13.3697 H              1 <1>                0.0000
     30 H30         -0.9272 -14.7571  11.0898 H              1 <1>                0.0000
     31 H31          0.0922 -13.9369  12.2963 H              1 <1>                0.0000
     32 H32          1.2648 -13.2946  10.3158 H              1 <1>                0.0000
     33 H33          2.4019 -14.4521   9.5839 H              1 <1>                0.0000
     34 H34         -0.6041 -14.6853   9.1973 H              1 <1>                0.0000
     35 H35          0.4103 -13.6930   8.1229 H              1 <1>                0.0000
     36 H36          3.1518 -15.6554  11.3252 H              1 <1>                0.0000
     37 H37          2.4440 -14.4548  12.4321 H              1 <1>                0.0000
     38 H38          2.8629 -16.5901  13.6105 H              1 <1>                0.0000
     39 H39          1.8479 -17.4489  12.4261 H              1 <1>                0.0000
     40 H40          0.4588 -17.0485  15.6531 H              1 <1>                0.0000
     41 H41          1.5018 -15.5176   7.3749 H              1 <1>                0.0000
     42 H42          1.1662 -16.4401   8.6982 H              1 <1>                0.0000
     43 H43         -0.0089 -16.1413   7.5827 H              1 <1>                0.0000
@<TRIPOS>BOND
    1    1    2 1     
    2    1   18 1     
    3    1   19 1     
    4    1   20 1     
    5    2    3 1     
    6    2    4 1     
    7    2    5 1     
    8    3   21 1     
    9    3   22 1     
   10    3   23 1     
   11    4   24 1     
   12    4   25 1     
   13    4   26 1     
   14    5    6 1     
   15    6    7 2     
   16    6    8 am    
   17    8    9 1     
   18    8   40 1     
   19    9   10 1     
   20    9   17 1     
   21    9   27 1     
   22   10   11 1     
   23   10   28 1     
   24   10   29 1     
   25   11   12 1     
   26   11   30 1     
   27   11   31 1     
   28   12   13 1     
   29   12   16 1     
   30   13   14 1     
   31   13   32 1     
   32   13   33 1     
   33   14   15 1     
   34   14   34 1     
   35   14   35 1     
   36   15   41 1     
   37   15   42 1     
   38   15   43 1     
   39   16   17 1     
   40   16   36 1     
   41   16   37 1     
   42   17   38 1     
   43   17   39 1     
@<TRIPOS>SUBSTRUCTURE
      1 ****           1
@<TRIPOS>SET
DONOR_HYDROGENS      STATIC     ATOMS    <user>   **** ""
4 40 41 42 43
ATOM$RED        STATIC     ATOMS    COLORGROUP SYSTEM
4 40 41 42 43
@<TRIPOS>COMMENT
> <Gold.Version>
2022.2.0

> <Gold.Id.Protein>
3pbl|protein|mol2

> <Gold.Protein.RotatedTorsions>
[ 1303 1298 1297 1294 ] final   -9.99 input  179.99 | X-H torsion
[ 2461 2456 2455 2452 ] final  123.83 input   30.03 | X-H torsion
[ 2515 2510 2509 2506 ] final  145.98 input  -89.99 | X-H torsion
[ 3721 3712 3711 3710 ] final -167.37 input -179.91 | X-H torsion
[ 3841 3832 3831 3830 ] final    1.48 input -179.91 | X-H torsion
[ 3767 3762 3761 3758 ] final  111.22 input  -89.99 | X-H torsion
[ 2472 2467 2466 2463 ] final   77.79 input  -89.97 | X-H torsion

> <Gold.Protein.ActiveResidues>
 VAL82   VAL86   LEU89   PHE106  VAL107  ASP110  VAL111  MET112  CYS114  THR115 
 CYS181  SER182  ILE183  PHE188  VAL189  ILE190  SER192  SER193  SER196  TRP342 
 PHE345  PHE346  HIS349  VAL350  TYR365  THR369  GLY372  TYR373 

> <Gold.Protein.RotatedAtoms>
    3.3463   -9.7354    3.9664 H   0  0  0  0  0  0  0  0  0  0  0  0  # atno 1303 bound_to 1298
    2.1012   -8.6914    8.1033 H   0  0  0  0  0  0  0  0  0  0  0  0  # atno 2461 bound_to 2456
   -4.9253   -4.8699    7.7121 H   0  0  0  0  0  0  0  0  0  0  0  0  # atno 2472 bound_to 2467
    2.1249   -8.5813    6.0807 H   0  0  0  0  0  0  0  0  0  0  0  0  # atno 2515 bound_to 2510
   -3.3381  -16.5511   13.7279 H   0  0  0  0  0  0  0  0  0  0  0  0  # atno 3721 bound_to 3712
   -4.0055  -23.2483   10.7822 H   0  0  0  0  0  0  0  0  0  0  0  0  # atno 3767 bound_to 3762
    1.7497  -20.5035    9.5655 H   0  0  0  0  0  0  0  0  0  0  0  0  # atno 3841 bound_to 3832
    4.3675   -8.4808    4.1887 LP  0  0  0  0  0  0  0  0  0  0  0  0  # atno 4297 bound_to 1298
    4.6487   -9.9049    4.9366 LP  0  0  0  0  0  0  0  0  0  0  0  0  # atno 4298 bound_to 1298
    1.1012   -7.9694    7.0328 LP  0  0  0  0  0  0  0  0  0  0  0  0  # atno 4299 bound_to 2456
    0.5356   -9.1474    8.0122 LP  0  0  0  0  0  0  0  0  0  0  0  0  # atno 4300 bound_to 2456
    2.3595   -7.4375    4.9395 LP  0  0  0  0  0  0  0  0  0  0  0  0  # atno 4301 bound_to 2510
    2.8124   -8.9803    4.6546 LP  0  0  0  0  0  0  0  0  0  0  0  0  # atno 4302 bound_to 2510
   -2.8121  -17.9762   13.2082 LP  0  0  0  0  0  0  0  0  0  0  0  0  # atno 4306 bound_to 3712
   -2.8618  -17.6416   14.8057 LP  0  0  0  0  0  0  0  0  0  0  0  0  # atno 4307 bound_to 3712
    2.1224  -19.6497    8.2585 LP  0  0  0  0  0  0  0  0  0  0  0  0  # atno 4314 bound_to 3832
    3.0858  -20.8709    8.7555 LP  0  0  0  0  0  0  0  0  0  0  0  0  # atno 4315 bound_to 3832
   -5.3949  -22.6086   10.2104 LP  0  0  0  0  0  0  0  0  0  0  0  0  # atno 4318 bound_to 3762
   -4.7266  -22.0184   11.5785 LP  0  0  0  0  0  0  0  0  0  0  0  0  # atno 4319 bound_to 3762
   -3.6434   -5.0843    8.7007 LP  0  0  0  0  0  0  0  0  0  0  0  0  # atno 4320 bound_to 2467
   -5.1482   -5.4393    9.2262 LP  0  0  0  0  0  0  0  0  0  0  0  0  # atno 4321 bound_to 2467

> <Gold.Score>
     Score     S(PLP)   S(hbond)     S(cho)   S(metal)  DE(clash)   DE(tors)     intcor
     42.59     -37.29       2.00       0.00       0.00       0.45       0.35       0.45

> <Gold.PLP.Fitness>
42.5897

> <Gold.PLP.PLP>
-37.2869

> <Gold.PLP.part.hbond>
-1.0000

> <Gold.PLP.part.metal>
0.0000

> <Gold.PLP.part.buried>
-4.9843

> <Gold.PLP.part.nonpolar>
-32.8553

> <Gold.PLP.part.repulsive>
0.5715

> <Gold.PLP.ligand.clash>
0.4499

> <Gold.PLP.ligand.torsion>
0.3485

> <Gold.PLP.Chemscore.Hbond>
2.0000

> <Gold.PLP.Chemscore.CHOScore>
0.0000

> <Gold.PLP.Chemscore.Metal>
0.0000

> <Gold.Chemscore.Hbonds>
donor molecule, donor type, donor heavy atom, donor atom, acceptor molecule, acceptor atom, score
      L1  H    15    42       P1  1227  2.00

> <Gold.PLP.Chemscore.Internal.Correction>
0.4496

