#       Name:                EN300-395701_i002
#       Creating user name   fsindt
#       Creation time:       Mon Feb 27 22:05:43 2023


#       File generated by GOLD software.
#

@<TRIPOS>MOLECULE
EN300-395701_i002|amine_3|mol2|975|dock1
    43    43     1
SMALL
USER_CHARGES


@<TRIPOS>ATOM
      1 C1          -0.1107 -17.9147  14.9022 C.3            1 <1>                0.0000
      2 C2           1.1360 -18.1352  14.0431 C.3            1 <1>                0.0000
      3 C3           2.3004 -17.3249  14.6165 C.3            1 <1>                0.0000
      4 C4           1.4996 -19.6213  14.0440 C.3            1 <1>                0.0000
      5 O5           0.8691 -17.7030  12.6829 O.3            1 <1>                0.0000
      6 C6           0.6758 -16.3851  12.4871 C.2            1 <1>                0.0000
      7 O7           0.4596 -15.6554  13.4343 O.2            1 <1>                0.0000
      8 N8           0.7222 -15.8751  11.2404 N.am           1 <1>                0.0000
      9 C9           0.5119 -14.4410  11.0273 C.3            1 <1>                0.0000
     10 C10         -0.8311 -14.0251  11.6341 C.3            1 <1>                0.0000
     11 C11         -1.0731 -12.5399  11.3555 C.3            1 <1>                0.0000
     12 N12         -1.0777 -12.3071   9.9056 N.3            1 <1>                0.0000
     13 C13         -1.4444 -10.9185   9.5965 C.3            1 <1>                0.0000
     14 C14         -2.8475 -10.6298  10.1340 C.3            1 <1>                0.0000
     15 N15         -3.3051  -9.3268   9.6332 N.4            1 <1>                1.0000
     16 C16          0.2178 -12.6547   9.3079 C.3            1 <1>                0.0000
     17 C17          0.4984 -14.1433   9.5254 C.3            1 <1>                0.0000
     18 H18         -0.3697 -16.8559  14.9016 H              1 <1>                0.0000
     19 H19         -0.9402 -18.4919  14.4937 H              1 <1>                0.0000
     20 H20          0.0896 -18.2391  15.9233 H              1 <1>                0.0000
     21 H21          2.5007 -17.6493  15.6376 H              1 <1>                0.0000
     22 H22          3.1885 -17.4821  14.0045 H              1 <1>                0.0000
     23 H23          2.0413 -16.2662  14.6159 H              1 <1>                0.0000
     24 H24          0.6701 -20.1986  13.6355 H              1 <1>                0.0000
     25 H25          2.3877 -19.7785  13.4320 H              1 <1>                0.0000
     26 H26          1.6999 -19.9458  15.0652 H              1 <1>                0.0000
     27 H27          1.3160 -13.8802  11.5037 H              1 <1>                0.0000
     28 H28         -1.6310 -14.6145  11.1862 H              1 <1>                0.0000
     29 H29         -0.8122 -14.1949  12.7107 H              1 <1>                0.0000
     30 H30         -2.0352 -12.2439  11.7739 H              1 <1>                0.0000
     31 H31         -0.2802 -11.9501  11.8155 H              1 <1>                0.0000
     32 H32         -0.7297 -10.2413  10.0641 H              1 <1>                0.0000
     33 H33         -1.4315 -10.7712   8.5166 H              1 <1>                0.0000
     34 H34         -3.5323 -11.4088   9.7989 H              1 <1>                0.0000
     35 H35         -2.8226 -10.6119  11.2235 H              1 <1>                0.0000
     36 H36          0.1934 -12.4421   8.2391 H              1 <1>                0.0000
     37 H37          1.0046 -12.0644   9.7775 H              1 <1>                0.0000
     38 H38          1.4671 -14.3976   9.0953 H              1 <1>                0.0000
     39 H39         -0.2806 -14.7346   9.0442 H              1 <1>                0.0000
     40 H40          0.8948 -16.4576  10.4842 H              1 <1>                0.0000
     41 H41         -2.8927  -8.5904  10.1861 H              1 <1>                0.0000
     42 H42         -3.0264  -9.2202   8.6694 H              1 <1>                0.0000
     43 H43         -4.3105  -9.2749   9.7003 H              1 <1>                0.0000
@<TRIPOS>BOND
    1    1    2 1     
    2    1   18 1     
    3    1   19 1     
    4    1   20 1     
    5    2    3 1     
    6    2    4 1     
    7    2    5 1     
    8    3   21 1     
    9    3   22 1     
   10    3   23 1     
   11    4   24 1     
   12    4   25 1     
   13    4   26 1     
   14    5    6 1     
   15    6    7 2     
   16    6    8 am    
   17    8    9 1     
   18    8   40 1     
   19    9   10 1     
   20    9   17 1     
   21    9   27 1     
   22   10   11 1     
   23   10   28 1     
   24   10   29 1     
   25   11   12 1     
   26   11   30 1     
   27   11   31 1     
   28   12   13 1     
   29   12   16 1     
   30   13   14 1     
   31   13   32 1     
   32   13   33 1     
   33   14   15 1     
   34   14   34 1     
   35   14   35 1     
   36   15   41 1     
   37   15   42 1     
   38   15   43 1     
   39   16   17 1     
   40   16   36 1     
   41   16   37 1     
   42   17   38 1     
   43   17   39 1     
@<TRIPOS>SUBSTRUCTURE
      1 ****           1
@<TRIPOS>SET
DONOR_HYDROGENS      STATIC     ATOMS    <user>   **** ""
4 40 41 42 43
ATOM$RED        STATIC     ATOMS    COLORGROUP SYSTEM
4 40 41 42 43
@<TRIPOS>COMMENT
> <Gold.Version>
2022.2.0

> <Gold.Id.Protein>
3pbl|protein|mol2

> <Gold.Protein.RotatedTorsions>
[ 1303 1298 1297 1294 ] final  -68.91 input  179.99 | X-H torsion
[ 2461 2456 2455 2452 ] final   16.18 input   30.03 | X-H torsion
[ 2515 2510 2509 2506 ] final   70.68 input  -89.99 | X-H torsion
[ 3721 3712 3711 3710 ] final   50.65 input -179.91 | X-H torsion
[ 3841 3832 3831 3830 ] final  149.27 input -179.91 | X-H torsion
[ 3767 3762 3761 3758 ] final   44.70 input  -89.99 | X-H torsion
[ 2472 2467 2466 2463 ] final  -95.19 input  -89.97 | X-H torsion

> <Gold.Protein.ActiveResidues>
 VAL82   VAL86   LEU89   PHE106  VAL107  ASP110  VAL111  MET112  CYS114  THR115 
 CYS181  SER182  ILE183  PHE188  VAL189  ILE190  SER192  SER193  SER196  TRP342 
 PHE345  PHE346  HIS349  VAL350  TYR365  THR369  GLY372  TYR373 

> <Gold.Protein.RotatedAtoms>
    3.5818   -8.8564    3.7890 H   0  0  0  0  0  0  0  0  0  0  0  0  # atno 1303 bound_to 1298
    1.2977   -7.9275    7.0597 H   0  0  0  0  0  0  0  0  0  0  0  0  # atno 2461 bound_to 2456
   -4.1156   -5.3664    9.3369 H   0  0  0  0  0  0  0  0  0  0  0  0  # atno 2472 bound_to 2467
    2.1015   -7.5348    5.6014 H   0  0  0  0  0  0  0  0  0  0  0  0  # atno 2515 bound_to 2510
   -2.5465  -17.9673   13.5038 H   0  0  0  0  0  0  0  0  0  0  0  0  # atno 3721 bound_to 3712
   -4.7825  -23.1858   10.1025 H   0  0  0  0  0  0  0  0  0  0  0  0  # atno 3767 bound_to 3762
    3.1251  -20.4145    8.6342 H   0  0  0  0  0  0  0  0  0  0  0  0  # atno 3841 bound_to 3832
    4.8921   -8.9966    4.7533 LP  0  0  0  0  0  0  0  0  0  0  0  0  # atno 4297 bound_to 1298
    3.8885  -10.2685    4.5494 LP  0  0  0  0  0  0  0  0  0  0  0  0  # atno 4298 bound_to 1298
    0.4286   -9.0456    7.8732 LP  0  0  0  0  0  0  0  0  0  0  0  0  # atno 4299 bound_to 2456
    2.0114   -8.8348    8.2151 LP  0  0  0  0  0  0  0  0  0  0  0  0  # atno 4300 bound_to 2456
    2.7978   -8.3285    4.3560 LP  0  0  0  0  0  0  0  0  0  0  0  0  # atno 4301 bound_to 2510
    2.3975   -9.1362    5.7177 LP  0  0  0  0  0  0  0  0  0  0  0  0  # atno 4302 bound_to 2510
   -3.0616  -17.2840   14.8623 LP  0  0  0  0  0  0  0  0  0  0  0  0  # atno 4306 bound_to 3712
   -3.5261  -16.6987   13.4104 LP  0  0  0  0  0  0  0  0  0  0  0  0  # atno 4307 bound_to 3712
    1.9169  -20.9466    9.5470 LP  0  0  0  0  0  0  0  0  0  0  0  0  # atno 4314 bound_to 3832
    1.7025  -19.6769    8.5429 LP  0  0  0  0  0  0  0  0  0  0  0  0  # atno 4315 bound_to 3832
   -5.3641  -21.9671   11.0208 LP  0  0  0  0  0  0  0  0  0  0  0  0  # atno 4318 bound_to 3762
   -3.9807  -22.7224   11.4475 LP  0  0  0  0  0  0  0  0  0  0  0  0  # atno 4319 bound_to 3762
   -5.5100   -5.2175    8.5003 LP  0  0  0  0  0  0  0  0  0  0  0  0  # atno 4320 bound_to 2467
   -4.0913   -4.8097    7.8020 LP  0  0  0  0  0  0  0  0  0  0  0  0  # atno 4321 bound_to 2467

> <Gold.Score>
     Score     S(PLP)   S(hbond)     S(cho)   S(metal)  DE(clash)   DE(tors)     intcor
     48.04     -44.01       1.36       0.00       0.00       0.00       0.27       0.49

> <Gold.PLP.Fitness>
48.0386

> <Gold.PLP.PLP>
-44.0138

> <Gold.PLP.part.hbond>
-2.0000

> <Gold.PLP.part.metal>
0.0000

> <Gold.PLP.part.buried>
-5.9984

> <Gold.PLP.part.nonpolar>
-37.0875

> <Gold.PLP.part.repulsive>
0.1889

> <Gold.PLP.ligand.clash>
0.0000

> <Gold.PLP.ligand.torsion>
0.2709

> <Gold.PLP.Chemscore.Hbond>
1.3586

> <Gold.PLP.Chemscore.CHOScore>
0.0000

> <Gold.PLP.Chemscore.Metal>
0.0000

> <Gold.Chemscore.Hbonds>
donor molecule, donor type, donor heavy atom, donor atom, acceptor molecule, acceptor atom, score
      L1  H     8    40       P1  1227  0.37
      L1  H    15    41       P1  2398  0.99

> <Gold.PLP.Chemscore.Internal.Correction>
0.4909

