#       Name:                EN300-395701_i002
#       Creating user name   fsindt
#       Creation time:       Mon Feb 27 22:05:47 2023


#       File generated by GOLD software.
#

@<TRIPOS>MOLECULE
EN300-395701_i002|amine_3|mol2|975|dock4
    43    43     1
SMALL
USER_CHARGES


@<TRIPOS>ATOM
      1 C1          -0.1445 -19.4720  14.1985 C.3            1 <1>                0.0000
      2 C2           0.7240 -18.3378  13.6506 C.3            1 <1>                0.0000
      3 C3           1.5236 -17.7098  14.7939 C.3            1 <1>                0.0000
      4 C4           1.6873 -18.8948  12.6004 C.3            1 <1>                0.0000
      5 O5          -0.1246 -17.3289  13.0423 O.3            1 <1>                0.0000
      6 C6           0.4886 -16.3531  12.3463 C.2            1 <1>                0.0000
      7 O7           1.6416 -16.0617  12.5956 O.2            1 <1>                0.0000
      8 N8          -0.1764 -15.6994  11.3732 N.am           1 <1>                0.0000
      9 C9           0.4909 -14.6376  10.6159 C.3            1 <1>                0.0000
     10 C10         -0.3699 -13.3716  10.6426 C.3            1 <1>                0.0000
     11 C11          0.3025 -12.2854   9.7999 C.3            1 <1>                0.0000
     12 N12          0.4605 -12.7625   8.4201 N.3            1 <1>                0.0000
     13 C13          0.9759 -11.6967   7.5503 C.3            1 <1>                0.0000
     14 C14          1.3009 -12.2758   6.1719 C.3            1 <1>                0.0000
     15 N15          2.2678 -11.4045   5.4905 N.4            1 <1>                1.0000
     16 C16          1.3223 -13.9502   8.3642 C.3            1 <1>                0.0000
     17 C17          0.6803 -15.0859   9.1641 C.3            1 <1>                0.0000
     18 H18         -0.8307 -19.0752  14.9466 H              1 <1>                0.0000
     19 H19         -0.7142 -19.9194  13.3839 H              1 <1>                0.0000
     20 H20          0.4926 -20.2295  14.6551 H              1 <1>                0.0000
     21 H21          2.1606 -18.4673  15.2506 H              1 <1>                0.0000
     22 H22          2.1424 -16.9019  14.4037 H              1 <1>                0.0000
     23 H23          0.8374 -17.3131  15.5421 H              1 <1>                0.0000
     24 H24          1.1176 -19.3422  11.7859 H              1 <1>                0.0000
     25 H25          2.3060 -18.0868  12.2101 H              1 <1>                0.0000
     26 H26          2.3243 -19.6522  13.0571 H              1 <1>                0.0000
     27 H27          1.4625 -14.4269  11.0628 H              1 <1>                0.0000
     28 H28         -1.3552 -13.5927  10.2324 H              1 <1>                0.0000
     29 H29         -0.4728 -13.0231  11.6703 H              1 <1>                0.0000
     30 H30         -0.3150 -11.3872   9.8052 H              1 <1>                0.0000
     31 H31          1.2821 -12.0550  10.2189 H              1 <1>                0.0000
     32 H32          0.2228 -10.9154   7.4479 H              1 <1>                0.0000
     33 H33          1.8798 -11.2747   7.9896 H              1 <1>                0.0000
     34 H34          1.7281 -13.2718   6.2878 H              1 <1>                0.0000
     35 H35          0.3881 -12.3385   5.5797 H              1 <1>                0.0000
     36 H36          1.4454 -14.2610   7.3268 H              1 <1>                0.0000
     37 H37          2.2971 -13.7119   8.7899 H              1 <1>                0.0000
     38 H38          1.3277 -15.9624   9.1354 H              1 <1>                0.0000
     39 H39         -0.2885 -15.3341   8.7306 H              1 <1>                0.0000
     40 H40         -1.0968 -15.9321  11.1741 H              1 <1>                0.0000
     41 H41          3.1916 -11.8031   5.5669 H              1 <1>                0.0000
     42 H42          2.0171 -11.3207   4.5168 H              1 <1>                0.0000
     43 H43          2.2588 -10.4916   5.9200 H              1 <1>                0.0000
@<TRIPOS>BOND
    1    1    2 1     
    2    1   18 1     
    3    1   19 1     
    4    1   20 1     
    5    2    3 1     
    6    2    4 1     
    7    2    5 1     
    8    3   21 1     
    9    3   22 1     
   10    3   23 1     
   11    4   24 1     
   12    4   25 1     
   13    4   26 1     
   14    5    6 1     
   15    6    7 2     
   16    6    8 am    
   17    8    9 1     
   18    8   40 1     
   19    9   10 1     
   20    9   17 1     
   21    9   27 1     
   22   10   11 1     
   23   10   28 1     
   24   10   29 1     
   25   11   12 1     
   26   11   30 1     
   27   11   31 1     
   28   12   13 1     
   29   12   16 1     
   30   13   14 1     
   31   13   32 1     
   32   13   33 1     
   33   14   15 1     
   34   14   34 1     
   35   14   35 1     
   36   15   41 1     
   37   15   42 1     
   38   15   43 1     
   39   16   17 1     
   40   16   36 1     
   41   16   37 1     
   42   17   38 1     
   43   17   39 1     
@<TRIPOS>SUBSTRUCTURE
      1 ****           1
@<TRIPOS>SET
DONOR_HYDROGENS      STATIC     ATOMS    <user>   **** ""
4 40 41 42 43
ATOM$RED        STATIC     ATOMS    COLORGROUP SYSTEM
4 40 41 42 43
@<TRIPOS>COMMENT
> <Gold.Version>
2022.2.0

> <Gold.Id.Protein>
3pbl|protein|mol2

> <Gold.Protein.RotatedTorsions>
[ 1303 1298 1297 1294 ] final   18.50 input  179.99 | X-H torsion
[ 2461 2456 2455 2452 ] final   46.92 input   30.03 | X-H torsion
[ 2515 2510 2509 2506 ] final  -29.71 input  -89.99 | X-H torsion
[ 3721 3712 3711 3710 ] final -100.20 input -179.91 | X-H torsion
[ 3841 3832 3831 3830 ] final  -18.42 input -179.91 | X-H torsion
[ 3767 3762 3761 3758 ] final  166.91 input  -89.99 | X-H torsion
[ 2472 2467 2466 2463 ] final -134.60 input  -89.97 | X-H torsion

> <Gold.Protein.ActiveResidues>
 VAL82   VAL86   LEU89   PHE106  VAL107  ASP110  VAL111  MET112  CYS114  THR115 
 CYS181  SER182  ILE183  PHE188  VAL189  ILE190  SER192  SER193  SER196  TRP342 
 PHE345  PHE346  HIS349  VAL350  TYR365  THR369  GLY372  TYR373 

> <Gold.Protein.RotatedAtoms>
    3.5174  -10.0837    4.2205 H   0  0  0  0  0  0  0  0  0  0  0  0  # atno 1303 bound_to 1298
    1.7577   -7.9601    7.2528 H   0  0  0  0  0  0  0  0  0  0  0  0  # atno 2461 bound_to 2456
   -4.7394   -5.4625    9.4131 H   0  0  0  0  0  0  0  0  0  0  0  0  # atno 2472 bound_to 2467
    2.7193   -8.0186    4.3843 H   0  0  0  0  0  0  0  0  0  0  0  0  # atno 2515 bound_to 2510
   -3.0969  -16.8348   14.6109 H   0  0  0  0  0  0  0  0  0  0  0  0  # atno 3721 bound_to 3712
   -3.9937  -22.6946   11.4674 H   0  0  0  0  0  0  0  0  0  0  0  0  # atno 3767 bound_to 3762
    1.6116  -20.2691    9.4412 H   0  0  0  0  0  0  0  0  0  0  0  0  # atno 3841 bound_to 3832
    3.9790   -8.5423    3.9425 LP  0  0  0  0  0  0  0  0  0  0  0  0  # atno 4297 bound_to 1298
    4.8659   -9.4950    4.9286 LP  0  0  0  0  0  0  0  0  0  0  0  0  # atno 4298 bound_to 1298
    0.3328   -8.7157    7.5102 LP  0  0  0  0  0  0  0  0  0  0  0  0  # atno 4299 bound_to 2456
    1.6474   -9.1321    8.3850 LP  0  0  0  0  0  0  0  0  0  0  0  0  # atno 4300 bound_to 2456
    2.5345   -9.2434    5.4480 LP  0  0  0  0  0  0  0  0  0  0  0  0  # atno 4301 bound_to 2510
    2.0429   -7.7373    5.8434 LP  0  0  0  0  0  0  0  0  0  0  0  0  # atno 4302 bound_to 2510
   -3.3432  -17.0749   13.0426 LP  0  0  0  0  0  0  0  0  0  0  0  0  # atno 4306 bound_to 3712
   -2.6090  -18.2153   13.9520 LP  0  0  0  0  0  0  0  0  0  0  0  0  # atno 4307 bound_to 3712
    2.4228  -19.7460    8.1588 LP  0  0  0  0  0  0  0  0  0  0  0  0  # atno 4314 bound_to 3832
    2.9449  -21.0454    8.9989 LP  0  0  0  0  0  0  0  0  0  0  0  0  # atno 4315 bound_to 3832
   -4.7519  -23.2026   10.1132 LP  0  0  0  0  0  0  0  0  0  0  0  0  # atno 4318 bound_to 3762
   -5.3815  -21.9779   10.9908 LP  0  0  0  0  0  0  0  0  0  0  0  0  # atno 4319 bound_to 3762
   -5.2879   -4.9940    7.9482 LP  0  0  0  0  0  0  0  0  0  0  0  0  # atno 4320 bound_to 2467
   -3.6896   -4.9371    8.2780 LP  0  0  0  0  0  0  0  0  0  0  0  0  # atno 4321 bound_to 2467

> <Gold.Score>
     Score     S(PLP)   S(hbond)     S(cho)   S(metal)  DE(clash)   DE(tors)     intcor
     44.26     -41.33       1.23       0.00       0.00       0.00       0.62       0.49

> <Gold.PLP.Fitness>
44.2639

> <Gold.PLP.PLP>
-41.3332

> <Gold.PLP.part.hbond>
-3.1068

> <Gold.PLP.part.metal>
0.0000

> <Gold.PLP.part.buried>
-3.7889

> <Gold.PLP.part.nonpolar>
-35.3364

> <Gold.PLP.part.repulsive>
0.2173

> <Gold.PLP.ligand.clash>
0.0000

> <Gold.PLP.ligand.torsion>
0.6224

> <Gold.PLP.Chemscore.Hbond>
1.2282

> <Gold.PLP.Chemscore.CHOScore>
0.0000

> <Gold.PLP.Chemscore.Metal>
0.0000

> <Gold.Chemscore.Hbonds>
donor molecule, donor type, donor heavy atom, donor atom, acceptor molecule, acceptor atom, score
      L1  H    15    41       P1  1235  1.00
      L1  H    15    43       P1  2510  0.23

> <Gold.PLP.Chemscore.Internal.Correction>
0.4909

