#       Name:                EN300-395701_i002
#       Creating user name   fsindt
#       Creation time:       Mon Feb 27 22:06:00 2023


#       File generated by GOLD software.
#

@<TRIPOS>MOLECULE
EN300-395701_i002|amine_3|mol2|975|dock12
    43    43     1
SMALL
USER_CHARGES


@<TRIPOS>ATOM
      1 C1          -2.8608 -11.7068  10.5205 C.3            1 <1>                0.0000
      2 C2          -1.3985 -11.3384  10.2618 C.3            1 <1>                0.0000
      3 C3          -1.3031 -10.4919   8.9908 C.3            1 <1>                0.0000
      4 C4          -0.8563 -10.5393  11.4486 C.3            1 <1>                0.0000
      5 O5          -0.6161 -12.5501  10.0961 O.3            1 <1>                0.0000
      6 C6          -0.6574 -13.4464  11.1000 C.2            1 <1>                0.0000
      7 O7          -1.1887 -13.1550  12.1531 O.2            1 <1>                0.0000
      8 N8          -0.1094 -14.6669  10.9366 N.am           1 <1>                0.0000
      9 C9          -0.1544 -15.6421  12.0289 C.3            1 <1>                0.0000
     10 C10          1.0315 -15.4117  12.9697 C.3            1 <1>                0.0000
     11 C11          1.0136 -16.4709  14.0742 C.3            1 <1>                0.0000
     12 N12          1.0953 -17.8081  13.4729 N.3            1 <1>                0.0000
     13 C13          1.2200 -18.8437  14.5074 C.3            1 <1>                0.0000
     14 C14         -0.0400 -18.8519  15.3753 C.3            1 <1>                0.0000
     15 N15          0.2289 -19.5813  16.6218 N.4            1 <1>                1.0000
     16 C16         -0.0577 -18.0703  12.6021 C.3            1 <1>                0.0000
     17 C17         -0.0717 -17.0588  11.4538 C.3            1 <1>                0.0000
     18 H18         -3.2471 -12.2760   9.6750 H              1 <1>                0.0000
     19 H19         -2.9288 -12.3099  11.4260 H              1 <1>                0.0000
     20 H20         -3.4482 -10.7971  10.6449 H              1 <1>                0.0000
     21 H21         -1.8905  -9.5822   9.1152 H              1 <1>                0.0000
     22 H22         -0.2614 -10.2293   8.8065 H              1 <1>                0.0000
     23 H23         -1.6894 -11.0610   8.1454 H              1 <1>                0.0000
     24 H24         -0.9243 -11.1424  12.3540 H              1 <1>                0.0000
     25 H25          0.1854 -10.2768  11.2643 H              1 <1>                0.0000
     26 H26         -1.4437  -9.6296  11.5730 H              1 <1>                0.0000
     27 H27         -1.0862 -15.5264  12.5824 H              1 <1>                0.0000
     28 H28          1.9622 -15.4878  12.4076 H              1 <1>                0.0000
     29 H29          0.9551 -14.4199  13.4155 H              1 <1>                0.0000
     30 H30          1.8648 -16.3183  14.7377 H              1 <1>                0.0000
     31 H31          0.0887 -16.3852  14.6447 H              1 <1>                0.0000
     32 H32          1.3412 -19.8178  14.0336 H              1 <1>                0.0000
     33 H33          2.0890 -18.6321  15.1304 H              1 <1>                0.0000
     34 H34         -0.3269 -17.8267  15.6090 H              1 <1>                0.0000
     35 H35         -0.8500 -19.3419  14.8352 H              1 <1>                0.0000
     36 H36          0.0156 -19.0793  12.1965 H              1 <1>                0.0000
     37 H37         -0.9775 -17.9770  13.1795 H              1 <1>                0.0000
     38 H38         -0.9363 -17.2439  10.8164 H              1 <1>                0.0000
     39 H39          0.8417 -17.1609  10.8677 H              1 <1>                0.0000
     40 H40          0.3147 -14.8996  10.0958 H              1 <1>                0.0000
     41 H41          1.1604 -19.3651  16.9436 H              1 <1>                0.0000
     42 H42         -0.4417 -19.3064  17.3238 H              1 <1>                0.0000
     43 H43          0.1529 -20.5733  16.4541 H              1 <1>                0.0000
@<TRIPOS>BOND
    1    1    2 1     
    2    1   18 1     
    3    1   19 1     
    4    1   20 1     
    5    2    3 1     
    6    2    4 1     
    7    2    5 1     
    8    3   21 1     
    9    3   22 1     
   10    3   23 1     
   11    4   24 1     
   12    4   25 1     
   13    4   26 1     
   14    5    6 1     
   15    6    7 2     
   16    6    8 am    
   17    8    9 1     
   18    8   40 1     
   19    9   10 1     
   20    9   17 1     
   21    9   27 1     
   22   10   11 1     
   23   10   28 1     
   24   10   29 1     
   25   11   12 1     
   26   11   30 1     
   27   11   31 1     
   28   12   13 1     
   29   12   16 1     
   30   13   14 1     
   31   13   32 1     
   32   13   33 1     
   33   14   15 1     
   34   14   34 1     
   35   14   35 1     
   36   15   41 1     
   37   15   42 1     
   38   15   43 1     
   39   16   17 1     
   40   16   36 1     
   41   16   37 1     
   42   17   38 1     
   43   17   39 1     
@<TRIPOS>SUBSTRUCTURE
      1 ****           1
@<TRIPOS>SET
DONOR_HYDROGENS      STATIC     ATOMS    <user>   **** ""
4 40 41 42 43
ATOM$RED        STATIC     ATOMS    COLORGROUP SYSTEM
4 40 41 42 43
@<TRIPOS>COMMENT
> <Gold.Version>
2022.2.0

> <Gold.Id.Protein>
3pbl|protein|mol2

> <Gold.Protein.RotatedTorsions>
[ 1303 1298 1297 1294 ] final  -14.70 input  179.99 | X-H torsion
[ 2461 2456 2455 2452 ] final -100.93 input   30.03 | X-H torsion
[ 2515 2510 2509 2506 ] final   -9.67 input  -89.99 | X-H torsion
[ 3721 3712 3711 3710 ] final  -12.69 input -179.91 | X-H torsion
[ 3841 3832 3831 3830 ] final -159.54 input -179.91 | X-H torsion
[ 3767 3762 3761 3758 ] final  160.92 input  -89.99 | X-H torsion
[ 2472 2467 2466 2463 ] final  171.77 input  -89.97 | X-H torsion

> <Gold.Protein.ActiveResidues>
 VAL82   VAL86   LEU89   PHE106  VAL107  ASP110  VAL111  MET112  CYS114  THR115 
 CYS181  SER182  ILE183  PHE188  VAL189  ILE190  SER192  SER193  SER196  TRP342 
 PHE345  PHE346  HIS349  VAL350  TYR365  THR369  GLY372  TYR373 

> <Gold.Protein.RotatedAtoms>
    3.3356   -9.6667    3.9323 H   0  0  0  0  0  0  0  0  0  0  0  0  # atno 1303 bound_to 1298
    0.4086   -9.0188    7.8394 H   0  0  0  0  0  0  0  0  0  0  0  0  # atno 2461 bound_to 2456
   -5.4144   -5.3543    8.9068 H   0  0  0  0  0  0  0  0  0  0  0  0  # atno 2472 bound_to 2467
    2.6046   -7.7397    4.5135 H   0  0  0  0  0  0  0  0  0  0  0  0  # atno 2515 bound_to 2510
   -2.5236  -17.8670   14.4076 H   0  0  0  0  0  0  0  0  0  0  0  0  # atno 3721 bound_to 3712
   -3.9597  -22.7680   11.4111 H   0  0  0  0  0  0  0  0  0  0  0  0  # atno 3767 bound_to 3762
    2.7462  -19.8354    8.3503 H   0  0  0  0  0  0  0  0  0  0  0  0  # atno 3841 bound_to 3832
    4.4284   -8.4919    4.2352 LP  0  0  0  0  0  0  0  0  0  0  0  0  # atno 4297 bound_to 1298
    4.5985   -9.9626    4.9242 LP  0  0  0  0  0  0  0  0  0  0  0  0  # atno 4298 bound_to 1298
    1.9851   -8.8670    8.2381 LP  0  0  0  0  0  0  0  0  0  0  0  0  # atno 4299 bound_to 2456
    1.3438   -7.9225    7.0706 LP  0  0  0  0  0  0  0  0  0  0  0  0  # atno 4300 bound_to 2456
    2.6621   -9.2440    5.1456 LP  0  0  0  0  0  0  0  0  0  0  0  0  # atno 4301 bound_to 2510
    2.0299   -8.0158    6.0165 LP  0  0  0  0  0  0  0  0  0  0  0  0  # atno 4302 bound_to 2510
   -3.5044  -16.6033   14.2695 LP  0  0  0  0  0  0  0  0  0  0  0  0  # atno 4306 bound_to 3712
   -3.1098  -17.4953   12.9598 LP  0  0  0  0  0  0  0  0  0  0  0  0  # atno 4307 bound_to 3712
    2.6674  -21.1515    9.2657 LP  0  0  0  0  0  0  0  0  0  0  0  0  # atno 4314 bound_to 3832
    1.3897  -20.1409    9.1520 LP  0  0  0  0  0  0  0  0  0  0  0  0  # atno 4315 bound_to 3832
   -4.8353  -23.1563   10.0885 LP  0  0  0  0  0  0  0  0  0  0  0  0  # atno 4318 bound_to 3762
   -5.3322  -21.9508   11.0717 LP  0  0  0  0  0  0  0  0  0  0  0  0  # atno 4319 bound_to 3762
   -4.5086   -4.8058    7.6638 LP  0  0  0  0  0  0  0  0  0  0  0  0  # atno 4320 bound_to 2467
   -3.7941   -5.2335    9.0685 LP  0  0  0  0  0  0  0  0  0  0  0  0  # atno 4321 bound_to 2467

> <Gold.Score>
     Score     S(PLP)   S(hbond)     S(cho)   S(metal)  DE(clash)   DE(tors)     intcor
     42.87     -41.25       0.99       0.00       0.00       0.78       0.51       0.45

> <Gold.PLP.Fitness>
42.8674

> <Gold.PLP.PLP>
-41.2482

> <Gold.PLP.part.hbond>
-2.0000

> <Gold.PLP.part.metal>
0.0000

> <Gold.PLP.part.buried>
-3.6991

> <Gold.PLP.part.nonpolar>
-37.2300

> <Gold.PLP.part.repulsive>
0.1818

> <Gold.PLP.ligand.clash>
0.7768

> <Gold.PLP.ligand.torsion>
0.5137

> <Gold.PLP.Chemscore.Hbond>
0.9913

> <Gold.PLP.Chemscore.CHOScore>
0.0000

> <Gold.PLP.Chemscore.Metal>
0.0000

> <Gold.Chemscore.Hbonds>
donor molecule, donor type, donor heavy atom, donor atom, acceptor molecule, acceptor atom, score
      L1  H    15    41       P1  2287  0.99

> <Gold.PLP.Chemscore.Internal.Correction>
0.4496

