#       Name:                EN300-395701_i002
#       Creating user name   fsindt
#       Creation time:       Mon Feb 27 22:06:13 2023


#       File generated by GOLD software.
#

@<TRIPOS>MOLECULE
EN300-395701_i002|amine_3|mol2|975|dock19
    43    43     1
SMALL
USER_CHARGES


@<TRIPOS>ATOM
      1 C1          -0.0857 -24.6027  14.7355 C.3            1 <1>                0.0000
      2 C2          -0.7617 -23.3380  14.2021 C.3            1 <1>                0.0000
      3 C3          -1.1817 -23.5590  12.7475 C.3            1 <1>                0.0000
      4 C4          -1.9977 -23.0250  15.0478 C.3            1 <1>                0.0000
      5 O5           0.1682 -22.2252  14.2736 O.3            1 <1>                0.0000
      6 C6          -0.3073 -21.0092  13.9451 C.2            1 <1>                0.0000
      7 O7          -1.3905 -20.9063  13.4043 O.2            1 <1>                0.0000
      8 N8           0.4181 -19.9061  14.2162 N.am           1 <1>                0.0000
      9 C9          -0.0993 -18.5830  13.8587 C.3            1 <1>                0.0000
     10 C10         -0.2029 -18.4685  12.3353 C.3            1 <1>                0.0000
     11 C11         -0.6859 -17.0642  11.9658 C.3            1 <1>                0.0000
     12 N12          0.2587 -16.0676  12.4864 N.3            1 <1>                0.0000
     13 C13         -0.0983 -14.7167  12.0329 C.3            1 <1>                0.0000
     14 C14          0.1975 -14.5859  10.5375 C.3            1 <1>                0.0000
     15 N15          1.5957 -14.9565  10.2808 N.4            1 <1>                1.0000
     16 C16          0.3392 -16.1268  13.9515 C.3            1 <1>                0.0000
     17 C17          0.8527 -17.5032  14.3802 C.3            1 <1>                0.0000
     18 H18          0.7948 -24.8257  14.1329 H              1 <1>                0.0000
     19 H19          0.2136 -24.4452  15.7717 H              1 <1>                0.0000
     20 H20         -0.7838 -25.4381  14.6818 H              1 <1>                0.0000
     21 H21         -1.8798 -24.3944  12.6939 H              1 <1>                0.0000
     22 H22         -1.6634 -22.6581  12.3675 H              1 <1>                0.0000
     23 H23         -0.3012 -23.7820  12.1450 H              1 <1>                0.0000
     24 H24         -1.6984 -22.8676  16.0841 H              1 <1>                0.0000
     25 H25         -2.4793 -22.1241  14.6679 H              1 <1>                0.0000
     26 H26         -2.6958 -23.8604  14.9942 H              1 <1>                0.0000
     27 H27         -1.0855 -18.4456  14.3021 H              1 <1>                0.0000
     28 H28          0.7759 -18.6457  11.8896 H              1 <1>                0.0000
     29 H29         -0.9123 -19.2072  11.9622 H              1 <1>                0.0000
     30 H30         -0.7471 -16.9748  10.8811 H              1 <1>                0.0000
     31 H31         -1.6708 -16.8928  12.4003 H              1 <1>                0.0000
     32 H32         -1.1596 -14.5426  12.2101 H              1 <1>                0.0000
     33 H33          0.4876 -13.9816  12.5849 H              1 <1>                0.0000
     34 H34         -0.4626 -15.2480   9.9773 H              1 <1>                0.0000
     35 H35          0.0312 -13.5556  10.2230 H              1 <1>                0.0000
     36 H36          1.0225 -15.3566  14.3091 H              1 <1>                0.0000
     37 H37         -0.6505 -15.9598  14.3767 H              1 <1>                0.0000
     38 H38          0.8976 -17.5521  15.4682 H              1 <1>                0.0000
     39 H39          1.8482 -17.6652  13.9668 H              1 <1>                0.0000
     40 H40          1.2829 -19.9883  14.6479 H              1 <1>                0.0000
     41 H41          1.6437 -15.9319  10.0270 H              1 <1>                0.0000
     42 H42          1.9595 -14.3943   9.5261 H              1 <1>                0.0000
     43 H43          2.1439 -14.7981  11.1128 H              1 <1>                0.0000
@<TRIPOS>BOND
    1    1    2 1     
    2    1   18 1     
    3    1   19 1     
    4    1   20 1     
    5    2    3 1     
    6    2    4 1     
    7    2    5 1     
    8    3   21 1     
    9    3   22 1     
   10    3   23 1     
   11    4   24 1     
   12    4   25 1     
   13    4   26 1     
   14    5    6 1     
   15    6    7 2     
   16    6    8 am    
   17    8    9 1     
   18    8   40 1     
   19    9   10 1     
   20    9   17 1     
   21    9   27 1     
   22   10   11 1     
   23   10   28 1     
   24   10   29 1     
   25   11   12 1     
   26   11   30 1     
   27   11   31 1     
   28   12   13 1     
   29   12   16 1     
   30   13   14 1     
   31   13   32 1     
   32   13   33 1     
   33   14   15 1     
   34   14   34 1     
   35   14   35 1     
   36   15   41 1     
   37   15   42 1     
   38   15   43 1     
   39   16   17 1     
   40   16   36 1     
   41   16   37 1     
   42   17   38 1     
   43   17   39 1     
@<TRIPOS>SUBSTRUCTURE
      1 ****           1
@<TRIPOS>SET
DONOR_HYDROGENS      STATIC     ATOMS    <user>   **** ""
4 40 41 42 43
ATOM$RED        STATIC     ATOMS    COLORGROUP SYSTEM
4 40 41 42 43
@<TRIPOS>COMMENT
> <Gold.Version>
2022.2.0

> <Gold.Id.Protein>
3pbl|protein|mol2

> <Gold.Protein.RotatedTorsions>
[ 1303 1298 1297 1294 ] final -104.80 input  179.99 | X-H torsion
[ 2461 2456 2455 2452 ] final -138.73 input   30.03 | X-H torsion
[ 2515 2510 2509 2506 ] final  -57.95 input  -89.99 | X-H torsion
[ 3721 3712 3711 3710 ] final    6.57 input -179.91 | X-H torsion
[ 3841 3832 3831 3830 ] final  -39.57 input -179.91 | X-H torsion
[ 3767 3762 3761 3758 ] final  -54.66 input  -89.99 | X-H torsion
[ 2472 2467 2466 2463 ] final  167.42 input  -89.97 | X-H torsion

> <Gold.Protein.ActiveResidues>
 VAL82   VAL86   LEU89   PHE106  VAL107  ASP110  VAL111  MET112  CYS114  THR115 
 CYS181  SER182  ILE183  PHE188  VAL189  ILE190  SER192  SER193  SER196  TRP342 
 PHE345  PHE346  HIS349  VAL350  TYR365  THR369  GLY372  TYR373 

> <Gold.Protein.RotatedAtoms>
    4.0238   -8.5242    3.9673 H   0  0  0  0  0  0  0  0  0  0  0  0  # atno 1303 bound_to 1298
    0.8113   -9.2658    8.2268 H   0  0  0  0  0  0  0  0  0  0  0  0  # atno 2461 bound_to 2456
   -5.4433   -5.3349    8.8444 H   0  0  0  0  0  0  0  0  0  0  0  0  # atno 2472 bound_to 2467
    2.8194   -8.4673    4.3764 H   0  0  0  0  0  0  0  0  0  0  0  0  # atno 2515 bound_to 2510
   -2.4759  -17.9903   14.1497 H   0  0  0  0  0  0  0  0  0  0  0  0  # atno 3721 bound_to 3712
   -5.4851  -22.1030   10.7363 H   0  0  0  0  0  0  0  0  0  0  0  0  # atno 3767 bound_to 3762
    1.5613  -20.0206    9.2498 H   0  0  0  0  0  0  0  0  0  0  0  0  # atno 3841 bound_to 3832
    4.8493   -9.5463    4.9369 LP  0  0  0  0  0  0  0  0  0  0  0  0  # atno 4297 bound_to 1298
    3.4891  -10.0512    4.1876 LP  0  0  0  0  0  0  0  0  0  0  0  0  # atno 4298 bound_to 1298
    2.1608   -8.4237    7.8566 LP  0  0  0  0  0  0  0  0  0  0  0  0  # atno 4299 bound_to 2456
    0.7655   -8.1188    7.0649 LP  0  0  0  0  0  0  0  0  0  0  0  0  # atno 4300 bound_to 2456
    2.3375   -9.0582    5.8201 LP  0  0  0  0  0  0  0  0  0  0  0  0  # atno 4301 bound_to 2510
    2.1396   -7.4735    5.4792 LP  0  0  0  0  0  0  0  0  0  0  0  0  # atno 4302 bound_to 2510
   -3.4025  -16.7389   14.5412 LP  0  0  0  0  0  0  0  0  0  0  0  0  # atno 4306 bound_to 3712
   -3.2667  -17.2172   12.9858 LP  0  0  0  0  0  0  0  0  0  0  0  0  # atno 4307 bound_to 3712
    2.7198  -19.9331    8.1424 LP  0  0  0  0  0  0  0  0  0  0  0  0  # atno 4314 bound_to 3832
    2.7061  -21.1454    9.2363 LP  0  0  0  0  0  0  0  0  0  0  0  0  # atno 4315 bound_to 3832
   -4.1458  -22.4680   11.5965 LP  0  0  0  0  0  0  0  0  0  0  0  0  # atno 4318 bound_to 3762
   -4.4967  -23.3038   10.2383 LP  0  0  0  0  0  0  0  0  0  0  0  0  # atno 4319 bound_to 3762
   -4.4379   -4.8015    7.6734 LP  0  0  0  0  0  0  0  0  0  0  0  0  # atno 4320 bound_to 2467
   -3.8359   -5.2571    9.1214 LP  0  0  0  0  0  0  0  0  0  0  0  0  # atno 4321 bound_to 2467

> <Gold.Score>
     Score     S(PLP)   S(hbond)     S(cho)   S(metal)  DE(clash)   DE(tors)     intcor
     41.38     -35.83       2.00       0.00       0.00       0.36       0.27       0.45

> <Gold.PLP.Fitness>
41.3751

> <Gold.PLP.PLP>
-35.8301

> <Gold.PLP.part.hbond>
-1.0000

> <Gold.PLP.part.metal>
0.0000

> <Gold.PLP.part.buried>
-5.6830

> <Gold.PLP.part.nonpolar>
-29.2827

> <Gold.PLP.part.repulsive>
0.0989

> <Gold.PLP.ligand.clash>
0.3575

> <Gold.PLP.ligand.torsion>
0.2736

> <Gold.PLP.Chemscore.Hbond>
2.0000

> <Gold.PLP.Chemscore.CHOScore>
0.0000

> <Gold.PLP.Chemscore.Metal>
0.0000

> <Gold.Chemscore.Hbonds>
donor molecule, donor type, donor heavy atom, donor atom, acceptor molecule, acceptor atom, score
      L1  H    15    41       P1  1227  2.00

> <Gold.PLP.Chemscore.Internal.Correction>
0.4496

