#       Name:                EN300-395701_i002
#       Creating user name   fsindt
#       Creation time:       Mon Feb 27 22:05:55 2023


#       File generated by GOLD software.
#

@<TRIPOS>MOLECULE
EN300-395701_i002|amine_3|mol2|975|dock9
    43    43     1
SMALL
USER_CHARGES


@<TRIPOS>ATOM
      1 C1          -1.0068 -12.5694   8.3479 C.3            1 <1>                0.0000
      2 C2           0.5025 -12.5074   8.5912 C.3            1 <1>                0.0000
      3 C3           1.2129 -12.1203   7.2925 C.3            1 <1>                0.0000
      4 C4           0.8030 -11.4626   9.6678 C.3            1 <1>                0.0000
      5 O5           0.9754 -13.8072   9.0327 O.3            1 <1>                0.0000
      6 C6           0.3631 -14.3495  10.1021 C.2            1 <1>                0.0000
      7 O7          -0.3851 -13.6744  10.7809 O.2            1 <1>                0.0000
      8 N8           0.5800 -15.6413  10.4196 N.am           1 <1>                0.0000
      9 C9          -0.0863 -16.2313  11.5833 C.3            1 <1>                0.0000
     10 C10          0.4313 -15.5657  12.8614 C.3            1 <1>                0.0000
     11 C11         -0.2228 -16.2274  14.0764 C.3            1 <1>                0.0000
     12 N12          0.0966 -17.6607  14.0857 N.3            1 <1>                0.0000
     13 C13         -0.3985 -18.3025  15.3109 C.3            1 <1>                0.0000
     14 C14          0.2940 -19.6544  15.4941 C.3            1 <1>                0.0000
     15 N15          1.7346 -19.4439  15.6907 N.4            1 <1>                1.0000
     16 C16         -0.4318 -18.3304  12.8904 C.3            1 <1>                0.0000
     17 C17          0.2160 -17.7313  11.6401 C.3            1 <1>                0.0000
     18 H18         -1.2209 -13.3137   7.5808 H              1 <1>                0.0000
     19 H19         -1.5129 -12.8452   9.2730 H              1 <1>                0.0000
     20 H20         -1.3618 -11.5936   8.0164 H              1 <1>                0.0000
     21 H21          0.8579 -11.1445   6.9611 H              1 <1>                0.0000
     22 H22          2.2881 -12.0761   7.4658 H              1 <1>                0.0000
     23 H23          0.9988 -12.8645   6.5255 H              1 <1>                0.0000
     24 H24          0.2968 -11.7384  10.5930 H              1 <1>                0.0000
     25 H25          1.8782 -11.4185   9.8411 H              1 <1>                0.0000
     26 H26          0.4479 -10.4868   9.3364 H              1 <1>                0.0000
     27 H27         -1.1625 -16.0784  11.5032 H              1 <1>                0.0000
     28 H28          1.5132 -15.6841  12.9210 H              1 <1>                0.0000
     29 H29          0.1811 -14.5049  12.8462 H              1 <1>                0.0000
     30 H30          0.1544 -15.7653  14.9887 H              1 <1>                0.0000
     31 H31         -1.3037 -16.0966  14.0232 H              1 <1>                0.0000
     32 H32         -0.1826 -17.6645  16.1679 H              1 <1>                0.0000
     33 H33         -1.4752 -18.4534  15.2323 H              1 <1>                0.0000
     34 H34         -0.1215 -20.1604  16.3656 H              1 <1>                0.0000
     35 H35          0.1342 -20.2676  14.6073 H              1 <1>                0.0000
     36 H36         -0.2065 -19.3956  12.9414 H              1 <1>                0.0000
     37 H37         -1.5117 -18.1897  12.8428 H              1 <1>                0.0000
     38 H38         -0.1880 -18.2178  10.7523 H              1 <1>                0.0000
     39 H39          1.2945 -17.8839  11.6804 H              1 <1>                0.0000
     40 H40          1.1772 -16.1803   9.8777 H              1 <1>                0.0000
     41 H41          2.0582 -18.7246  15.0615 H              1 <1>                0.0000
     42 H42          1.9060 -19.1594  16.6435 H              1 <1>                0.0000
     43 H43          2.2289 -20.3030  15.5021 H              1 <1>                0.0000
@<TRIPOS>BOND
    1    1    2 1     
    2    1   18 1     
    3    1   19 1     
    4    1   20 1     
    5    2    3 1     
    6    2    4 1     
    7    2    5 1     
    8    3   21 1     
    9    3   22 1     
   10    3   23 1     
   11    4   24 1     
   12    4   25 1     
   13    4   26 1     
   14    5    6 1     
   15    6    7 2     
   16    6    8 am    
   17    8    9 1     
   18    8   40 1     
   19    9   10 1     
   20    9   17 1     
   21    9   27 1     
   22   10   11 1     
   23   10   28 1     
   24   10   29 1     
   25   11   12 1     
   26   11   30 1     
   27   11   31 1     
   28   12   13 1     
   29   12   16 1     
   30   13   14 1     
   31   13   32 1     
   32   13   33 1     
   33   14   15 1     
   34   14   34 1     
   35   14   35 1     
   36   15   41 1     
   37   15   42 1     
   38   15   43 1     
   39   16   17 1     
   40   16   36 1     
   41   16   37 1     
   42   17   38 1     
   43   17   39 1     
@<TRIPOS>SUBSTRUCTURE
      1 ****           1
@<TRIPOS>SET
DONOR_HYDROGENS      STATIC     ATOMS    <user>   **** ""
4 40 41 42 43
ATOM$RED        STATIC     ATOMS    COLORGROUP SYSTEM
4 40 41 42 43
@<TRIPOS>COMMENT
> <Gold.Version>
2022.2.0

> <Gold.Id.Protein>
3pbl|protein|mol2

> <Gold.Protein.RotatedTorsions>
[ 1303 1298 1297 1294 ] final   -5.14 input  179.99 | X-H torsion
[ 2461 2456 2455 2452 ] final  -61.89 input   30.03 | X-H torsion
[ 2515 2510 2509 2506 ] final  122.20 input  -89.99 | X-H torsion
[ 3721 3712 3711 3710 ] final   67.51 input -179.91 | X-H torsion
[ 3841 3832 3831 3830 ] final   31.99 input -179.91 | X-H torsion
[ 3767 3762 3761 3758 ] final   71.59 input  -89.99 | X-H torsion
[ 2472 2467 2466 2463 ] final -128.27 input  -89.97 | X-H torsion

> <Gold.Protein.ActiveResidues>
 VAL82   VAL86   LEU89   PHE106  VAL107  ASP110  VAL111  MET112  CYS114  THR115 
 CYS181  SER182  ILE183  PHE188  VAL189  ILE190  SER192  SER193  SER196  TRP342 
 PHE345  PHE346  HIS349  VAL350  TYR365  THR369  GLY372  TYR373 

> <Gold.Protein.RotatedAtoms>
    3.3628   -9.8037    4.0044 H   0  0  0  0  0  0  0  0  0  0  0  0  # atno 1303 bound_to 1298
    0.3623   -8.5823    7.3872 H   0  0  0  0  0  0  0  0  0  0  0  0  # atno 2461 bound_to 2456
   -4.6366   -5.4568    9.4288 H   0  0  0  0  0  0  0  0  0  0  0  0  # atno 2472 bound_to 2467
    2.0456   -8.2011    6.0744 H   0  0  0  0  0  0  0  0  0  0  0  0  # atno 2515 bound_to 2510
   -2.6333  -17.8478   13.2972 H   0  0  0  0  0  0  0  0  0  0  0  0  # atno 3721 bound_to 3712
   -4.4133  -23.3224   10.2955 H   0  0  0  0  0  0  0  0  0  0  0  0  # atno 3767 bound_to 3762
    2.0917  -20.7996    9.6189 H   0  0  0  0  0  0  0  0  0  0  0  0  # atno 3841 bound_to 3832
    4.3030   -8.4758    4.1419 LP  0  0  0  0  0  0  0  0  0  0  0  0  # atno 4297 bound_to 1298
    4.6967   -9.8417    4.9455 LP  0  0  0  0  0  0  0  0  0  0  0  0  # atno 4298 bound_to 1298
    1.4801   -9.2067    8.4011 LP  0  0  0  0  0  0  0  0  0  0  0  0  # atno 4299 bound_to 2456
    1.8951   -8.0192    7.3598 LP  0  0  0  0  0  0  0  0  0  0  0  0  # atno 4300 bound_to 2456
    2.5258   -7.6064    4.6317 LP  0  0  0  0  0  0  0  0  0  0  0  0  # atno 4301 bound_to 2510
    2.7255   -9.1917    4.9688 LP  0  0  0  0  0  0  0  0  0  0  0  0  # atno 4302 bound_to 2510
   -2.9236  -17.5278   14.8436 LP  0  0  0  0  0  0  0  0  0  0  0  0  # atno 4306 bound_to 3712
   -3.5638  -16.5929   13.6676 LP  0  0  0  0  0  0  0  0  0  0  0  0  # atno 4307 bound_to 3712
    1.7054  -19.6758    8.5401 LP  0  0  0  0  0  0  0  0  0  0  0  0  # atno 4314 bound_to 3832
    3.1077  -20.5028    8.4123 LP  0  0  0  0  0  0  0  0  0  0  0  0  # atno 4315 bound_to 3832
   -5.5028  -22.1593   10.6520 LP  0  0  0  0  0  0  0  0  0  0  0  0  # atno 4318 bound_to 3762
   -4.2112  -22.3936   11.6234 LP  0  0  0  0  0  0  0  0  0  0  0  0  # atno 4319 bound_to 3762
   -5.3504   -5.0283    8.0241 LP  0  0  0  0  0  0  0  0  0  0  0  0  # atno 4320 bound_to 2467
   -3.7299   -4.9085    8.1864 LP  0  0  0  0  0  0  0  0  0  0  0  0  # atno 4321 bound_to 2467

> <Gold.Score>
     Score     S(PLP)   S(hbond)     S(cho)   S(metal)  DE(clash)   DE(tors)     intcor
     43.09     -37.60       2.00       0.00       0.00       0.36       0.29       0.45

> <Gold.PLP.Fitness>
43.0949

> <Gold.PLP.PLP>
-37.5985

> <Gold.PLP.part.hbond>
-2.0000

> <Gold.PLP.part.metal>
0.0000

> <Gold.PLP.part.buried>
-3.8610

> <Gold.PLP.part.nonpolar>
-31.3912

> <Gold.PLP.part.repulsive>
0.1161

> <Gold.PLP.ligand.clash>
0.3645

> <Gold.PLP.ligand.torsion>
0.2943

> <Gold.PLP.Chemscore.Hbond>
2.0000

> <Gold.PLP.Chemscore.CHOScore>
0.0000

> <Gold.PLP.Chemscore.Metal>
0.0000

> <Gold.Chemscore.Hbonds>
donor molecule, donor type, donor heavy atom, donor atom, acceptor molecule, acceptor atom, score
      L1  H     8    40       P1  1227  1.00
      L1  H    15    42       P1  2287  1.00

> <Gold.PLP.Chemscore.Internal.Correction>
0.4496

