#       Name:                EN300-395701_i002
#       Creating user name   fsindt
#       Creation time:       Mon Feb 27 22:05:52 2023


#       File generated by GOLD software.
#

@<TRIPOS>MOLECULE
EN300-395701_i002|amine_3|mol2|975|dock7
    43    43     1
SMALL
USER_CHARGES


@<TRIPOS>ATOM
      1 C1          -0.0540 -17.3837  15.0005 C.3            1 <1>                0.0000
      2 C2           0.6347 -18.3790  14.0647 C.3            1 <1>                0.0000
      3 C3           1.6991 -19.1567  14.8414 C.3            1 <1>                0.0000
      4 C4          -0.4027 -19.3545  13.5050 C.3            1 <1>                0.0000
      5 O5           1.2627 -17.6600  12.9707 O.3            1 <1>                0.0000
      6 C6           0.4975 -16.7788  12.2994 C.2            1 <1>                0.0000
      7 O7          -0.7131 -16.8350  12.3871 O.2            1 <1>                0.0000
      8 N8           1.0743 -15.8344  11.5300 N.am           1 <1>                0.0000
      9 C9           0.2416 -14.8756  10.7995 C.3            1 <1>                0.0000
     10 C10          1.1130 -14.0814   9.8225 C.3            1 <1>                0.0000
     11 C11          0.2494 -13.0404   9.1066 C.3            1 <1>                0.0000
     12 N12         -0.3540 -12.1389  10.0964 N.3            1 <1>                0.0000
     13 C13         -1.0780 -11.0432   9.4381 C.3            1 <1>                0.0000
     14 C14         -1.7501 -10.1672  10.4973 C.3            1 <1>                0.0000
     15 N15         -2.7376  -9.2909   9.8531 N.4            1 <1>                1.0000
     16 C16         -1.2326 -12.8723  11.0165 C.3            1 <1>                0.0000
     17 C17         -0.4132 -13.9082  11.7894 C.3            1 <1>                0.0000
     18 H18          0.6851 -16.6887  15.3993 H              1 <1>                0.0000
     19 H19         -0.8123 -16.8296  14.4472 H              1 <1>                0.0000
     20 H20         -0.5255 -17.9234  15.8218 H              1 <1>                0.0000
     21 H21          1.2276 -19.6965  15.6626 H              1 <1>                0.0000
     22 H22          2.1897 -19.8659  14.1747 H              1 <1>                0.0000
     23 H23          2.4381 -18.4619  15.2401 H              1 <1>                0.0000
     24 H24         -1.1610 -18.8004  12.9516 H              1 <1>                0.0000
     25 H25          0.0879 -20.0636  12.8383 H              1 <1>                0.0000
     26 H26         -0.8742 -19.8943  14.3263 H              1 <1>                0.0000
     27 H27         -0.5304 -15.4107  10.2467 H              1 <1>                0.0000
     28 H28          1.9093 -13.5785  10.3711 H              1 <1>                0.0000
     29 H29          1.5482 -14.7599   9.0888 H              1 <1>                0.0000
     30 H30          0.8698 -12.4636   8.4206 H              1 <1>                0.0000
     31 H31         -0.5383 -13.5448   8.5470 H              1 <1>                0.0000
     32 H32         -0.3776 -10.4409   8.8595 H              1 <1>                0.0000
     33 H33         -1.8367 -11.4567   8.7737 H              1 <1>                0.0000
     34 H34         -2.2500 -10.8014  11.2294 H              1 <1>                0.0000
     35 H35         -0.9964  -9.5592  10.9976 H              1 <1>                0.0000
     36 H36         -1.6886 -12.1733  11.7176 H              1 <1>                0.0000
     37 H37         -2.0134 -13.3775  10.4479 H              1 <1>                0.0000
     38 H38         -1.0685 -14.4630  12.4610 H              1 <1>                0.0000
     39 H39          0.3591 -13.4026  12.3691 H              1 <1>                0.0000
     40 H40          2.0407 -15.7896  11.4599 H              1 <1>                0.0000
     41 H41         -2.7725  -8.4082  10.3406 H              1 <1>                0.0000
     42 H42         -2.4722  -9.1342   8.8923 H              1 <1>                0.0000
     43 H43         -3.6463  -9.7282   9.8840 H              1 <1>                0.0000
@<TRIPOS>BOND
    1    1    2 1     
    2    1   18 1     
    3    1   19 1     
    4    1   20 1     
    5    2    3 1     
    6    2    4 1     
    7    2    5 1     
    8    3   21 1     
    9    3   22 1     
   10    3   23 1     
   11    4   24 1     
   12    4   25 1     
   13    4   26 1     
   14    5    6 1     
   15    6    7 2     
   16    6    8 am    
   17    8    9 1     
   18    8   40 1     
   19    9   10 1     
   20    9   17 1     
   21    9   27 1     
   22   10   11 1     
   23   10   28 1     
   24   10   29 1     
   25   11   12 1     
   26   11   30 1     
   27   11   31 1     
   28   12   13 1     
   29   12   16 1     
   30   13   14 1     
   31   13   32 1     
   32   13   33 1     
   33   14   15 1     
   34   14   34 1     
   35   14   35 1     
   36   15   41 1     
   37   15   42 1     
   38   15   43 1     
   39   16   17 1     
   40   16   36 1     
   41   16   37 1     
   42   17   38 1     
   43   17   39 1     
@<TRIPOS>SUBSTRUCTURE
      1 ****           1
@<TRIPOS>SET
DONOR_HYDROGENS      STATIC     ATOMS    <user>   **** ""
4 40 41 42 43
ATOM$RED        STATIC     ATOMS    COLORGROUP SYSTEM
4 40 41 42 43
@<TRIPOS>COMMENT
> <Gold.Version>
2022.2.0

> <Gold.Id.Protein>
3pbl|protein|mol2

> <Gold.Protein.RotatedTorsions>
[ 1303 1298 1297 1294 ] final  132.29 input  179.99 | X-H torsion
[ 2461 2456 2455 2452 ] final  -88.26 input   30.03 | X-H torsion
[ 2515 2510 2509 2506 ] final  -94.37 input  -89.99 | X-H torsion
[ 3721 3712 3711 3710 ] final   71.70 input -179.91 | X-H torsion
[ 3841 3832 3831 3830 ] final -153.23 input -179.91 | X-H torsion
[ 3767 3762 3761 3758 ] final  -85.78 input  -89.99 | X-H torsion
[ 2472 2467 2466 2463 ] final    1.31 input  -89.97 | X-H torsion

> <Gold.Protein.ActiveResidues>
 VAL82   VAL86   LEU89   PHE106  VAL107  ASP110  VAL111  MET112  CYS114  THR115 
 CYS181  SER182  ILE183  PHE188  VAL189  ILE190  SER192  SER193  SER196  TRP342 
 PHE345  PHE346  HIS349  VAL350  TYR365  THR369  GLY372  TYR373 

> <Gold.Protein.RotatedAtoms>
    4.8323   -9.5905    4.9429 H   0  0  0  0  0  0  0  0  0  0  0  0  # atno 1303 bound_to 1298
    0.3478   -8.8890    7.6885 H   0  0  0  0  0  0  0  0  0  0  0  0  # atno 2461 bound_to 2456
   -3.8101   -4.8712    8.0561 H   0  0  0  0  0  0  0  0  0  0  0  0  # atno 2472 bound_to 2467
    2.8116   -8.9840    4.6589 H   0  0  0  0  0  0  0  0  0  0  0  0  # atno 2515 bound_to 2510
   -2.6589  -17.8101   13.2532 H   0  0  0  0  0  0  0  0  0  0  0  0  # atno 3721 bound_to 3712
   -5.2687  -21.9287   11.1589 H   0  0  0  0  0  0  0  0  0  0  0  0  # atno 3767 bound_to 3762
    2.6694  -19.7792    8.3475 H   0  0  0  0  0  0  0  0  0  0  0  0  # atno 3841 bound_to 3832
    3.4657  -10.0203    4.1593 LP  0  0  0  0  0  0  0  0  0  0  0  0  # atno 4297 bound_to 1298
    4.0640   -8.5104    3.9892 LP  0  0  0  0  0  0  0  0  0  0  0  0  # atno 4298 bound_to 1298
    1.8488   -8.9994    8.3227 LP  0  0  0  0  0  0  0  0  0  0  0  0  # atno 4299 bound_to 2456
    1.5410   -7.9198    7.1368 LP  0  0  0  0  0  0  0  0  0  0  0  0  # atno 4300 bound_to 2456
    2.1230   -8.5759    6.0820 LP  0  0  0  0  0  0  0  0  0  0  0  0  # atno 4301 bound_to 2510
    2.3619   -7.4389    4.9346 LP  0  0  0  0  0  0  0  0  0  0  0  0  # atno 4302 bound_to 2510
   -2.8910  -17.5873   14.8262 LP  0  0  0  0  0  0  0  0  0  0  0  0  # atno 4306 bound_to 3712
   -3.5669  -16.5770   13.7358 LP  0  0  0  0  0  0  0  0  0  0  0  0  # atno 4307 bound_to 3712
    2.7492  -21.1360    9.2012 LP  0  0  0  0  0  0  0  0  0  0  0  0  # atno 4314 bound_to 3832
    1.3966  -20.2213    9.2197 LP  0  0  0  0  0  0  0  0  0  0  0  0  # atno 4315 bound_to 3832
   -3.9319  -22.8487   11.3414 LP  0  0  0  0  0  0  0  0  0  0  0  0  # atno 4318 bound_to 3762
   -4.9270  -23.0974   10.0708 LP  0  0  0  0  0  0  0  0  0  0  0  0  # atno 4319 bound_to 3762
   -4.4800   -5.4400    9.4323 LP  0  0  0  0  0  0  0  0  0  0  0  0  # atno 4320 bound_to 2467
   -5.4266   -5.0823    8.1506 LP  0  0  0  0  0  0  0  0  0  0  0  0  # atno 4321 bound_to 2467

> <Gold.Score>
     Score     S(PLP)   S(hbond)     S(cho)   S(metal)  DE(clash)   DE(tors)     intcor
     45.28     -41.90       1.27       0.00       0.00       0.00       0.46       0.49

> <Gold.PLP.Fitness>
45.2821

> <Gold.PLP.PLP>
-41.9032

> <Gold.PLP.part.hbond>
-2.9211

> <Gold.PLP.part.metal>
0.0000

> <Gold.PLP.part.buried>
-6.6969

> <Gold.PLP.part.nonpolar>
-33.6077

> <Gold.PLP.part.repulsive>
0.2329

> <Gold.PLP.ligand.clash>
0.0000

> <Gold.PLP.ligand.torsion>
0.4585

> <Gold.PLP.Chemscore.Hbond>
1.2683

> <Gold.PLP.Chemscore.CHOScore>
0.0000

> <Gold.PLP.Chemscore.Metal>
0.0000

> <Gold.Chemscore.Hbonds>
donor molecule, donor type, donor heavy atom, donor atom, acceptor molecule, acceptor atom, score
      L1  H    15    41       P1  2398  1.00
      P1  H  3712  3721       L1     7  0.27

> <Gold.PLP.Chemscore.Internal.Correction>
0.4909

