#       Name:                EN300-395701_i002
#       Creating user name   fsindt
#       Creation time:       Mon Feb 27 22:06:01 2023


#       File generated by GOLD software.
#

@<TRIPOS>MOLECULE
EN300-395701_i002|amine_3|mol2|975|dock13
    43    43     1
SMALL
USER_CHARGES


@<TRIPOS>ATOM
      1 C1          -1.4119 -12.0030   8.9911 C.3            1 <1>                0.0000
      2 C2          -1.4444 -11.3166  10.3581 C.3            1 <1>                0.0000
      3 C3          -0.1290 -10.5688  10.5847 C.3            1 <1>                0.0000
      4 C4          -2.6089 -10.3252  10.4034 C.3            1 <1>                0.0000
      5 O5          -1.6185 -12.3155  11.3973 O.3            1 <1>                0.0000
      6 C6          -0.7342 -13.3303  11.4240 C.2            1 <1>                0.0000
      7 O7           0.2631 -13.2855  10.7312 O.2            1 <1>                0.0000
      8 N8          -0.9550 -14.3959  12.2192 N.am           1 <1>                0.0000
      9 C9           0.0073 -15.5002  12.2482 C.3            1 <1>                0.0000
     10 C10         -0.7117 -16.8140  11.9294 C.3            1 <1>                0.0000
     11 C11          0.2858 -17.9710  12.0209 C.3            1 <1>                0.0000
     12 N12          0.8573 -18.0204  13.3727 N.3            1 <1>                0.0000
     13 C13          1.7147 -19.2016  13.5389 C.3            1 <1>                0.0000
     14 C14          1.3379 -19.9274  14.8321 C.3            1 <1>                0.0000
     15 N15          1.1122 -18.9424  15.8984 N.4            1 <1>                1.0000
     16 C16          1.5930 -16.7881  13.6836 C.3            1 <1>                0.0000
     17 C17          0.6345 -15.5959  13.6417 C.3            1 <1>                0.0000
     18 H18         -0.5823 -12.7093   8.9589 H              1 <1>                0.0000
     19 H19         -2.3491 -12.5358   8.8297 H              1 <1>                0.0000
     20 H20         -1.2812 -11.2532   8.2109 H              1 <1>                0.0000
     21 H21          0.0017  -9.8189   9.8045 H              1 <1>                0.0000
     22 H22         -0.1521 -10.0797  11.5585 H              1 <1>                0.0000
     23 H23          0.7006 -11.2750  10.5524 H              1 <1>                0.0000
     24 H24         -3.5461 -10.8580  10.2419 H              1 <1>                0.0000
     25 H25         -2.6321  -9.8362  11.3772 H              1 <1>                0.0000
     26 H26         -2.4782  -9.5753   9.6232 H              1 <1>                0.0000
     27 H27          0.7874 -15.3230  11.5079 H              1 <1>                0.0000
     28 H28         -1.5178 -16.9709  12.6461 H              1 <1>                0.0000
     29 H29         -1.1240 -16.7679  10.9215 H              1 <1>                0.0000
     30 H30         -0.2261 -18.9096  11.8084 H              1 <1>                0.0000
     31 H31          1.0843 -17.8204  11.2943 H              1 <1>                0.0000
     32 H32          1.5762 -19.8732  12.6917 H              1 <1>                0.0000
     33 H33          2.7578 -18.8893  13.5883 H              1 <1>                0.0000
     34 H34          0.4275 -20.5052  14.6725 H              1 <1>                0.0000
     35 H35          2.1474 -20.5973  15.1218 H              1 <1>                0.0000
     36 H36          2.0305 -16.8677  14.6787 H              1 <1>                0.0000
     37 H37          2.3854 -16.6431  12.9492 H              1 <1>                0.0000
     38 H38          1.1840 -14.6795  13.8572 H              1 <1>                0.0000
     39 H39         -0.1504 -15.7336  14.3854 H              1 <1>                0.0000
     40 H40         -1.7511 -14.4317  12.7722 H              1 <1>                0.0000
     41 H41          0.2987 -19.2069  16.4336 H              1 <1>                0.0000
     42 H42          1.9183 -18.9121  16.5044 H              1 <1>                0.0000
     43 H43          0.9642 -18.0320  15.4895 H              1 <1>                0.0000
@<TRIPOS>BOND
    1    1    2 1     
    2    1   18 1     
    3    1   19 1     
    4    1   20 1     
    5    2    3 1     
    6    2    4 1     
    7    2    5 1     
    8    3   21 1     
    9    3   22 1     
   10    3   23 1     
   11    4   24 1     
   12    4   25 1     
   13    4   26 1     
   14    5    6 1     
   15    6    7 2     
   16    6    8 am    
   17    8    9 1     
   18    8   40 1     
   19    9   10 1     
   20    9   17 1     
   21    9   27 1     
   22   10   11 1     
   23   10   28 1     
   24   10   29 1     
   25   11   12 1     
   26   11   30 1     
   27   11   31 1     
   28   12   13 1     
   29   12   16 1     
   30   13   14 1     
   31   13   32 1     
   32   13   33 1     
   33   14   15 1     
   34   14   34 1     
   35   14   35 1     
   36   15   41 1     
   37   15   42 1     
   38   15   43 1     
   39   16   17 1     
   40   16   36 1     
   41   16   37 1     
   42   17   38 1     
   43   17   39 1     
@<TRIPOS>SUBSTRUCTURE
      1 ****           1
@<TRIPOS>SET
DONOR_HYDROGENS      STATIC     ATOMS    <user>   **** ""
4 40 41 42 43
ATOM$RED        STATIC     ATOMS    COLORGROUP SYSTEM
4 40 41 42 43
@<TRIPOS>COMMENT
> <Gold.Version>
2022.2.0

> <Gold.Id.Protein>
3pbl|protein|mol2

> <Gold.Protein.RotatedTorsions>
[ 1303 1298 1297 1294 ] final -100.45 input  179.99 | X-H torsion
[ 2461 2456 2455 2452 ] final   49.52 input   30.03 | X-H torsion
[ 2515 2510 2509 2506 ] final   73.86 input  -89.99 | X-H torsion
[ 3721 3712 3711 3710 ] final   70.36 input -179.91 | X-H torsion
[ 3841 3832 3831 3830 ] final -175.41 input -179.91 | X-H torsion
[ 3767 3762 3761 3758 ] final   10.39 input  -89.99 | X-H torsion
[ 2472 2467 2466 2463 ] final -151.46 input  -89.97 | X-H torsion

> <Gold.Protein.ActiveResidues>
 VAL82   VAL86   LEU89   PHE106  VAL107  ASP110  VAL111  MET112  CYS114  THR115 
 CYS181  SER182  ILE183  PHE188  VAL189  ILE190  SER192  SER193  SER196  TRP342 
 PHE345  PHE346  HIS349  VAL350  TYR365  THR369  GLY372  TYR373 

> <Gold.Protein.RotatedAtoms>
    3.9645   -8.5487    3.9356 H   0  0  0  0  0  0  0  0  0  0  0  0  # atno 1303 bound_to 1298
    1.7916   -7.9717    7.2762 H   0  0  0  0  0  0  0  0  0  0  0  0  # atno 2461 bound_to 2456
   -5.0000   -5.4578    9.3205 H   0  0  0  0  0  0  0  0  0  0  0  0  # atno 2472 bound_to 2467
    2.0892   -7.5618    5.6443 H   0  0  0  0  0  0  0  0  0  0  0  0  # atno 2515 bound_to 2510
   -2.6505  -17.8225   13.2670 H   0  0  0  0  0  0  0  0  0  0  0  0  # atno 3721 bound_to 3712
   -5.2200  -22.8423   10.0948 H   0  0  0  0  0  0  0  0  0  0  0  0  # atno 3767 bound_to 3762
    2.9162  -19.9985    8.3910 H   0  0  0  0  0  0  0  0  0  0  0  0  # atno 3841 bound_to 3832
    4.8706   -9.4789    4.9256 LP  0  0  0  0  0  0  0  0  0  0  0  0  # atno 4297 bound_to 1298
    3.5270  -10.0940    4.2306 LP  0  0  0  0  0  0  0  0  0  0  0  0  # atno 4298 bound_to 1298
    0.3367   -8.6849    7.4808 LP  0  0  0  0  0  0  0  0  0  0  0  0  # atno 4299 bound_to 2456
    1.6097   -9.1513    8.3910 LP  0  0  0  0  0  0  0  0  0  0  0  0  # atno 4300 bound_to 2456
    2.7878   -8.2773    4.3537 LP  0  0  0  0  0  0  0  0  0  0  0  0  # atno 4301 bound_to 2510
    2.4199   -9.1604    5.6771 LP  0  0  0  0  0  0  0  0  0  0  0  0  # atno 4302 bound_to 2510
   -2.9014  -17.5683   14.8323 LP  0  0  0  0  0  0  0  0  0  0  0  0  # atno 4306 bound_to 3712
   -3.5662  -16.5816   13.7138 LP  0  0  0  0  0  0  0  0  0  0  0  0  # atno 4307 bound_to 3712
    2.4419  -21.1497    9.4038 LP  0  0  0  0  0  0  0  0  0  0  0  0  # atno 4314 bound_to 3832
    1.4188  -19.9543    8.9670 LP  0  0  0  0  0  0  0  0  0  0  0  0  # atno 4315 bound_to 3832
   -4.9892  -21.9306   11.4298 LP  0  0  0  0  0  0  0  0  0  0  0  0  # atno 4318 bound_to 3762
   -3.9184  -23.1022   11.0462 LP  0  0  0  0  0  0  0  0  0  0  0  0  # atno 4319 bound_to 3762
   -5.0813   -4.9120    7.7837 LP  0  0  0  0  0  0  0  0  0  0  0  0  # atno 4320 bound_to 2467
   -3.6357   -5.0238    8.5351 LP  0  0  0  0  0  0  0  0  0  0  0  0  # atno 4321 bound_to 2467

> <Gold.Score>
     Score     S(PLP)   S(hbond)     S(cho)   S(metal)  DE(clash)   DE(tors)     intcor
     40.36     -39.28       1.00       0.00       0.00       0.60       0.88       0.45

> <Gold.PLP.Fitness>
40.3633

> <Gold.PLP.PLP>
-39.2769

> <Gold.PLP.part.hbond>
-1.1275

> <Gold.PLP.part.metal>
0.0000

> <Gold.PLP.part.buried>
-0.3312

> <Gold.PLP.part.nonpolar>
-38.5955

> <Gold.PLP.part.repulsive>
0.2455

> <Gold.PLP.ligand.clash>
0.6020

> <Gold.PLP.ligand.torsion>
0.8805

> <Gold.PLP.Chemscore.Hbond>
1.0000

> <Gold.PLP.Chemscore.CHOScore>
0.0000

> <Gold.PLP.Chemscore.Metal>
0.0000

> <Gold.Chemscore.Hbonds>
donor molecule, donor type, donor heavy atom, donor atom, acceptor molecule, acceptor atom, score
      L1  H    15    42       P1  2287  1.00

> <Gold.PLP.Chemscore.Internal.Correction>
0.4496

