#       Name:                EN300-395701_i002
#       Creating user name   fsindt
#       Creation time:       Mon Feb 27 22:05:53 2023


#       File generated by GOLD software.
#

@<TRIPOS>MOLECULE
EN300-395701_i002|amine_3|mol2|975|dock8
    43    43     1
SMALL
USER_CHARGES


@<TRIPOS>ATOM
      1 C1           1.1073 -19.7053  15.3061 C.3            1 <1>                0.0000
      2 C2           0.4213 -19.1643  14.0501 C.3            1 <1>                0.0000
      3 C3           1.2651 -19.5067  12.8205 C.3            1 <1>                0.0000
      4 C4          -0.9635 -19.8001  13.9114 C.3            1 <1>                0.0000
      5 O5           0.2837 -17.7228  14.1564 O.3            1 <1>                0.0000
      6 C6          -0.1176 -17.0641  13.0529 C.2            1 <1>                0.0000
      7 O7          -0.8403 -17.6144  12.2459 O.2            1 <1>                0.0000
      8 N8           0.2823 -15.7942  12.8434 N.am           1 <1>                0.0000
      9 C9          -0.1543 -15.0774  11.6427 C.3            1 <1>                0.0000
     10 C10          1.0076 -14.9875  10.6495 C.3            1 <1>                0.0000
     11 C11          0.5639 -14.1855   9.4239 C.3            1 <1>                0.0000
     12 N12          0.1486 -12.8404   9.8418 N.3            1 <1>                0.0000
     13 C13         -0.1525 -11.9969   8.6774 C.3            1 <1>                0.0000
     14 C14          1.0305 -12.0253   7.7075 C.3            1 <1>                0.0000
     15 N15          1.0275 -10.8009   6.8957 N.4            1 <1>                1.0000
     16 C16         -0.9966 -12.8993  10.7592 C.3            1 <1>                0.0000
     17 C17         -0.5995 -13.6630  12.0245 C.3            1 <1>                0.0000
     18 H18          2.0939 -19.2523  15.4048 H              1 <1>                0.0000
     19 H19          0.5062 -19.4613  16.1821 H              1 <1>                0.0000
     20 H20          1.2106 -20.7874  15.2263 H              1 <1>                0.0000
     21 H21          1.3684 -20.5889  12.7407 H              1 <1>                0.0000
     22 H22          0.7763 -19.1215  11.9257 H              1 <1>                0.0000
     23 H23          2.2516 -19.0539  12.9193 H              1 <1>                0.0000
     24 H24         -1.5646 -19.5561  14.7874 H              1 <1>                0.0000
     25 H25         -1.4522 -19.4147  13.0166 H              1 <1>                0.0000
     26 H26         -0.8602 -20.8822  13.8316 H              1 <1>                0.0000
     27 H27         -0.9863 -15.6104  11.1826 H              1 <1>                0.0000
     28 H28          1.8537 -14.4899  11.1232 H              1 <1>                0.0000
     29 H29          1.3010 -15.9909  10.3409 H              1 <1>                0.0000
     30 H30          1.3934 -14.1076   8.7211 H              1 <1>                0.0000
     31 H31         -0.2734 -14.6910   8.9427 H              1 <1>                0.0000
     32 H32         -1.0431 -12.3750   8.1754 H              1 <1>                0.0000
     33 H33         -0.3281 -10.9727   9.0065 H              1 <1>                0.0000
     34 H34          1.9613 -12.0850   8.2715 H              1 <1>                0.0000
     35 H35          0.9446 -12.8940   7.0550 H              1 <1>                0.0000
     36 H36         -1.3005 -11.8872  11.0261 H              1 <1>                0.0000
     37 H37         -1.8266 -13.4109  10.2717 H              1 <1>                0.0000
     38 H38         -1.4543 -13.7200  12.6985 H              1 <1>                0.0000
     39 H39          0.2213 -13.1445  12.5200 H              1 <1>                0.0000
     40 H40          0.8593 -15.3548  13.4876 H              1 <1>                0.0000
     41 H41          0.0972 -10.6342   6.5422 H              1 <1>                0.0000
     42 H42          1.3161 -10.0193   7.4647 H              1 <1>                0.0000
     43 H43          1.6667 -10.9084   6.1226 H              1 <1>                0.0000
@<TRIPOS>BOND
    1    1    2 1     
    2    1   18 1     
    3    1   19 1     
    4    1   20 1     
    5    2    3 1     
    6    2    4 1     
    7    2    5 1     
    8    3   21 1     
    9    3   22 1     
   10    3   23 1     
   11    4   24 1     
   12    4   25 1     
   13    4   26 1     
   14    5    6 1     
   15    6    7 2     
   16    6    8 am    
   17    8    9 1     
   18    8   40 1     
   19    9   10 1     
   20    9   17 1     
   21    9   27 1     
   22   10   11 1     
   23   10   28 1     
   24   10   29 1     
   25   11   12 1     
   26   11   30 1     
   27   11   31 1     
   28   12   13 1     
   29   12   16 1     
   30   13   14 1     
   31   13   32 1     
   32   13   33 1     
   33   14   15 1     
   34   14   34 1     
   35   14   35 1     
   36   15   41 1     
   37   15   42 1     
   38   15   43 1     
   39   16   17 1     
   40   16   36 1     
   41   16   37 1     
   42   17   38 1     
   43   17   39 1     
@<TRIPOS>SUBSTRUCTURE
      1 ****           1
@<TRIPOS>SET
DONOR_HYDROGENS      STATIC     ATOMS    <user>   **** ""
4 40 41 42 43
ATOM$RED        STATIC     ATOMS    COLORGROUP SYSTEM
4 40 41 42 43
@<TRIPOS>COMMENT
> <Gold.Version>
2022.2.0

> <Gold.Id.Protein>
3pbl|protein|mol2

> <Gold.Protein.RotatedTorsions>
[ 1303 1298 1297 1294 ] final  -74.12 input  179.99 | X-H torsion
[ 2461 2456 2455 2452 ] final   20.60 input   30.03 | X-H torsion
[ 2515 2510 2509 2506 ] final  -84.04 input  -89.99 | X-H torsion
[ 3721 3712 3711 3710 ] final   70.67 input -179.91 | X-H torsion
[ 3841 3832 3831 3830 ] final   68.67 input -179.91 | X-H torsion
[ 3767 3762 3761 3758 ] final  -60.20 input  -89.99 | X-H torsion
[ 2472 2467 2466 2463 ] final  163.04 input  -89.97 | X-H torsion

> <Gold.Protein.ActiveResidues>
 VAL82   VAL86   LEU89   PHE106  VAL107  ASP110  VAL111  MET112  CYS114  THR115 
 CYS181  SER182  ILE183  PHE188  VAL189  ILE190  SER192  SER193  SER196  TRP342 
 PHE345  PHE346  HIS349  VAL350  TYR365  THR369  GLY372  TYR373 

> <Gold.Protein.RotatedAtoms>
    3.6367   -8.7918    3.8021 H   0  0  0  0  0  0  0  0  0  0  0  0  # atno 1303 bound_to 1298
    1.3681   -7.9201    7.0769 H   0  0  0  0  0  0  0  0  0  0  0  0  # atno 2461 bound_to 2456
   -5.4673   -5.3142    8.7797 H   0  0  0  0  0  0  0  0  0  0  0  0  # atno 2472 bound_to 2467
    2.8301   -8.8559    4.5494 H   0  0  0  0  0  0  0  0  0  0  0  0  # atno 2515 bound_to 2510
   -2.6525  -17.8196   13.2638 H   0  0  0  0  0  0  0  0  0  0  0  0  # atno 3721 bound_to 3712
   -5.4619  -22.0589   10.8125 H   0  0  0  0  0  0  0  0  0  0  0  0  # atno 3767 bound_to 3762
    2.5863  -20.9563    9.4529 H   0  0  0  0  0  0  0  0  0  0  0  0  # atno 3841 bound_to 3832
    4.9050   -9.0723    4.7916 LP  0  0  0  0  0  0  0  0  0  0  0  0  # atno 4297 bound_to 1298
    3.8207  -10.2575    4.4980 LP  0  0  0  0  0  0  0  0  0  0  0  0  # atno 4298 bound_to 1298
    0.3993   -9.0039    7.8213 LP  0  0  0  0  0  0  0  0  0  0  0  0  # atno 4299 bound_to 2456
    1.9704   -8.8839    8.2498 LP  0  0  0  0  0  0  0  0  0  0  0  0  # atno 4300 bound_to 2456
    2.1746   -8.7319    6.0396 LP  0  0  0  0  0  0  0  0  0  0  0  0  # atno 4301 bound_to 2510
    2.2918   -7.4111    5.0866 LP  0  0  0  0  0  0  0  0  0  0  0  0  # atno 4302 bound_to 2510
   -2.8990  -17.5727   14.8309 LP  0  0  0  0  0  0  0  0  0  0  0  0  # atno 4306 bound_to 3712
   -3.5664  -16.5805   13.7189 LP  0  0  0  0  0  0  0  0  0  0  0  0  # atno 4307 bound_to 3712
    1.4146  -19.9665    8.9804 LP  0  0  0  0  0  0  0  0  0  0  0  0  # atno 4314 bound_to 3832
    2.8271  -20.0311    8.1637 LP  0  0  0  0  0  0  0  0  0  0  0  0  # atno 4315 bound_to 3832
   -4.0934  -22.5356   11.5653 LP  0  0  0  0  0  0  0  0  0  0  0  0  # atno 4318 bound_to 3762
   -4.5724  -23.2804   10.1932 LP  0  0  0  0  0  0  0  0  0  0  0  0  # atno 4319 bound_to 3762
   -4.3674   -4.7991    7.6882 LP  0  0  0  0  0  0  0  0  0  0  0  0  # atno 4320 bound_to 2467
   -3.8824   -5.2803    9.1714 LP  0  0  0  0  0  0  0  0  0  0  0  0  # atno 4321 bound_to 2467

> <Gold.Score>
     Score     S(PLP)   S(hbond)     S(cho)   S(metal)  DE(clash)   DE(tors)     intcor
     42.07     -37.15       2.00       0.00       0.00       0.00       0.79       0.49

> <Gold.PLP.Fitness>
42.0724

> <Gold.PLP.PLP>
-37.1530

> <Gold.PLP.part.hbond>
-2.6753

> <Gold.PLP.part.metal>
0.0000

> <Gold.PLP.part.buried>
-3.0576

> <Gold.PLP.part.nonpolar>
-31.6197

> <Gold.PLP.part.repulsive>
0.1229

> <Gold.PLP.ligand.clash>
0.0000

> <Gold.PLP.ligand.torsion>
0.7858

> <Gold.PLP.Chemscore.Hbond>
2.0000

> <Gold.PLP.Chemscore.CHOScore>
0.0000

> <Gold.PLP.Chemscore.Metal>
0.0000

> <Gold.Chemscore.Hbonds>
donor molecule, donor type, donor heavy atom, donor atom, acceptor molecule, acceptor atom, score
      L1  H    15    42       P1  2456  1.00
      P1  H  3712  3721       L1     7  1.00

> <Gold.PLP.Chemscore.Internal.Correction>
0.4909

