#       Name:                EN300-395701_i002
#       Creating user name   fsindt
#       Creation time:       Mon Feb 27 22:05:49 2023


#       File generated by GOLD software.
#

@<TRIPOS>MOLECULE
EN300-395701_i002|amine_3|mol2|975|dock5
    43    43     1
SMALL
USER_CHARGES


@<TRIPOS>ATOM
      1 C1           0.3591 -23.8338  15.3271 C.3            1 <1>                0.0000
      2 C2           0.1504 -22.5102  14.5886 C.3            1 <1>                0.0000
      3 C3           1.1252 -22.4232  13.4125 C.3            1 <1>                0.0000
      4 C4          -1.2861 -22.4382  14.0668 C.3            1 <1>                0.0000
      5 O5           0.3906 -21.4049  15.4990 O.3            1 <1>                0.0000
      6 C6           0.4426 -20.1712  14.9622 C.2            1 <1>                0.0000
      7 O7          -0.1757 -19.9243  13.9458 O.2            1 <1>                0.0000
      8 N8           1.1804 -19.2100  15.5525 N.am           1 <1>                0.0000
      9 C9           1.2370 -17.8677  14.9685 C.3            1 <1>                0.0000
     10 C10         -0.1723 -17.2707  14.9208 C.3            1 <1>                0.0000
     11 C11         -0.1156 -15.8940  14.2546 C.3            1 <1>                0.0000
     12 N12          0.4248 -16.0284  12.8958 N.3            1 <1>                0.0000
     13 C13          0.3650 -14.7489  12.1765 C.3            1 <1>                0.0000
     14 C14          0.5395 -14.9980  10.6771 C.3            1 <1>                0.0000
     15 N15          1.9670 -14.9434  10.3346 N.4            1 <1>                1.0000
     16 C16          1.7952 -16.5556  12.9190 C.3            1 <1>                0.0000
     17 C17          1.7955 -17.9519  13.5453 C.3            1 <1>                0.0000
     18 H18          1.3825 -23.8850  15.6988 H              1 <1>                0.0000
     19 H19         -0.3354 -23.8957  16.1651 H              1 <1>                0.0000
     20 H20          0.1787 -24.6636  14.6437 H              1 <1>                0.0000
     21 H21          0.9449 -23.2530  12.7291 H              1 <1>                0.0000
     22 H22          0.9765 -21.4803  12.8863 H              1 <1>                0.0000
     23 H23          2.1485 -22.4745  13.7842 H              1 <1>                0.0000
     24 H24         -1.9805 -22.5001  14.9048 H              1 <1>                0.0000
     25 H25         -1.4347 -21.4953  13.5407 H              1 <1>                0.0000
     26 H26         -1.4664 -23.2680  13.3834 H              1 <1>                0.0000
     27 H27          1.8811 -17.2327  15.5767 H              1 <1>                0.0000
     28 H28         -0.8261 -17.9264  14.3460 H              1 <1>                0.0000
     29 H29         -0.5587 -17.1685  15.9348 H              1 <1>                0.0000
     30 H30         -1.1195 -15.4723  14.2062 H              1 <1>                0.0000
     31 H31          0.5275 -15.2346  14.8376 H              1 <1>                0.0000
     32 H32         -0.6003 -14.2758  12.3564 H              1 <1>                0.0000
     33 H33          1.1618 -14.0951  12.5314 H              1 <1>                0.0000
     34 H34          0.1424 -15.9809  10.4234 H              1 <1>                0.0000
     35 H35          0.0019 -14.2332  10.1167 H              1 <1>                0.0000
     36 H36          2.1790 -16.6143  11.9005 H              1 <1>                0.0000
     37 H37          2.4293 -15.8931  13.5082 H              1 <1>                0.0000
     38 H38          2.8149 -18.3364  13.5766 H              1 <1>                0.0000
     39 H39          1.1726 -18.6185  12.9488 H              1 <1>                0.0000
     40 H40          1.6740 -19.4071  16.3640 H              1 <1>                0.0000
     41 H41          2.0972 -14.3488   9.5298 H              1 <1>                0.0000
     42 H42          2.4863 -14.5710  11.1154 H              1 <1>                0.0000
     43 H43          2.2980 -15.8728  10.1231 H              1 <1>                0.0000
@<TRIPOS>BOND
    1    1    2 1     
    2    1   18 1     
    3    1   19 1     
    4    1   20 1     
    5    2    3 1     
    6    2    4 1     
    7    2    5 1     
    8    3   21 1     
    9    3   22 1     
   10    3   23 1     
   11    4   24 1     
   12    4   25 1     
   13    4   26 1     
   14    5    6 1     
   15    6    7 2     
   16    6    8 am    
   17    8    9 1     
   18    8   40 1     
   19    9   10 1     
   20    9   17 1     
   21    9   27 1     
   22   10   11 1     
   23   10   28 1     
   24   10   29 1     
   25   11   12 1     
   26   11   30 1     
   27   11   31 1     
   28   12   13 1     
   29   12   16 1     
   30   13   14 1     
   31   13   32 1     
   32   13   33 1     
   33   14   15 1     
   34   14   34 1     
   35   14   35 1     
   36   15   41 1     
   37   15   42 1     
   38   15   43 1     
   39   16   17 1     
   40   16   36 1     
   41   16   37 1     
   42   17   38 1     
   43   17   39 1     
@<TRIPOS>SUBSTRUCTURE
      1 ****           1
@<TRIPOS>SET
DONOR_HYDROGENS      STATIC     ATOMS    <user>   **** ""
4 40 41 42 43
ATOM$RED        STATIC     ATOMS    COLORGROUP SYSTEM
4 40 41 42 43
@<TRIPOS>COMMENT
> <Gold.Version>
2022.2.0

> <Gold.Id.Protein>
3pbl|protein|mol2

> <Gold.Protein.RotatedTorsions>
[ 1303 1298 1297 1294 ] final   -1.95 input  179.99 | X-H torsion
[ 2461 2456 2455 2452 ] final -117.73 input   30.03 | X-H torsion
[ 2515 2510 2509 2506 ] final -177.15 input  -89.99 | X-H torsion
[ 3721 3712 3711 3710 ] final   -7.29 input -179.91 | X-H torsion
[ 3841 3832 3831 3830 ] final  -50.07 input -179.91 | X-H torsion
[ 3767 3762 3761 3758 ] final  113.26 input  -89.99 | X-H torsion
[ 2472 2467 2466 2463 ] final   62.06 input  -89.97 | X-H torsion

> <Gold.Protein.ActiveResidues>
 VAL82   VAL86   LEU89   PHE106  VAL107  ASP110  VAL111  MET112  CYS114  THR115 
 CYS181  SER182  ILE183  PHE188  VAL189  ILE190  SER192  SER193  SER196  TRP342 
 PHE345  PHE346  HIS349  VAL350  TYR365  THR369  GLY372  TYR373 

> <Gold.Protein.RotatedAtoms>
    3.3766   -9.8469    4.0307 H   0  0  0  0  0  0  0  0  0  0  0  0  # atno 1303 bound_to 1298
    0.5514   -9.1587    8.0291 H   0  0  0  0  0  0  0  0  0  0  0  0  # atno 2461 bound_to 2456
   -4.6767   -4.8241    7.6611 H   0  0  0  0  0  0  0  0  0  0  0  0  # atno 2472 bound_to 2467
    2.3432   -9.0659    5.8109 H   0  0  0  0  0  0  0  0  0  0  0  0  # atno 2515 bound_to 2510
   -2.5056  -17.9090   14.3398 H   0  0  0  0  0  0  0  0  0  0  0  0  # atno 3721 bound_to 3712
   -3.9922  -23.2358   10.8105 H   0  0  0  0  0  0  0  0  0  0  0  0  # atno 3767 bound_to 3762
    1.5757  -19.9076    9.1397 H   0  0  0  0  0  0  0  0  0  0  0  0  # atno 3841 bound_to 3832
    4.2599   -8.4759    4.1120 LP  0  0  0  0  0  0  0  0  0  0  0  0  # atno 4297 bound_to 1298
    4.7260   -9.7984    4.9490 LP  0  0  0  0  0  0  0  0  0  0  0  0  # atno 4298 bound_to 1298
    2.1096   -8.6728    8.0875 LP  0  0  0  0  0  0  0  0  0  0  0  0  # atno 4299 bound_to 2456
    1.0765   -7.9768    7.0316 LP  0  0  0  0  0  0  0  0  0  0  0  0  # atno 4300 bound_to 2456
    2.1358   -7.4784    5.4908 LP  0  0  0  0  0  0  0  0  0  0  0  0  # atno 4301 bound_to 2510
    2.8177   -8.4545    4.3733 LP  0  0  0  0  0  0  0  0  0  0  0  0  # atno 4302 bound_to 2510
   -3.4801  -16.6330   14.3513 LP  0  0  0  0  0  0  0  0  0  0  0  0  # atno 4306 bound_to 3712
   -3.1549  -17.4171   12.9562 LP  0  0  0  0  0  0  0  0  0  0  0  0  # atno 4307 bound_to 3712
    2.8464  -20.0510    8.1696 LP  0  0  0  0  0  0  0  0  0  0  0  0  # atno 4314 bound_to 3832
    2.5628  -21.1579    9.3363 LP  0  0  0  0  0  0  0  0  0  0  0  0  # atno 4315 bound_to 3832
   -5.3796  -22.6339   10.1944 LP  0  0  0  0  0  0  0  0  0  0  0  0  # atno 4318 bound_to 3762
   -4.7553  -22.0056   11.5662 LP  0  0  0  0  0  0  0  0  0  0  0  0  # atno 4319 bound_to 3762
   -3.7130   -5.1753    8.9317 LP  0  0  0  0  0  0  0  0  0  0  0  0  # atno 4320 bound_to 2467
   -5.3272   -5.3941    9.0461 LP  0  0  0  0  0  0  0  0  0  0  0  0  # atno 4321 bound_to 2467

> <Gold.Score>
     Score     S(PLP)   S(hbond)     S(cho)   S(metal)  DE(clash)   DE(tors)     intcor
     42.54     -35.57       2.64       0.00       0.00       0.00       0.73       0.49

> <Gold.PLP.Fitness>
42.5369

> <Gold.PLP.PLP>
-35.5657

> <Gold.PLP.part.hbond>
-1.9460

> <Gold.PLP.part.metal>
0.0000

> <Gold.PLP.part.buried>
-5.0084

> <Gold.PLP.part.nonpolar>
-29.9725

> <Gold.PLP.part.repulsive>
0.1516

> <Gold.PLP.ligand.clash>
0.0000

> <Gold.PLP.ligand.torsion>
0.7270

> <Gold.PLP.Chemscore.Hbond>
2.6448

> <Gold.PLP.Chemscore.CHOScore>
0.0000

> <Gold.PLP.Chemscore.Metal>
0.0000

> <Gold.Chemscore.Hbonds>
donor molecule, donor type, donor heavy atom, donor atom, acceptor molecule, acceptor atom, score
      L1  H     8    40       P1  2287  0.64
      L1  H    15    43       P1  1227  2.00

> <Gold.PLP.Chemscore.Internal.Correction>
0.4909

