#       Name:                EN300-395701_i002
#       Creating user name   fsindt
#       Creation time:       Mon Feb 27 22:06:07 2023


#       File generated by GOLD software.
#

@<TRIPOS>MOLECULE
EN300-395701_i002|amine_3|mol2|975|dock16
    43    43     1
SMALL
USER_CHARGES


@<TRIPOS>ATOM
      1 C1          -1.1392 -21.9558  13.8402 C.3            1 <1>                0.0000
      2 C2          -0.4451 -21.2822  12.6548 C.3            1 <1>                0.0000
      3 C3           1.0596 -21.2053  12.9213 C.3            1 <1>                0.0000
      4 C4          -0.6971 -22.0982  11.3853 C.3            1 <1>                0.0000
      5 O5          -0.9750 -19.9416  12.4816 O.3            1 <1>                0.0000
      6 C6          -0.3652 -19.1558  11.5742 C.2            1 <1>                0.0000
      7 O7           0.3797 -19.6460  10.7488 O.2            1 <1>                0.0000
      8 N8          -0.5810 -17.8254  11.5813 N.am           1 <1>                0.0000
      9 C9           0.0825 -16.9704  10.5940 C.3            1 <1>                0.0000
     10 C10          0.1298 -15.5307  11.1133 C.3            1 <1>                0.0000
     11 C11          0.7689 -14.6316  10.0525 C.3            1 <1>                0.0000
     12 N12         -0.0173 -14.6987   8.8140 N.3            1 <1>                0.0000
     13 C13          0.4863 -13.7432   7.8183 C.3            1 <1>                0.0000
     14 C14          0.2478 -12.3158   8.3150 C.3            1 <1>                0.0000
     15 N15          0.8286 -11.3619   7.3606 N.4            1 <1>                1.0000
     16 C16         -0.0374 -16.0630   8.2711 C.3            1 <1>                0.0000
     17 C17         -0.7006 -17.0047   9.2787 C.3            1 <1>                0.0000
     18 H18         -0.9596 -21.3745  14.7446 H              1 <1>                0.0000
     19 H19         -2.2112 -22.0105  13.6504 H              1 <1>                0.0000
     20 H20         -0.7414 -22.9623  13.9702 H              1 <1>                0.0000
     21 H21          1.4574 -22.2118  13.0513 H              1 <1>                0.0000
     22 H22          1.5542 -20.7256  12.0767 H              1 <1>                0.0000
     23 H23          1.2392 -20.6241  13.8256 H              1 <1>                0.0000
     24 H24         -1.7691 -22.1529  11.1955 H              1 <1>                0.0000
     25 H25         -0.2027 -21.6183  10.5408 H              1 <1>                0.0000
     26 H26         -0.2993 -23.1047  11.5153 H              1 <1>                0.0000
     27 H27          1.0974 -17.3298  10.4243 H              1 <1>                0.0000
     28 H28         -0.8829 -15.1852  11.3209 H              1 <1>                0.0000
     29 H29          0.7223 -15.4928  12.0273 H              1 <1>                0.0000
     30 H30          0.7911 -13.6033  10.4134 H              1 <1>                0.0000
     31 H31          1.7865 -14.9692   9.8554 H              1 <1>                0.0000
     32 H32          1.5542 -13.9025   7.6695 H              1 <1>                0.0000
     33 H33         -0.0382 -13.8919   6.8744 H              1 <1>                0.0000
     34 H34         -0.8236 -12.1357   8.4023 H              1 <1>                0.0000
     35 H35          0.7185 -12.1869   9.2896 H              1 <1>                0.0000
     36 H36         -0.6008 -16.0742   7.3381 H              1 <1>                0.0000
     37 H37          0.9839 -16.3939   8.0823 H              1 <1>                0.0000
     38 H38         -0.7013 -18.0199   8.8820 H              1 <1>                0.0000
     39 H39         -1.7264 -16.6825   9.4574 H              1 <1>                0.0000
     40 H40         -1.1757 -17.4340  12.2403 H              1 <1>                0.0000
     41 H41          0.8164 -10.4359   7.7612 H              1 <1>                0.0000
     42 H42          1.7803 -11.6276   7.1565 H              1 <1>                0.0000
     43 H43          0.2879 -11.3669   6.5088 H              1 <1>                0.0000
@<TRIPOS>BOND
    1    1    2 1     
    2    1   18 1     
    3    1   19 1     
    4    1   20 1     
    5    2    3 1     
    6    2    4 1     
    7    2    5 1     
    8    3   21 1     
    9    3   22 1     
   10    3   23 1     
   11    4   24 1     
   12    4   25 1     
   13    4   26 1     
   14    5    6 1     
   15    6    7 2     
   16    6    8 am    
   17    8    9 1     
   18    8   40 1     
   19    9   10 1     
   20    9   17 1     
   21    9   27 1     
   22   10   11 1     
   23   10   28 1     
   24   10   29 1     
   25   11   12 1     
   26   11   30 1     
   27   11   31 1     
   28   12   13 1     
   29   12   16 1     
   30   13   14 1     
   31   13   32 1     
   32   13   33 1     
   33   14   15 1     
   34   14   34 1     
   35   14   35 1     
   36   15   41 1     
   37   15   42 1     
   38   15   43 1     
   39   16   17 1     
   40   16   36 1     
   41   16   37 1     
   42   17   38 1     
   43   17   39 1     
@<TRIPOS>SUBSTRUCTURE
      1 ****           1
@<TRIPOS>SET
DONOR_HYDROGENS      STATIC     ATOMS    <user>   **** ""
4 40 41 42 43
ATOM$RED        STATIC     ATOMS    COLORGROUP SYSTEM
4 40 41 42 43
@<TRIPOS>COMMENT
> <Gold.Version>
2022.2.0

> <Gold.Id.Protein>
3pbl|protein|mol2

> <Gold.Protein.RotatedTorsions>
[ 1303 1298 1297 1294 ] final   24.32 input  179.99 | X-H torsion
[ 2461 2456 2455 2452 ] final   80.44 input   30.03 | X-H torsion
[ 2515 2510 2509 2506 ] final -112.49 input  -89.99 | X-H torsion
[ 3721 3712 3711 3710 ] final  -88.32 input -179.91 | X-H torsion
[ 3841 3832 3831 3830 ] final   -8.16 input -179.91 | X-H torsion
[ 3767 3762 3761 3758 ] final  -34.33 input  -89.99 | X-H torsion
[ 2472 2467 2466 2463 ] final   56.35 input  -89.97 | X-H torsion

> <Gold.Protein.ActiveResidues>
 VAL82   VAL86   LEU89   PHE106  VAL107  ASP110  VAL111  MET112  CYS114  THR115 
 CYS181  SER182  ILE183  PHE188  VAL189  ILE190  SER192  SER193  SER196  TRP342 
 PHE345  PHE346  HIS349  VAL350  TYR365  THR369  GLY372  TYR373 

> <Gold.Protein.RotatedAtoms>
    3.5725  -10.1359    4.2790 H   0  0  0  0  0  0  0  0  0  0  0  0  # atno 1303 bound_to 1298
    2.0918   -8.1998    7.6088 H   0  0  0  0  0  0  0  0  0  0  0  0  # atno 2461 bound_to 2456
   -4.5834   -4.8131    7.6589 H   0  0  0  0  0  0  0  0  0  0  0  0  # atno 2472 bound_to 2467
    2.7499   -9.1558    4.8930 H   0  0  0  0  0  0  0  0  0  0  0  0  # atno 2515 bound_to 2510
   -3.0126  -16.9691   14.6949 H   0  0  0  0  0  0  0  0  0  0  0  0  # atno 3721 bound_to 3712
   -5.5072  -22.3032   10.4713 H   0  0  0  0  0  0  0  0  0  0  0  0  # atno 3767 bound_to 3762
    1.6726  -20.3917    9.5132 H   0  0  0  0  0  0  0  0  0  0  0  0  # atno 3841 bound_to 3832
    3.9008   -8.5811    3.9032 LP  0  0  0  0  0  0  0  0  0  0  0  0  # atno 4297 bound_to 1298
    4.8891   -9.4041    4.9094 LP  0  0  0  0  0  0  0  0  0  0  0  0  # atno 4298 bound_to 1298
    0.5198   -8.3234    7.1835 LP  0  0  0  0  0  0  0  0  0  0  0  0  # atno 4299 bound_to 2456
    1.1264   -9.2849    8.3558 LP  0  0  0  0  0  0  0  0  0  0  0  0  # atno 4300 bound_to 2456
    2.0576   -8.2864    6.0890 LP  0  0  0  0  0  0  0  0  0  0  0  0  # atno 4301 bound_to 2510
    2.4890   -7.5565    4.6934 LP  0  0  0  0  0  0  0  0  0  0  0  0  # atno 4302 bound_to 2510
   -3.4215  -16.9228   13.1429 LP  0  0  0  0  0  0  0  0  0  0  0  0  # atno 4306 bound_to 3712
   -2.6281  -18.2124   13.7546 LP  0  0  0  0  0  0  0  0  0  0  0  0  # atno 4307 bound_to 3712
    2.2681  -19.6857    8.2005 LP  0  0  0  0  0  0  0  0  0  0  0  0  # atno 4314 bound_to 3832
    3.0291  -20.9640    8.8739 LP  0  0  0  0  0  0  0  0  0  0  0  0  # atno 4315 bound_to 3832
   -4.3793  -22.2370   11.6504 LP  0  0  0  0  0  0  0  0  0  0  0  0  # atno 4318 bound_to 3762
   -4.2413  -23.3347   10.4492 LP  0  0  0  0  0  0  0  0  0  0  0  0  # atno 4319 bound_to 3762
   -3.7547   -5.2078    9.0094 LP  0  0  0  0  0  0  0  0  0  0  0  0  # atno 4320 bound_to 2467
   -5.3789   -5.3725    8.9706 LP  0  0  0  0  0  0  0  0  0  0  0  0  # atno 4321 bound_to 2467

> <Gold.Score>
     Score     S(PLP)   S(hbond)     S(cho)   S(metal)  DE(clash)   DE(tors)     intcor
     41.65     -36.40       2.00       0.00       0.00       0.00       0.60       0.45

> <Gold.PLP.Fitness>
41.6468

> <Gold.PLP.PLP>
-36.3985

> <Gold.PLP.part.hbond>
-2.0000

> <Gold.PLP.part.metal>
0.0000

> <Gold.PLP.part.buried>
-1.7533

> <Gold.PLP.part.nonpolar>
-32.8132

> <Gold.PLP.part.repulsive>
0.1746

> <Gold.PLP.ligand.clash>
0.0000

> <Gold.PLP.ligand.torsion>
0.6006

> <Gold.PLP.Chemscore.Hbond>
2.0000

> <Gold.PLP.Chemscore.CHOScore>
0.0000

> <Gold.PLP.Chemscore.Metal>
0.0000

> <Gold.Chemscore.Hbonds>
donor molecule, donor type, donor heavy atom, donor atom, acceptor molecule, acceptor atom, score
      L1  H    15    41       P1  2456  1.00
      P1  H  3832  3841       L1     7  1.00

> <Gold.PLP.Chemscore.Internal.Correction>
0.4496

