#       Name:                EN300-395701_i002
#       Creating user name   fsindt
#       Creation time:       Mon Feb 27 22:05:56 2023


#       File generated by GOLD software.
#

@<TRIPOS>MOLECULE
EN300-395701_i002|amine_3|mol2|975|dock10
    43    43     1
SMALL
USER_CHARGES


@<TRIPOS>ATOM
      1 C1          -1.1364 -10.2782  11.5433 C.3            1 <1>                0.0000
      2 C2          -1.7174 -10.8744  10.2596 C.3            1 <1>                0.0000
      3 C3          -3.1674 -11.2972  10.5043 C.3            1 <1>                0.0000
      4 C4          -1.6728  -9.8271   9.1451 C.3            1 <1>                0.0000
      5 O5          -0.9353 -12.0329   9.8668 O.3            1 <1>                0.0000
      6 C6          -0.8517 -13.0430  10.7530 C.2            1 <1>                0.0000
      7 O7          -1.4808 -12.9938  11.7914 O.2            1 <1>                0.0000
      8 N8          -0.0704 -14.1089  10.4882 N.am           1 <1>                0.0000
      9 C9           0.0204 -15.2080  11.4525 C.3            1 <1>                0.0000
     10 C10          1.4520 -15.3022  11.9877 C.3            1 <1>                0.0000
     11 C11          1.5554 -16.4894  12.9479 C.3            1 <1>                0.0000
     12 N12          1.1959 -17.7251  12.2407 N.3            1 <1>                0.0000
     13 C13          1.4168 -18.9020  13.0918 C.3            1 <1>                0.0000
     14 C14          1.3335 -20.1702  12.2400 C.3            1 <1>                0.0000
     15 N15          2.3211 -20.0969  11.1549 N.4            1 <1>                1.0000
     16 C16         -0.1904 -17.6770  11.7587 C.3            1 <1>                0.0000
     17 C17         -0.3459 -16.5252  10.7631 C.3            1 <1>                0.0000
     18 H18         -1.1683 -11.0243  12.3373 H              1 <1>                0.0000
     19 H19         -0.1034  -9.9770  11.3689 H              1 <1>                0.0000
     20 H20         -1.7236  -9.4084  11.8382 H              1 <1>                0.0000
     21 H21         -3.7545 -10.4275  10.7992 H              1 <1>                0.0000
     22 H22         -3.5813 -11.7218   9.5898 H              1 <1>                0.0000
     23 H23         -3.1992 -12.0432  11.2983 H              1 <1>                0.0000
     24 H24         -0.6397  -9.5260   8.9708 H              1 <1>                0.0000
     25 H25         -2.0866 -10.2519   8.2306 H              1 <1>                0.0000
     26 H26         -2.2599  -8.9574   9.4400 H              1 <1>                0.0000
     27 H27         -0.6661 -15.0251  12.2791 H              1 <1>                0.0000
     28 H28          2.1426 -15.4450  11.1567 H              1 <1>                0.0000
     29 H29          1.7038 -14.3831  12.5170 H              1 <1>                0.0000
     30 H30          2.5771 -16.5678  13.3198 H              1 <1>                0.0000
     31 H31          0.8746 -16.3392  13.7858 H              1 <1>                0.0000
     32 H32          2.4026 -18.8375  13.5522 H              1 <1>                0.0000
     33 H33          0.6540 -18.9360  13.8697 H              1 <1>                0.0000
     34 H34          1.5417 -21.0403  12.8626 H              1 <1>                0.0000
     35 H35          0.3334 -20.2579  11.8157 H              1 <1>                0.0000
     36 H36         -0.4368 -18.6180  11.2669 H              1 <1>                0.0000
     37 H37         -0.8630 -17.5212  12.6022 H              1 <1>                0.0000
     38 H38         -1.3787 -16.4801  10.4174 H              1 <1>                0.0000
     39 H39          0.3163 -16.6873   9.9127 H              1 <1>                0.0000
     40 H40          0.4317 -14.1482   9.6592 H              1 <1>                0.0000
     41 H41          1.9554 -20.5586  10.3357 H              1 <1>                0.0000
     42 H42          2.5123 -19.1300  10.9389 H              1 <1>                0.0000
     43 H43          3.1737 -20.5518  11.4449 H              1 <1>                0.0000
@<TRIPOS>BOND
    1    1    2 1     
    2    1   18 1     
    3    1   19 1     
    4    1   20 1     
    5    2    3 1     
    6    2    4 1     
    7    2    5 1     
    8    3   21 1     
    9    3   22 1     
   10    3   23 1     
   11    4   24 1     
   12    4   25 1     
   13    4   26 1     
   14    5    6 1     
   15    6    7 2     
   16    6    8 am    
   17    8    9 1     
   18    8   40 1     
   19    9   10 1     
   20    9   17 1     
   21    9   27 1     
   22   10   11 1     
   23   10   28 1     
   24   10   29 1     
   25   11   12 1     
   26   11   30 1     
   27   11   31 1     
   28   12   13 1     
   29   12   16 1     
   30   13   14 1     
   31   13   32 1     
   32   13   33 1     
   33   14   15 1     
   34   14   34 1     
   35   14   35 1     
   36   15   41 1     
   37   15   42 1     
   38   15   43 1     
   39   16   17 1     
   40   16   36 1     
   41   16   37 1     
   42   17   38 1     
   43   17   39 1     
@<TRIPOS>SUBSTRUCTURE
      1 ****           1
@<TRIPOS>SET
DONOR_HYDROGENS      STATIC     ATOMS    <user>   **** ""
4 40 41 42 43
ATOM$RED        STATIC     ATOMS    COLORGROUP SYSTEM
4 40 41 42 43
@<TRIPOS>COMMENT
> <Gold.Version>
2022.2.0

> <Gold.Id.Protein>
3pbl|protein|mol2

> <Gold.Protein.RotatedTorsions>
[ 1303 1298 1297 1294 ] final -130.67 input  179.99 | X-H torsion
[ 2461 2456 2455 2452 ] final -109.46 input   30.03 | X-H torsion
[ 2515 2510 2509 2506 ] final  142.20 input  -89.99 | X-H torsion
[ 3721 3712 3711 3710 ] final  -92.02 input -179.91 | X-H torsion
[ 3841 3832 3831 3830 ] final  170.99 input -179.91 | X-H torsion
[ 3767 3762 3761 3758 ] final  -10.08 input  -89.99 | X-H torsion
[ 2472 2467 2466 2463 ] final   58.24 input  -89.97 | X-H torsion

> <Gold.Protein.ActiveResidues>
 VAL82   VAL86   LEU89   PHE106  VAL107  ASP110  VAL111  MET112  CYS114  THR115 
 CYS181  SER182  ILE183  PHE188  VAL189  ILE190  SER192  SER193  SER196  TRP342 
 PHE345  PHE346  HIS349  VAL350  TYR365  THR369  GLY372  TYR373 

> <Gold.Protein.RotatedAtoms>
    4.3760   -8.4821    4.1957 H   0  0  0  0  0  0  0  0  0  0  0  0  # atno 1303 bound_to 1298
    0.4728   -9.0951    7.9381 H   0  0  0  0  0  0  0  0  0  0  0  0  # atno 2461 bound_to 2456
   -4.6144   -4.8164    7.6587 H   0  0  0  0  0  0  0  0  0  0  0  0  # atno 2472 bound_to 2467
    2.1084   -8.5221    6.0897 H   0  0  0  0  0  0  0  0  0  0  0  0  # atno 2515 bound_to 2510
   -3.0395  -16.9255   14.6723 H   0  0  0  0  0  0  0  0  0  0  0  0  # atno 3721 bound_to 3712
   -5.4040  -22.5920   10.2204 H   0  0  0  0  0  0  0  0  0  0  0  0  # atno 3767 bound_to 3762
    3.0278  -20.1550    8.4621 H   0  0  0  0  0  0  0  0  0  0  0  0  # atno 3841 bound_to 3832
    4.6416   -9.9136    4.9351 LP  0  0  0  0  0  0  0  0  0  0  0  0  # atno 4297 bound_to 1298
    3.3445   -9.7260    3.9609 LP  0  0  0  0  0  0  0  0  0  0  0  0  # atno 4298 bound_to 1298
    2.0570   -8.7702    8.1665 LP  0  0  0  0  0  0  0  0  0  0  0  0  # atno 4299 bound_to 2456
    1.2077   -7.9430    7.0436 LP  0  0  0  0  0  0  0  0  0  0  0  0  # atno 4300 bound_to 2456
    2.3859   -7.4546    4.8859 LP  0  0  0  0  0  0  0  0  0  0  0  0  # atno 4301 bound_to 2510
    2.8027   -9.0224    4.6992 LP  0  0  0  0  0  0  0  0  0  0  0  0  # atno 4302 bound_to 2510
   -3.3985  -16.9683   13.1079 LP  0  0  0  0  0  0  0  0  0  0  0  0  # atno 4306 bound_to 3712
   -2.6200  -18.2171   13.8158 LP  0  0  0  0  0  0  0  0  0  0  0  0  # atno 4307 bound_to 3712
    2.2370  -21.1024    9.4883 LP  0  0  0  0  0  0  0  0  0  0  0  0  # atno 4314 bound_to 3832
    1.4948  -19.8208    8.8004 LP  0  0  0  0  0  0  0  0  0  0  0  0  # atno 4315 bound_to 3832
   -4.7087  -22.0268   11.5857 LP  0  0  0  0  0  0  0  0  0  0  0  0  # atno 4318 bound_to 3762
   -4.0150  -23.2563   10.7647 LP  0  0  0  0  0  0  0  0  0  0  0  0  # atno 4319 bound_to 3762
   -3.7399   -5.1971    8.9841 LP  0  0  0  0  0  0  0  0  0  0  0  0  # atno 4320 bound_to 2467
   -5.3626   -5.3800    8.9962 LP  0  0  0  0  0  0  0  0  0  0  0  0  # atno 4321 bound_to 2467

> <Gold.Score>
     Score     S(PLP)   S(hbond)     S(cho)   S(metal)  DE(clash)   DE(tors)     intcor
     48.82     -41.37       2.82       0.00       0.00       1.26       0.10       0.45

> <Gold.PLP.Fitness>
48.8173

> <Gold.PLP.PLP>
-41.3723

> <Gold.PLP.part.hbond>
-2.8631

> <Gold.PLP.part.metal>
0.0000

> <Gold.PLP.part.buried>
-4.8730

> <Gold.PLP.part.nonpolar>
-36.1311

> <Gold.PLP.part.repulsive>
0.9526

> <Gold.PLP.ligand.clash>
1.2577

> <Gold.PLP.ligand.torsion>
0.0974

> <Gold.PLP.Chemscore.Hbond>
2.8160

> <Gold.PLP.Chemscore.CHOScore>
0.0000

> <Gold.PLP.Chemscore.Metal>
0.0000

> <Gold.Chemscore.Hbonds>
donor molecule, donor type, donor heavy atom, donor atom, acceptor molecule, acceptor atom, score
      L1  H    15    41       P1  3832  0.82
      L1  H    15    42       P1  1227  2.00

> <Gold.PLP.Chemscore.Internal.Correction>
0.4496

