#       Name:                plp ligand
#       Creating user name   fsindt
#       Creation time:       Mon Feb 27 22:05:41 2023


#       File generated by GOLD software.
#

@<TRIPOS>MOLECULE
plp ligand
    43    43     1
SMALL
USER_CHARGES


@<TRIPOS>ATOM
      1 C1          -4.8174  -0.2380  -1.3520 NONPOLAR       1 <1>                0.0000
      2 C2          -4.6304   0.2209   0.0955 NONPOLAR       1 <1>                0.0000
      3 C3          -4.3701   1.7284   0.1230 NONPOLAR       1 <1>                0.0000
      4 C4          -5.8951  -0.0929   0.8974 NONPOLAR       1 <1>                0.0000
      5 O5          -3.4999  -0.4762   0.6821 ACCEPTOR       1 <1>                0.0000
      6 C6          -2.3025  -0.3050   0.0908 NONPOLAR       1 <1>                0.0000
      7 O7          -2.2049   0.4075  -0.8886 ACCEPTOR       1 <1>                0.0000
      8 N8          -1.2121  -0.9239   0.5853 DONOR          1 <1>                0.0000
      9 C9           0.0908  -0.7376  -0.0581 NONPOLAR       1 <1>                0.0000
     10 C10          0.9870  -1.9421   0.2429 NONPOLAR       1 <1>                0.0000
     11 C11          2.3660  -1.7142  -0.3804 NONPOLAR       1 <1>                0.0000
     12 N12          2.9585  -0.4900   0.1734 ACCEPTOR       1 <1>                0.0000
     13 C13          4.3387  -0.3134  -0.2977 NONPOLAR       1 <1>                0.0000
     14 C14          5.0034   0.8211   0.4846 NONPOLAR       1 <1>                0.0000
     15 N15          6.3836   0.9976   0.0134 DONOR          1 <1>                1.0000
     16 C16          2.1395   0.6869  -0.1438 NONPOLAR       1 <1>                0.0000
     17 C17          0.7538   0.5306   0.4865 NONPOLAR       1 <1>                0.0000
     18 H18         -3.9164  -0.0144  -1.9233                1 <1>                0.0000
     19 H19         -5.0028  -1.3120  -1.3716                1 <1>                0.0000
     20 H20         -5.6661   0.2853  -1.7924                1 <1>                0.0000
     21 H21         -5.2188   2.2517  -0.3174                1 <1>                0.0000
     22 H22         -4.2370   2.0554   1.1542                1 <1>                0.0000
     23 H23         -3.4692   1.9520  -0.4483                1 <1>                0.0000
     24 H24         -6.0805  -1.1669   0.8778                1 <1>                0.0000
     25 H25         -5.7619   0.2340   1.9286                1 <1>                0.0000
     26 H26         -6.7438   0.4304   0.4570                1 <1>                0.0000
     27 H27         -0.0450  -0.6449  -1.1356                1 <1>                0.0000
     28 H28          1.0900  -2.0586   1.3217                1 <1>                0.0000
     29 H29          0.5409  -2.8423  -0.1799                1 <1>                0.0000
     30 H30          3.0110  -2.5637  -0.1558                1 <1>                0.0000
     31 H31          2.2638  -1.6116  -1.4608                1 <1>                0.0000
     32 H32          4.8964  -1.2370  -0.1429                1 <1>                0.0000
     33 H33          4.3314  -0.0670  -1.3595                1 <1>                0.0000
     34 H34          4.4457   1.7447   0.3297                1 <1>                0.0000
     35 H35          5.0107   0.5747   1.5463                1 <1>                0.0000
     36 H36          2.6201   1.5813   0.2526                1 <1>                0.0000
     37 H37          2.0384   0.7782  -1.2253                1 <1>                0.0000
     38 H38          0.1411   1.3971   0.2378                1 <1>                0.0000
     39 H39          0.8531   0.4531   1.5692                1 <1>                0.0000
     40 H40         -1.2900  -1.4927   1.3672                1 <1>                0.0000
     41 H41          6.8219   1.7458   0.5293                1 <1>                0.0000
     42 H42          6.8999   0.1427   0.1568                1 <1>                0.0000
     43 H43          6.3769   1.2257  -0.9694                1 <1>                0.0000
@<TRIPOS>BOND
    1    1    2 1     
    2    1   18 1     
    3    1   19 1     
    4    1   20 1     
    5    2    3 1     
    6    2    4 1     
    7    2    5 1     
    8    3   21 1     
    9    3   22 1     
   10    3   23 1     
   11    4   24 1     
   12    4   25 1     
   13    4   26 1     
   14    5    6 1     
   15    6    7 2     
   16    6    8 am    
   17    8    9 1     
   18    8   40 1     
   19    9   10 1     
   20    9   17 1     
   21    9   27 1     
   22   10   11 1     
   23   10   28 1     
   24   10   29 1     
   25   11   12 1     
   26   11   30 1     
   27   11   31 1     
   28   12   13 1     
   29   12   16 1     
   30   13   14 1     
   31   13   32 1     
   32   13   33 1     
   33   14   15 1     
   34   14   34 1     
   35   14   35 1     
   36   15   41 1     
   37   15   42 1     
   38   15   43 1     
   39   16   17 1     
   40   16   36 1     
   41   16   37 1     
   42   17   38 1     
   43   17   39 1     
@<TRIPOS>SUBSTRUCTURE
      1 ****           1
@<TRIPOS>SET
DONOR_HYDROGENS      STATIC     ATOMS    <user>   **** ""
4 40 41 42 43
ATOM$RED        STATIC     ATOMS    COLORGROUP SYSTEM
4 40 41 42 43
