#       Name:                EN300-30341_i001
#       Creating user name   fsindt
#       Creation time:       Tue Feb 28 12:04:40 2023


#       File generated by GOLD software.
#

@<TRIPOS>MOLECULE
EN300-30341_i001|amine_4|mol2|5100|dock16
    29    30     1
SMALL
USER_CHARGES


@<TRIPOS>ATOM
      1 C1           1.0490 -15.8512   6.8773 C.3            1 <1>                0.0000
      2 O2           1.1132 -15.5801   8.2789 O.3            1 <1>                0.0000
      3 C3           0.5771 -14.4065   8.7056 C.ar           1 <1>                0.0000
      4 C4           0.4457 -13.3421   7.8257 C.ar           1 <1>                0.0000
      5 C5          -0.0995 -12.1501   8.2619 C.ar           1 <1>                0.0000
      6 C6          -0.5141 -12.0174   9.5743 C.ar           1 <1>                0.0000
      7 C7          -0.3837 -13.0767  10.4534 C.ar           1 <1>                0.0000
      8 C8           0.1552 -14.2728  10.0204 C.ar           1 <1>                0.0000
      9 C9          -1.1085 -10.7161  10.0475 C.3            1 <1>                0.0000
     10 N10         -0.2625 -10.1471  11.1051 N.4            1 <1>                1.0000
     11 C11         -2.5136 -10.9675  10.5984 C.3            1 <1>                0.0000
     12 C12         -3.6152  -9.9833  10.2002 C.3            1 <1>                0.0000
     13 C13         -3.5965 -11.3926   9.6047 C.3            1 <1>                0.0000
     14 H14          1.5800 -15.0711   6.3317 H              1 <1>                0.0000
     15 H15          1.5111 -16.8168   6.6724 H              1 <1>                0.0000
     16 H16          0.0068 -15.8722   6.5587 H              1 <1>                0.0000
     17 H17          0.7695 -13.4450   6.8005 H              1 <1>                0.0000
     18 H18         -0.2018 -11.3210   7.5774 H              1 <1>                0.0000
     19 H19         -0.7075 -12.9704  11.4782 H              1 <1>                0.0000
     20 H20          0.2569 -15.0999  10.7073 H              1 <1>                0.0000
     21 H21         -1.1653 -10.0176   9.2126 H              1 <1>                0.0000
     22 H22         -2.5561 -11.3916  11.6017 H              1 <1>                0.0000
     23 H23         -4.3828  -9.7602  10.9412 H              1 <1>                0.0000
     24 H24         -3.3390  -9.1567   9.5456 H              1 <1>                0.0000
     25 H25         -3.3079 -11.4930   8.5584 H              1 <1>                0.0000
     26 H26         -4.3517 -12.0966   9.9540 H              1 <1>                0.0000
     27 H27         -0.5543  -9.2004  11.2965 H              1 <1>                0.0000
     28 H28         -0.3520 -10.7025  11.9427 H              1 <1>                0.0000
     29 H29          0.7001 -10.1477  10.8025 H              1 <1>                0.0000
@<TRIPOS>BOND
    1    1    2 1     
    2    1   14 1     
    3    1   15 1     
    4    1   16 1     
    5    2    3 1     
    6    3    4 ar    
    7    3    8 ar    
    8    4    5 ar    
    9    4   17 1     
   10    5    6 ar    
   11    5   18 1     
   12    6    7 ar    
   13    6    9 1     
   14    7    8 ar    
   15    7   19 1     
   16    8   20 1     
   17    9   10 1     
   18    9   11 1     
   19    9   21 1     
   20   10   27 1     
   21   10   28 1     
   22   10   29 1     
   23   11   12 1     
   24   11   13 1     
   25   11   22 1     
   26   12   13 1     
   27   12   23 1     
   28   12   24 1     
   29   13   25 1     
   30   13   26 1     
@<TRIPOS>SUBSTRUCTURE
      1 ****           1
@<TRIPOS>SET
DONOR_HYDROGENS      STATIC     ATOMS    <user>   **** ""
3 27 28 29
ATOM$RED        STATIC     ATOMS    COLORGROUP SYSTEM
3 27 28 29
@<TRIPOS>COMMENT
> <Gold.Version>
2022.2.0

> <Gold.Id.Protein>
3pbl|protein|mol2

> <Gold.Protein.RotatedTorsions>
[ 1303 1298 1297 1294 ] final    5.18 input  179.99 | X-H torsion
[ 2461 2456 2455 2452 ] final  -70.85 input   30.03 | X-H torsion
[ 2515 2510 2509 2506 ] final    9.39 input  -89.99 | X-H torsion
[ 3721 3712 3711 3710 ] final -101.70 input -179.91 | X-H torsion
[ 3841 3832 3831 3830 ] final  116.86 input -179.91 | X-H torsion
[ 3767 3762 3761 3758 ] final    3.53 input  -89.99 | X-H torsion
[ 2472 2467 2466 2463 ] final   61.85 input  -89.97 | X-H torsion

> <Gold.Protein.ActiveResidues>
 VAL82   VAL86   LEU89   PHE106  VAL107  ASP110  VAL111  MET112  CYS114  THR115 
 CYS181  SER182  ILE183  PHE188  VAL189  ILE190  SER192  SER193  SER196  TRP342 
 PHE345  PHE346  HIS349  VAL350  TYR365  THR369  GLY372  TYR373 

> <Gold.Protein.RotatedAtoms>
    3.4157   -9.9379    4.0932 H   0  0  0  0  0  0  0  0  0  0  0  0  # atno 1303 bound_to 1298
    0.3357   -8.6893    7.4849 H   0  0  0  0  0  0  0  0  0  0  0  0  # atno 2461 bound_to 2456
   -4.6732   -4.8237    7.6609 H   0  0  0  0  0  0  0  0  0  0  0  0  # atno 2472 bound_to 2467
    2.4761   -7.5408    4.7166 H   0  0  0  0  0  0  0  0  0  0  0  0  # atno 2515 bound_to 2510
   -3.1070  -16.8193   14.5981 H   0  0  0  0  0  0  0  0  0  0  0  0  # atno 3721 bound_to 3712
   -5.2902  -22.7600   10.1267 H   0  0  0  0  0  0  0  0  0  0  0  0  # atno 3767 bound_to 3762
    3.0648  -20.7525    8.9742 H   0  0  0  0  0  0  0  0  0  0  0  0  # atno 3841 bound_to 3832
    4.1623   -8.4863    4.0481 LP  0  0  0  0  0  0  0  0  0  0  0  0  # atno 4297 bound_to 1298
    4.7845   -9.6969    4.9503 LP  0  0  0  0  0  0  0  0  0  0  0  0  # atno 4298 bound_to 1298
    1.6150   -9.1487    8.3903 LP  0  0  0  0  0  0  0  0  0  0  0  0  # atno 4299 bound_to 2456
    1.7867   -7.9702    7.2729 LP  0  0  0  0  0  0  0  0  0  0  0  0  # atno 4300 bound_to 2456
    2.7578   -9.1420    4.8666 LP  0  0  0  0  0  0  0  0  0  0  0  0  # atno 4301 bound_to 2510
    2.0628   -8.3167    6.0924 LP  0  0  0  0  0  0  0  0  0  0  0  0  # atno 4302 bound_to 2510
   -3.3326  -17.0951   13.0325 LP  0  0  0  0  0  0  0  0  0  0  0  0  # atno 4306 bound_to 3712
   -2.6080  -18.2131   13.9768 LP  0  0  0  0  0  0  0  0  0  0  0  0  # atno 4307 bound_to 3712
    1.5418  -20.5786    9.4498 LP  0  0  0  0  0  0  0  0  0  0  0  0  # atno 4314 bound_to 3832
    2.1473  -19.6544    8.2473 LP  0  0  0  0  0  0  0  0  0  0  0  0  # atno 4315 bound_to 3832
   -4.8975  -21.9534   11.4913 LP  0  0  0  0  0  0  0  0  0  0  0  0  # atno 4318 bound_to 3762
   -3.9400  -23.1617   10.9528 LP  0  0  0  0  0  0  0  0  0  0  0  0  # atno 4319 bound_to 3762
   -3.7144   -5.1765    8.9347 LP  0  0  0  0  0  0  0  0  0  0  0  0  # atno 4320 bound_to 2467
   -5.3293   -5.3933    9.0434 LP  0  0  0  0  0  0  0  0  0  0  0  0  # atno 4321 bound_to 2467

> <Gold.Score>
     Score     S(PLP)   S(hbond)     S(cho)   S(metal)  DE(clash)   DE(tors)     intcor
     45.54     -45.72       0.00       0.00       0.00       0.02       0.99       1.83

> <Gold.PLP.Fitness>
45.5416

> <Gold.PLP.PLP>
-45.7163

> <Gold.PLP.part.hbond>
0.0000

> <Gold.PLP.part.metal>
0.0000

> <Gold.PLP.part.buried>
-4.8435

> <Gold.PLP.part.nonpolar>
-44.9192

> <Gold.PLP.part.repulsive>
2.4752

> <Gold.PLP.ligand.clash>
0.0214

> <Gold.PLP.ligand.torsion>
0.9927

> <Gold.PLP.Chemscore.Hbond>
0.0000

> <Gold.PLP.Chemscore.CHOScore>
0.0000

> <Gold.PLP.Chemscore.Metal>
0.0000

> <Gold.PLP.Chemscore.Internal.Correction>
1.8322

