#       Name:                EN300-30341_i001
#       Creating user name   fsindt
#       Creation time:       Tue Feb 28 12:04:30 2023


#       File generated by GOLD software.
#

@<TRIPOS>MOLECULE
EN300-30341_i001|amine_4|mol2|5100|dock5
    29    30     1
SMALL
USER_CHARGES


@<TRIPOS>ATOM
      1 C1           2.2888 -16.8386  14.6843 C.3            1 <1>                0.0000
      2 O2           1.1225 -16.0633  14.4002 O.3            1 <1>                0.0000
      3 C3           0.9306 -15.6882  13.1082 C.ar           1 <1>                0.0000
      4 C4           2.0109 -15.6007  12.2422 C.ar           1 <1>                0.0000
      5 C5           1.8131 -15.2191  10.9294 C.ar           1 <1>                0.0000
      6 C6           0.5398 -14.9244  10.4781 C.ar           1 <1>                0.0000
      7 C7          -0.5385 -15.0103  11.3394 C.ar           1 <1>                0.0000
      8 C8          -0.3468 -15.3975  12.6515 C.ar           1 <1>                0.0000
      9 C9           0.3269 -14.5084   9.0455 C.3            1 <1>                0.0000
     10 N10          0.8012 -15.5727   8.1509 N.4            1 <1>                1.0000
     11 C11          1.1072 -13.2222   8.7665 C.3            1 <1>                0.0000
     12 C12          0.7542 -12.4428   7.4981 C.3            1 <1>                0.0000
     13 C13          0.3470 -11.8984   8.8689 C.3            1 <1>                0.0000
     14 H14          3.1780 -16.2715  14.4088 H              1 <1>                0.0000
     15 H15          2.3208 -17.0700  15.7489 H              1 <1>                0.0000
     16 H16          2.2573 -17.7655  14.1117 H              1 <1>                0.0000
     17 H17          3.0057 -15.8305  12.5942 H              1 <1>                0.0000
     18 H18          2.6539 -15.1506  10.2549 H              1 <1>                0.0000
     19 H19         -1.5320 -14.7789  10.9848 H              1 <1>                0.0000
     20 H20         -1.1893 -15.4645  13.3239 H              1 <1>                0.0000
     21 H21         -0.7349 -14.3341   8.8716 H              1 <1>                0.0000
     22 H22          2.1515 -13.2288   9.0789 H              1 <1>                0.0000
     23 H23          1.5660 -11.9361   6.9764 H              1 <1>                0.0000
     24 H24         -0.0340 -12.8462   6.8625 H              1 <1>                0.0000
     25 H25         -0.7091 -11.9438   9.1349 H              1 <1>                0.0000
     26 H26          0.8910 -11.0337   9.2488 H              1 <1>                0.0000
     27 H27          0.0149 -16.1170   7.8292 H              1 <1>                0.0000
     28 H28          1.2721 -15.1614   7.3589 H              1 <1>                0.0000
     29 H29          1.4425 -16.1707   8.6501 H              1 <1>                0.0000
@<TRIPOS>BOND
    1    1    2 1     
    2    1   14 1     
    3    1   15 1     
    4    1   16 1     
    5    2    3 1     
    6    3    4 ar    
    7    3    8 ar    
    8    4    5 ar    
    9    4   17 1     
   10    5    6 ar    
   11    5   18 1     
   12    6    7 ar    
   13    6    9 1     
   14    7    8 ar    
   15    7   19 1     
   16    8   20 1     
   17    9   10 1     
   18    9   11 1     
   19    9   21 1     
   20   10   27 1     
   21   10   28 1     
   22   10   29 1     
   23   11   12 1     
   24   11   13 1     
   25   11   22 1     
   26   12   13 1     
   27   12   23 1     
   28   12   24 1     
   29   13   25 1     
   30   13   26 1     
@<TRIPOS>SUBSTRUCTURE
      1 ****           1
@<TRIPOS>SET
DONOR_HYDROGENS      STATIC     ATOMS    <user>   **** ""
3 27 28 29
ATOM$RED        STATIC     ATOMS    COLORGROUP SYSTEM
3 27 28 29
@<TRIPOS>COMMENT
> <Gold.Version>
2022.2.0

> <Gold.Id.Protein>
3pbl|protein|mol2

> <Gold.Protein.RotatedTorsions>
[ 1303 1298 1297 1294 ] final  116.65 input  179.99 | X-H torsion
[ 2461 2456 2455 2452 ] final   18.26 input   30.03 | X-H torsion
[ 2515 2510 2509 2506 ] final   -2.70 input  -89.99 | X-H torsion
[ 3721 3712 3711 3710 ] final  149.86 input -179.91 | X-H torsion
[ 3841 3832 3831 3830 ] final   17.77 input -179.91 | X-H torsion
[ 3767 3762 3761 3758 ] final   41.49 input  -89.99 | X-H torsion
[ 2472 2467 2466 2463 ] final  171.72 input  -89.97 | X-H torsion

> <Gold.Protein.ActiveResidues>
 VAL82   VAL86   LEU89   PHE106  VAL107  ASP110  VAL111  MET112  CYS114  THR115 
 CYS181  SER182  ILE183  PHE188  VAL189  ILE190  SER192  SER193  SER196  TRP342 
 PHE345  PHE346  HIS349  VAL350  TYR365  THR369  GLY372  TYR373 

> <Gold.Protein.RotatedAtoms>
    4.7128   -9.8175    4.9479 H   0  0  0  0  0  0  0  0  0  0  0  0  # atno 1303 bound_to 1298
    1.3308   -7.9236    7.0673 H   0  0  0  0  0  0  0  0  0  0  0  0  # atno 2461 bound_to 2456
   -5.4148   -5.3541    8.9062 H   0  0  0  0  0  0  0  0  0  0  0  0  # atno 2472 bound_to 2467
    2.5591   -7.6581    4.5797 H   0  0  0  0  0  0  0  0  0  0  0  0  # atno 2515 bound_to 2510
   -3.2049  -16.8659   13.1968 H   0  0  0  0  0  0  0  0  0  0  0  0  # atno 3721 bound_to 3712
   -4.8272  -23.1605   10.0898 H   0  0  0  0  0  0  0  0  0  0  0  0  # atno 3767 bound_to 3762
    1.9170  -20.6757    9.6161 H   0  0  0  0  0  0  0  0  0  0  0  0  # atno 3841 bound_to 3832
    3.3703   -9.8282    4.0185 LP  0  0  0  0  0  0  0  0  0  0  0  0  # atno 4297 bound_to 1298
    4.2789   -8.4755    4.1250 LP  0  0  0  0  0  0  0  0  0  0  0  0  # atno 4298 bound_to 1298
    0.4142   -9.0264    7.8489 LP  0  0  0  0  0  0  0  0  0  0  0  0  # atno 4299 bound_to 2456
    1.9927   -8.8580    8.2318 LP  0  0  0  0  0  0  0  0  0  0  0  0  # atno 4300 bound_to 2456
    2.7007   -9.2179    5.0409 LP  0  0  0  0  0  0  0  0  0  0  0  0  # atno 4301 bound_to 2510
    2.0369   -8.1235    6.0550 LP  0  0  0  0  0  0  0  0  0  0  0  0  # atno 4302 bound_to 2510
   -2.6180  -18.2179   13.8338 LP  0  0  0  0  0  0  0  0  0  0  0  0  # atno 4306 bound_to 3712
   -3.2096  -17.0364   14.7933 LP  0  0  0  0  0  0  0  0  0  0  0  0  # atno 4307 bound_to 3712
    1.8869  -19.6370    8.3929 LP  0  0  0  0  0  0  0  0  0  0  0  0  # atno 4314 bound_to 3832
    3.1279  -20.6847    8.5626 LP  0  0  0  0  0  0  0  0  0  0  0  0  # atno 4315 bound_to 3832
   -5.3372  -21.9531   11.0640 LP  0  0  0  0  0  0  0  0  0  0  0  0  # atno 4318 bound_to 3762
   -3.9631  -22.7617   11.4169 LP  0  0  0  0  0  0  0  0  0  0  0  0  # atno 4319 bound_to 3762
   -4.5078   -4.8058    7.6639 LP  0  0  0  0  0  0  0  0  0  0  0  0  # atno 4320 bound_to 2467
   -3.7945   -5.2337    9.0691 LP  0  0  0  0  0  0  0  0  0  0  0  0  # atno 4321 bound_to 2467

> <Gold.Score>
     Score     S(PLP)   S(hbond)     S(cho)   S(metal)  DE(clash)   DE(tors)     intcor
     47.66     -38.72       3.00       0.00       0.00       0.00       0.95       1.84

> <Gold.PLP.Fitness>
47.6594

> <Gold.PLP.PLP>
-38.7219

> <Gold.PLP.part.hbond>
-2.0000

> <Gold.PLP.part.metal>
0.0000

> <Gold.PLP.part.buried>
-1.9135

> <Gold.PLP.part.nonpolar>
-35.1547

> <Gold.PLP.part.repulsive>
0.0238

> <Gold.PLP.ligand.clash>
0.0000

> <Gold.PLP.ligand.torsion>
0.9490

> <Gold.PLP.Chemscore.Hbond>
3.0000

> <Gold.PLP.Chemscore.CHOScore>
0.0000

> <Gold.PLP.Chemscore.Metal>
0.0000

> <Gold.Chemscore.Hbonds>
donor molecule, donor type, donor heavy atom, donor atom, acceptor molecule, acceptor atom, score
      L1  H    10    29       P1  1227  2.00
      P1  H  2305  2313       L1     2  1.00

> <Gold.PLP.Chemscore.Internal.Correction>
1.8355

