#       Name:                EN300-30341_i001
#       Creating user name   fsindt
#       Creation time:       Tue Feb 28 12:04:34 2023


#       File generated by GOLD software.
#

@<TRIPOS>MOLECULE
EN300-30341_i001|amine_4|mol2|5100|dock10
    29    30     1
SMALL
USER_CHARGES


@<TRIPOS>ATOM
      1 C1          -5.5232 -10.6178   9.9000 C.3            1 <1>                0.0000
      2 O2          -4.3299 -10.1270  10.5141 O.3            1 <1>                0.0000
      3 C3          -3.1511 -10.6280  10.0598 C.ar           1 <1>                0.0000
      4 C4          -1.9833  -9.8925  10.2006 C.ar           1 <1>                0.0000
      5 C5          -0.7863 -10.4040   9.7379 C.ar           1 <1>                0.0000
      6 C6          -0.7516 -11.6477   9.1349 C.ar           1 <1>                0.0000
      7 C7          -1.9142 -12.3825   8.9930 C.ar           1 <1>                0.0000
      8 C8          -3.1127 -11.8781   9.4596 C.ar           1 <1>                0.0000
      9 C9           0.5555 -12.2032   8.6312 C.3            1 <1>                0.0000
     10 N10          1.1501 -11.2627   7.6721 N.4            1 <1>                1.0000
     11 C11          0.3070 -13.5462   7.9413 C.3            1 <1>                0.0000
     12 C12          1.4772 -14.5289   7.8660 C.3            1 <1>                0.0000
     13 C13          0.3095 -14.8011   8.8165 C.3            1 <1>                0.0000
     14 H14         -5.5885 -11.6964  10.0435 H              1 <1>                0.0000
     15 H15         -6.3897 -10.1376  10.3544 H              1 <1>                0.0000
     16 H16         -5.5014 -10.3939   8.8334 H              1 <1>                0.0000
     17 H17         -2.0099  -8.9208  10.6712 H              1 <1>                0.0000
     18 H18          0.1231  -9.8317   9.8470 H              1 <1>                0.0000
     19 H19         -1.8847 -13.3534   8.5210 H              1 <1>                0.0000
     20 H20         -4.0206 -12.4524   9.3485 H              1 <1>                0.0000
     21 H21          1.2369 -12.3462   9.4698 H              1 <1>                0.0000
     22 H22         -0.3843 -13.5210   7.0989 H              1 <1>                0.0000
     23 H23          1.5556 -15.1507   6.9742 H              1 <1>                0.0000
     24 H24          2.4241 -14.2188   8.3079 H              1 <1>                0.0000
     25 H25          0.4884 -14.6700   9.8837 H              1 <1>                0.0000
     26 H26         -0.3802 -15.6019   8.5500 H              1 <1>                0.0000
     27 H27          2.0634 -11.5933   7.3989 H              1 <1>                0.0000
     28 H28          0.5593 -11.1951   6.8569 H              1 <1>                0.0000
     29 H29          1.2361 -10.3538   8.1016 H              1 <1>                0.0000
@<TRIPOS>BOND
    1    1    2 1     
    2    1   14 1     
    3    1   15 1     
    4    1   16 1     
    5    2    3 1     
    6    3    4 ar    
    7    3    8 ar    
    8    4    5 ar    
    9    4   17 1     
   10    5    6 ar    
   11    5   18 1     
   12    6    7 ar    
   13    6    9 1     
   14    7    8 ar    
   15    7   19 1     
   16    8   20 1     
   17    9   10 1     
   18    9   11 1     
   19    9   21 1     
   20   10   27 1     
   21   10   28 1     
   22   10   29 1     
   23   11   12 1     
   24   11   13 1     
   25   11   22 1     
   26   12   13 1     
   27   12   23 1     
   28   12   24 1     
   29   13   25 1     
   30   13   26 1     
@<TRIPOS>SUBSTRUCTURE
      1 ****           1
@<TRIPOS>SET
DONOR_HYDROGENS      STATIC     ATOMS    <user>   **** ""
3 27 28 29
ATOM$RED        STATIC     ATOMS    COLORGROUP SYSTEM
3 27 28 29
@<TRIPOS>COMMENT
> <Gold.Version>
2022.2.0

> <Gold.Id.Protein>
3pbl|protein|mol2

> <Gold.Protein.RotatedTorsions>
[ 1303 1298 1297 1294 ] final  137.57 input  179.99 | X-H torsion
[ 2461 2456 2455 2452 ] final   32.16 input   30.03 | X-H torsion
[ 2515 2510 2509 2506 ] final  157.04 input  -89.99 | X-H torsion
[ 3721 3712 3711 3710 ] final  -43.86 input -179.91 | X-H torsion
[ 3841 3832 3831 3830 ] final  -45.16 input -179.91 | X-H torsion
[ 3767 3762 3761 3758 ] final   98.23 input  -89.99 | X-H torsion
[ 2472 2467 2466 2463 ] final -177.23 input  -89.97 | X-H torsion

> <Gold.Protein.ActiveResidues>
 VAL82   VAL86   LEU89   PHE106  VAL107  ASP110  VAL111  MET112  CYS114  THR115 
 CYS181  SER182  ILE183  PHE188  VAL189  ILE190  SER192  SER193  SER196  TRP342 
 PHE345  PHE346  HIS349  VAL350  TYR365  THR369  GLY372  TYR373 

> <Gold.Protein.RotatedAtoms>
    4.8610   -9.5094    4.9314 H   0  0  0  0  0  0  0  0  0  0  0  0  # atno 1303 bound_to 1298
    1.5474   -7.9201    7.1394 H   0  0  0  0  0  0  0  0  0  0  0  0  # atno 2461 bound_to 2456
   -5.3203   -5.3973    9.0549 H   0  0  0  0  0  0  0  0  0  0  0  0  # atno 2472 bound_to 2467
    2.1807   -8.7474    6.0333 H   0  0  0  0  0  0  0  0  0  0  0  0  # atno 2515 bound_to 2510
   -2.6869  -17.5378   14.6930 H   0  0  0  0  0  0  0  0  0  0  0  0  # atno 3721 bound_to 3712
   -4.1102  -23.3090   10.6067 H   0  0  0  0  0  0  0  0  0  0  0  0  # atno 3767 bound_to 3762
    1.5657  -19.9591    9.1920 H   0  0  0  0  0  0  0  0  0  0  0  0  # atno 3841 bound_to 3832
    3.5092  -10.0749    4.2108 LP  0  0  0  0  0  0  0  0  0  0  0  0  # atno 4297 bound_to 1298
    3.9916   -8.5369    3.9492 LP  0  0  0  0  0  0  0  0  0  0  0  0  # atno 4298 bound_to 1298
    0.3468   -8.8843    7.6835 LP  0  0  0  0  0  0  0  0  0  0  0  0  # atno 4299 bound_to 2456
    1.8437   -9.0035    8.3251 LP  0  0  0  0  0  0  0  0  0  0  0  0  # atno 4300 bound_to 2456
    2.2847   -7.4099    5.1028 LP  0  0  0  0  0  0  0  0  0  0  0  0  # atno 4301 bound_to 2510
    2.8314   -8.8416    4.5388 LP  0  0  0  0  0  0  0  0  0  0  0  0  # atno 4302 bound_to 2510
   -3.5674  -16.5724   13.7600 LP  0  0  0  0  0  0  0  0  0  0  0  0  # atno 4306 bound_to 3712
   -2.8583  -17.9062   13.1397 LP  0  0  0  0  0  0  0  0  0  0  0  0  # atno 4307 bound_to 3712
    2.7894  -19.9942    8.1540 LP  0  0  0  0  0  0  0  0  0  0  0  0  # atno 4314 bound_to 3832
    2.6313  -21.1552    9.2914 LP  0  0  0  0  0  0  0  0  0  0  0  0  # atno 4315 bound_to 3832
   -5.4709  -22.4494   10.3301 LP  0  0  0  0  0  0  0  0  0  0  0  0  # atno 4318 bound_to 3762
   -4.5461  -22.1169   11.6342 LP  0  0  0  0  0  0  0  0  0  0  0  0  # atno 4319 bound_to 3762
   -4.6883   -4.8250    7.6623 LP  0  0  0  0  0  0  0  0  0  0  0  0  # atno 4320 bound_to 2467
   -3.7085   -5.1713    8.9220 LP  0  0  0  0  0  0  0  0  0  0  0  0  # atno 4321 bound_to 2467

> <Gold.Score>
     Score     S(PLP)   S(hbond)     S(cho)   S(metal)  DE(clash)   DE(tors)     intcor
     45.18     -43.39       0.99       0.00       0.00       1.11       0.95       1.83

> <Gold.PLP.Fitness>
45.1815

> <Gold.PLP.PLP>
-43.3866

> <Gold.PLP.part.hbond>
-1.0000

> <Gold.PLP.part.metal>
0.0000

> <Gold.PLP.part.buried>
-2.4335

> <Gold.PLP.part.nonpolar>
-40.5950

> <Gold.PLP.part.repulsive>
0.1077

> <Gold.PLP.ligand.clash>
1.1143

> <Gold.PLP.ligand.torsion>
0.9495

> <Gold.PLP.Chemscore.Hbond>
0.9920

> <Gold.PLP.Chemscore.CHOScore>
0.0000

> <Gold.PLP.Chemscore.Metal>
0.0000

> <Gold.Chemscore.Hbonds>
donor molecule, donor type, donor heavy atom, donor atom, acceptor molecule, acceptor atom, score
      L1  H    10    29       P1  2456  0.99

> <Gold.PLP.Chemscore.Internal.Correction>
1.8322

