#       Name:                EN300-30341_i001
#       Creating user name   fsindt
#       Creation time:       Tue Feb 28 12:04:38 2023


#       File generated by GOLD software.
#

@<TRIPOS>MOLECULE
EN300-30341_i001|amine_4|mol2|5100|dock14
    29    30     1
SMALL
USER_CHARGES


@<TRIPOS>ATOM
      1 C1           1.0156 -15.5321   7.1747 C.3            1 <1>                0.0000
      2 O2           1.4011 -14.1563   7.1968 O.3            1 <1>                0.0000
      3 C3           0.5938 -13.3001   7.8764 C.ar           1 <1>                0.0000
      4 C4           1.1003 -12.1015   8.3574 C.ar           1 <1>                0.0000
      5 C5           0.2775 -11.2328   9.0479 C.ar           1 <1>                0.0000
      6 C6          -1.0498 -11.5572   9.2599 C.ar           1 <1>                0.0000
      7 C7          -1.5569 -12.7514   8.7820 C.ar           1 <1>                0.0000
      8 C8          -0.7397 -13.6206   8.0854 C.ar           1 <1>                0.0000
      9 C9          -1.9451 -10.6078  10.0135 C.3            1 <1>                0.0000
     10 N10         -1.2619 -10.1535  11.2321 N.4            1 <1>                1.0000
     11 C11         -3.2430 -11.3234  10.3932 C.3            1 <1>                0.0000
     12 C12         -4.5025 -10.4684  10.5463 C.3            1 <1>                0.0000
     13 C13         -4.3472 -11.3919   9.3364 C.3            1 <1>                0.0000
     14 H14          0.0330 -15.6268   6.7123 H              1 <1>                0.0000
     15 H15          1.7441 -16.1045   6.6004 H              1 <1>                0.0000
     16 H16          0.9755 -15.9146   8.1946 H              1 <1>                0.0000
     17 H17          2.1370 -11.8477   8.1923 H              1 <1>                0.0000
     18 H18          0.6714 -10.2997   9.4228 H              1 <1>                0.0000
     19 H19         -2.5937 -13.0029   8.9495 H              1 <1>                0.0000
     20 H20         -1.1362 -14.5534   7.7123 H              1 <1>                0.0000
     21 H21         -2.1750  -9.7481   9.3840 H              1 <1>                0.0000
     22 H22         -3.1306 -12.1781  11.0604 H              1 <1>                0.0000
     23 H23         -5.2191 -10.7607  11.3139 H              1 <1>                0.0000
     24 H24         -4.4065  -9.3960  10.3765 H              1 <1>                0.0000
     25 H25         -4.1489 -10.9270   8.3706 H              1 <1>                0.0000
     26 H26         -4.9615 -12.2918   9.3080 H              1 <1>                0.0000
     27 H27         -1.7252 -10.5392  12.0411 H              1 <1>                0.0000
     28 H28         -0.3018 -10.4633  11.2148 H              1 <1>                0.0000
     29 H29         -1.2893  -9.1459  11.2773 H              1 <1>                0.0000
@<TRIPOS>BOND
    1    1    2 1     
    2    1   14 1     
    3    1   15 1     
    4    1   16 1     
    5    2    3 1     
    6    3    4 ar    
    7    3    8 ar    
    8    4    5 ar    
    9    4   17 1     
   10    5    6 ar    
   11    5   18 1     
   12    6    7 ar    
   13    6    9 1     
   14    7    8 ar    
   15    7   19 1     
   16    8   20 1     
   17    9   10 1     
   18    9   11 1     
   19    9   21 1     
   20   10   27 1     
   21   10   28 1     
   22   10   29 1     
   23   11   12 1     
   24   11   13 1     
   25   11   22 1     
   26   12   13 1     
   27   12   23 1     
   28   12   24 1     
   29   13   25 1     
   30   13   26 1     
@<TRIPOS>SUBSTRUCTURE
      1 ****           1
@<TRIPOS>SET
DONOR_HYDROGENS      STATIC     ATOMS    <user>   **** ""
3 27 28 29
ATOM$RED        STATIC     ATOMS    COLORGROUP SYSTEM
3 27 28 29
@<TRIPOS>COMMENT
> <Gold.Version>
2022.2.0

> <Gold.Id.Protein>
3pbl|protein|mol2

> <Gold.Protein.RotatedTorsions>
[ 1303 1298 1297 1294 ] final   27.81 input  179.99 | X-H torsion
[ 2461 2456 2455 2452 ] final  142.94 input   30.03 | X-H torsion
[ 2515 2510 2509 2506 ] final  151.27 input  -89.99 | X-H torsion
[ 3721 3712 3711 3710 ] final -135.34 input -179.91 | X-H torsion
[ 3841 3832 3831 3830 ] final   85.52 input -179.91 | X-H torsion
[ 3767 3762 3761 3758 ] final -177.28 input  -89.99 | X-H torsion
[ 2472 2467 2466 2463 ] final  -30.73 input  -89.97 | X-H torsion

> <Gold.Protein.ActiveResidues>
 VAL82   VAL86   LEU89   PHE106  VAL107  ASP110  VAL111  MET112  CYS114  THR115 
 CYS181  SER182  ILE183  PHE188  VAL189  ILE190  SER192  SER193  SER196  TRP342 
 PHE345  PHE346  HIS349  VAL350  TYR365  THR369  GLY372  TYR373 

> <Gold.Protein.RotatedAtoms>
    3.6082  -10.1633    4.3145 H   0  0  0  0  0  0  0  0  0  0  0  0  # atno 1303 bound_to 1298
    1.9472   -8.9093    8.2671 H   0  0  0  0  0  0  0  0  0  0  0  0  # atno 2461 bound_to 2456
   -3.6363   -5.0204    8.5233 H   0  0  0  0  0  0  0  0  0  0  0  0  # atno 2472 bound_to 2467
    2.1503   -8.6623    6.0619 H   0  0  0  0  0  0  0  0  0  0  0  0  # atno 2515 bound_to 2510
   -3.2860  -16.5682   14.2027 H   0  0  0  0  0  0  0  0  0  0  0  0  # atno 3721 bound_to 3712
   -4.1197  -22.4994   11.5823 H   0  0  0  0  0  0  0  0  0  0  0  0  # atno 3767 bound_to 3762
    2.7932  -20.9367    9.3073 H   0  0  0  0  0  0  0  0  0  0  0  0  # atno 3841 bound_to 3832
    3.8549   -8.6083    3.8819 LP  0  0  0  0  0  0  0  0  0  0  0  0  # atno 4297 bound_to 1298
    4.8992   -9.3494    4.8952 LP  0  0  0  0  0  0  0  0  0  0  0  0  # atno 4298 bound_to 1298
    1.4050   -7.9181    7.0877 LP  0  0  0  0  0  0  0  0  0  0  0  0  # atno 4299 bound_to 2456
    0.3858   -8.9809    7.7935 LP  0  0  0  0  0  0  0  0  0  0  0  0  # atno 4300 bound_to 2456
    2.3232   -7.4200    5.0167 LP  0  0  0  0  0  0  0  0  0  0  0  0  # atno 4301 bound_to 2510
    2.8233   -8.9166    4.5963 LP  0  0  0  0  0  0  0  0  0  0  0  0  # atno 4302 bound_to 2510
   -3.0627  -17.5754   12.9724 LP  0  0  0  0  0  0  0  0  0  0  0  0  # atno 4306 bound_to 3712
   -2.6712  -18.0226   14.4934 LP  0  0  0  0  0  0  0  0  0  0  0  0  # atno 4307 bound_to 3712
    1.3908  -20.1673    9.1750 LP  0  0  0  0  0  0  0  0  0  0  0  0  # atno 4314 bound_to 3832
    2.6120  -19.8529    8.1374 LP  0  0  0  0  0  0  0  0  0  0  0  0  # atno 4315 bound_to 3832
   -4.5322  -23.2935   10.2163 LP  0  0  0  0  0  0  0  0  0  0  0  0  # atno 4318 bound_to 3762
   -5.4752  -22.0821   10.7728 LP  0  0  0  0  0  0  0  0  0  0  0  0  # atno 4319 bound_to 3762
   -4.9892   -5.4579    9.3263 LP  0  0  0  0  0  0  0  0  0  0  0  0  # atno 4320 bound_to 2467
   -5.0913   -4.9152    7.7895 LP  0  0  0  0  0  0  0  0  0  0  0  0  # atno 4321 bound_to 2467

> <Gold.Score>
     Score     S(PLP)   S(hbond)     S(cho)   S(metal)  DE(clash)   DE(tors)     intcor
     45.28     -46.43       0.00       0.00       0.00       0.56       1.21       1.83

> <Gold.PLP.Fitness>
45.2834

> <Gold.PLP.PLP>
-46.4306

> <Gold.PLP.part.hbond>
0.0000

> <Gold.PLP.part.metal>
0.0000

> <Gold.PLP.part.buried>
-3.9801

> <Gold.PLP.part.nonpolar>
-44.0295

> <Gold.PLP.part.repulsive>
0.1917

> <Gold.PLP.ligand.clash>
0.5570

> <Gold.PLP.ligand.torsion>
1.2112

> <Gold.PLP.Chemscore.Hbond>
0.0000

> <Gold.PLP.Chemscore.CHOScore>
0.0000

> <Gold.PLP.Chemscore.Metal>
0.0000

> <Gold.PLP.Chemscore.Internal.Correction>
1.8322

