#       Name:                EN300-30341_i001
#       Creating user name   fsindt
#       Creation time:       Tue Feb 28 12:04:28 2023


#       File generated by GOLD software.
#

@<TRIPOS>MOLECULE
EN300-30341_i001|amine_4|mol2|5100|dock2
    29    30     1
SMALL
USER_CHARGES


@<TRIPOS>ATOM
      1 C1          -4.0436 -10.1127  10.1833 C.3            1 <1>                0.0000
      2 O2          -2.7708 -10.1885   9.5381 O.3            1 <1>                0.0000
      3 C3          -1.9837 -11.2518   9.8490 C.ar           1 <1>                0.0000
      4 C4          -1.0713 -11.7354   8.9226 C.ar           1 <1>                0.0000
      5 C5          -0.2724 -12.8163   9.2411 C.ar           1 <1>                0.0000
      6 C6          -0.3814 -13.4163  10.4821 C.ar           1 <1>                0.0000
      7 C7          -1.2903 -12.9364  11.4070 C.ar           1 <1>                0.0000
      8 C8          -2.0872 -11.8518  11.0955 C.ar           1 <1>                0.0000
      9 C9           0.4914 -14.5953  10.8269 C.3            1 <1>                0.0000
     10 N10          0.3552 -15.6256   9.7887 N.4            1 <1>                1.0000
     11 C11          0.0601 -15.1716  12.1771 C.3            1 <1>                0.0000
     12 C12         -0.0377 -16.6938  12.2967 C.3            1 <1>                0.0000
     13 C13          1.1067 -15.9444  12.9822 C.3            1 <1>                0.0000
     14 H14         -3.9013 -10.0659  11.2630 H              1 <1>                0.0000
     15 H15         -4.5688  -9.2188   9.8470 H              1 <1>                0.0000
     16 H16         -4.6313 -10.9956   9.9322 H              1 <1>                0.0000
     17 H17         -0.9859 -11.2673   7.9530 H              1 <1>                0.0000
     18 H18          0.4379 -13.1934   8.5201 H              1 <1>                0.0000
     19 H19         -1.3742 -13.4072  12.3754 H              1 <1>                0.0000
     20 H20         -2.7970 -11.4774  11.8183 H              1 <1>                0.0000
     21 H21          1.5310 -14.2732  10.8849 H              1 <1>                0.0000
     22 H22         -0.6636 -14.5755  12.7330 H              1 <1>                0.0000
     23 H23         -0.8254 -17.0992  12.9317 H              1 <1>                0.0000
     24 H24          0.2053 -17.2847  11.4136 H              1 <1>                0.0000
     25 H25          2.1025 -16.0423  12.5499 H              1 <1>                0.0000
     26 H26          1.0718 -15.8568  14.0680 H              1 <1>                0.0000
     27 H27         -0.5815 -16.0002   9.8073 H              1 <1>                0.0000
     28 H28          0.5363 -15.2174   8.8839 H              1 <1>                0.0000
     29 H29          1.0174 -16.3670   9.9618 H              1 <1>                0.0000
@<TRIPOS>BOND
    1    1    2 1     
    2    1   14 1     
    3    1   15 1     
    4    1   16 1     
    5    2    3 1     
    6    3    4 ar    
    7    3    8 ar    
    8    4    5 ar    
    9    4   17 1     
   10    5    6 ar    
   11    5   18 1     
   12    6    7 ar    
   13    6    9 1     
   14    7    8 ar    
   15    7   19 1     
   16    8   20 1     
   17    9   10 1     
   18    9   11 1     
   19    9   21 1     
   20   10   27 1     
   21   10   28 1     
   22   10   29 1     
   23   11   12 1     
   24   11   13 1     
   25   11   22 1     
   26   12   13 1     
   27   12   23 1     
   28   12   24 1     
   29   13   25 1     
   30   13   26 1     
@<TRIPOS>SUBSTRUCTURE
      1 ****           1
@<TRIPOS>SET
DONOR_HYDROGENS      STATIC     ATOMS    <user>   **** ""
3 27 28 29
ATOM$RED        STATIC     ATOMS    COLORGROUP SYSTEM
3 27 28 29
@<TRIPOS>COMMENT
> <Gold.Version>
2022.2.0

> <Gold.Id.Protein>
3pbl|protein|mol2

> <Gold.Protein.RotatedTorsions>
[ 1303 1298 1297 1294 ] final  151.56 input  179.99 | X-H torsion
[ 2461 2456 2455 2452 ] final -166.02 input   30.03 | X-H torsion
[ 2515 2510 2509 2506 ] final -117.72 input  -89.99 | X-H torsion
[ 3721 3712 3711 3710 ] final   82.77 input -179.91 | X-H torsion
[ 3841 3832 3831 3830 ] final  -19.58 input -179.91 | X-H torsion
[ 3767 3762 3761 3758 ] final  -14.74 input  -89.99 | X-H torsion
[ 2472 2467 2466 2463 ] final  175.32 input  -89.97 | X-H torsion

> <Gold.Protein.ActiveResidues>
 VAL82   VAL86   LEU89   PHE106  VAL107  ASP110  VAL111  MET112  CYS114  THR115 
 CYS181  SER182  ILE183  PHE188  VAL189  ILE190  SER192  SER193  SER196  TRP342 
 PHE345  PHE346  HIS349  VAL350  TYR365  THR369  GLY372  TYR373 

> <Gold.Protein.RotatedAtoms>
    4.9064   -9.2907    4.8780 H   0  0  0  0  0  0  0  0  0  0  0  0  # atno 1303 bound_to 1298
    1.2293   -9.2727    8.3796 H   0  0  0  0  0  0  0  0  0  0  0  0  # atno 2461 bound_to 2456
   -5.3873   -5.3691    8.9563 H   0  0  0  0  0  0  0  0  0  0  0  0  # atno 2472 bound_to 2467
    2.7259   -9.1908    4.9678 H   0  0  0  0  0  0  0  0  0  0  0  0  # atno 2515 bound_to 2510
   -2.7323  -17.6973   13.1541 H   0  0  0  0  0  0  0  0  0  0  0  0  # atno 3721 bound_to 3712
   -5.4342  -22.5344   10.2610 H   0  0  0  0  0  0  0  0  0  0  0  0  # atno 3767 bound_to 3762
    1.6061  -20.2552    9.4321 H   0  0  0  0  0  0  0  0  0  0  0  0  # atno 3841 bound_to 3832
    3.6488  -10.1899    4.3524 LP  0  0  0  0  0  0  0  0  0  0  0  0  # atno 4297 bound_to 1298
    3.8067   -8.6407    3.8609 LP  0  0  0  0  0  0  0  0  0  0  0  0  # atno 4298 bound_to 1298
    2.0468   -8.1400    7.5334 LP  0  0  0  0  0  0  0  0  0  0  0  0  # atno 4299 bound_to 2456
    0.4617   -8.3957    7.2354 LP  0  0  0  0  0  0  0  0  0  0  0  0  # atno 4300 bound_to 2456
    2.0455   -8.2024    6.0749 LP  0  0  0  0  0  0  0  0  0  0  0  0  # atno 4301 bound_to 2510
    2.5252   -7.6055    4.6326 LP  0  0  0  0  0  0  0  0  0  0  0  0  # atno 4302 bound_to 2510
   -2.8105  -17.7385   14.7572 LP  0  0  0  0  0  0  0  0  0  0  0  0  # atno 4306 bound_to 3712
   -3.5627  -16.5559   13.9192 LP  0  0  0  0  0  0  0  0  0  0  0  0  # atno 4307 bound_to 3712
    2.4400  -19.7542    8.1554 LP  0  0  0  0  0  0  0  0  0  0  0  0  # atno 4314 bound_to 3832
    2.9340  -21.0533    9.0127 LP  0  0  0  0  0  0  0  0  0  0  0  0  # atno 4315 bound_to 3832
   -4.6435  -22.0600   11.6088 LP  0  0  0  0  0  0  0  0  0  0  0  0  # atno 4318 bound_to 3762
   -4.0499  -23.2807   10.7010 LP  0  0  0  0  0  0  0  0  0  0  0  0  # atno 4319 bound_to 3762
   -4.5666   -4.8108    7.6598 LP  0  0  0  0  0  0  0  0  0  0  0  0  # atno 4320 bound_to 2467
   -3.7632   -5.2137    9.0231 LP  0  0  0  0  0  0  0  0  0  0  0  0  # atno 4321 bound_to 2467

> <Gold.Score>
     Score     S(PLP)   S(hbond)     S(cho)   S(metal)  DE(clash)   DE(tors)     intcor
     49.15     -45.03       2.00       0.00       0.00       0.99       1.36       1.84

> <Gold.PLP.Fitness>
49.1549

> <Gold.PLP.PLP>
-45.0282

> <Gold.PLP.part.hbond>
-1.0000

> <Gold.PLP.part.metal>
0.0000

> <Gold.PLP.part.buried>
-4.7498

> <Gold.PLP.part.nonpolar>
-39.8823

> <Gold.PLP.part.repulsive>
0.0659

> <Gold.PLP.ligand.clash>
0.9911

> <Gold.PLP.ligand.torsion>
1.3589

> <Gold.PLP.Chemscore.Hbond>
2.0000

> <Gold.PLP.Chemscore.CHOScore>
0.0000

> <Gold.PLP.Chemscore.Metal>
0.0000

> <Gold.Chemscore.Hbonds>
donor molecule, donor type, donor heavy atom, donor atom, acceptor molecule, acceptor atom, score
      L1  H    10    29       P1  1227  2.00

> <Gold.PLP.Chemscore.Internal.Correction>
1.8355

