#       Name:                EN300-30341_i001
#       Creating user name   fsindt
#       Creation time:       Tue Feb 28 12:04:29 2023


#       File generated by GOLD software.
#

@<TRIPOS>MOLECULE
EN300-30341_i001|amine_4|mol2|5100|dock3
    29    30     1
SMALL
USER_CHARGES


@<TRIPOS>ATOM
      1 C1           1.1199 -15.2075   7.4994 C.3            1 <1>                0.0000
      2 O2           1.0602 -14.7507   8.8521 O.3            1 <1>                0.0000
      3 C3           0.2942 -13.6560   9.1004 C.ar           1 <1>                0.0000
      4 C4           0.1140 -12.6960   8.1153 C.ar           1 <1>                0.0000
      5 C5          -0.6651 -11.5841   8.3703 C.ar           1 <1>                0.0000
      6 C6          -1.2652 -11.4276   9.6061 C.ar           1 <1>                0.0000
      7 C7          -1.0868 -12.3828  10.5898 C.ar           1 <1>                0.0000
      8 C8          -0.3137 -13.4996  10.3376 C.ar           1 <1>                0.0000
      9 C9          -2.1147 -10.2138   9.8816 C.3            1 <1>                0.0000
     10 N10         -1.4063  -9.3203  10.8078 N.4            1 <1>                1.0000
     11 C11         -3.4405 -10.6505  10.5080 C.3            1 <1>                0.0000
     12 C12         -4.7064  -9.9115  10.0695 C.3            1 <1>                0.0000
     13 C13         -4.4561 -11.3459   9.5993 C.3            1 <1>                0.0000
     14 H14          1.5242 -14.4174   6.8666 H              1 <1>                0.0000
     15 H15          1.7633 -16.0853   7.4404 H              1 <1>                0.0000
     16 H16          0.1176 -15.4681   7.1594 H              1 <1>                0.0000
     17 H17          0.5828 -12.8175   7.1500 H              1 <1>                0.0000
     18 H18         -0.8054 -10.8362   7.6038 H              1 <1>                0.0000
     19 H19         -1.5560 -12.2580  11.5545 H              1 <1>                0.0000
     20 H20         -0.1746 -14.2454  11.1062 H              1 <1>                0.0000
     21 H21         -2.3103  -9.6875   8.9473 H              1 <1>                0.0000
     22 H22         -3.3841 -10.9804  11.5454 H              1 <1>                0.0000
     23 H23         -5.4831  -9.7557  10.8183 H              1 <1>                0.0000
     24 H24         -4.5948  -9.1143   9.3347 H              1 <1>                0.0000
     25 H25         -4.1798 -11.4921   8.5551 H              1 <1>                0.0000
     26 H26         -5.0681 -12.1335  10.0387 H              1 <1>                0.0000
     27 H27         -0.4677  -9.1636  10.4722 H              1 <1>                0.0000
     28 H28         -1.8946  -8.4392  10.8647 H              1 <1>                0.0000
     29 H29         -1.3699  -9.7445  11.7225 H              1 <1>                0.0000
@<TRIPOS>BOND
    1    1    2 1     
    2    1   14 1     
    3    1   15 1     
    4    1   16 1     
    5    2    3 1     
    6    3    4 ar    
    7    3    8 ar    
    8    4    5 ar    
    9    4   17 1     
   10    5    6 ar    
   11    5   18 1     
   12    6    7 ar    
   13    6    9 1     
   14    7    8 ar    
   15    7   19 1     
   16    8   20 1     
   17    9   10 1     
   18    9   11 1     
   19    9   21 1     
   20   10   27 1     
   21   10   28 1     
   22   10   29 1     
   23   11   12 1     
   24   11   13 1     
   25   11   22 1     
   26   12   13 1     
   27   12   23 1     
   28   12   24 1     
   29   13   25 1     
   30   13   26 1     
@<TRIPOS>SUBSTRUCTURE
      1 ****           1
@<TRIPOS>SET
DONOR_HYDROGENS      STATIC     ATOMS    <user>   **** ""
3 27 28 29
ATOM$RED        STATIC     ATOMS    COLORGROUP SYSTEM
3 27 28 29
@<TRIPOS>COMMENT
> <Gold.Version>
2022.2.0

> <Gold.Id.Protein>
3pbl|protein|mol2

> <Gold.Protein.RotatedTorsions>
[ 1303 1298 1297 1294 ] final  -81.62 input  179.99 | X-H torsion
[ 2461 2456 2455 2452 ] final  -70.54 input   30.03 | X-H torsion
[ 2515 2510 2509 2506 ] final -178.34 input  -89.99 | X-H torsion
[ 3721 3712 3711 3710 ] final   91.25 input -179.91 | X-H torsion
[ 3841 3832 3831 3830 ] final  -60.19 input -179.91 | X-H torsion
[ 3767 3762 3761 3758 ] final -154.75 input  -89.99 | X-H torsion
[ 2472 2467 2466 2463 ] final  126.07 input  -89.97 | X-H torsion

> <Gold.Protein.ActiveResidues>
 VAL82   VAL86   LEU89   PHE106  VAL107  ASP110  VAL111  MET112  CYS114  THR115 
 CYS181  SER182  ILE183  PHE188  VAL189  ILE190  SER192  SER193  SER196  TRP342 
 PHE345  PHE346  HIS349  VAL350  TYR365  THR369  GLY372  TYR373 

> <Gold.Protein.RotatedAtoms>
    3.7225   -8.7075    3.8290 H   0  0  0  0  0  0  0  0  0  0  0  0  # atno 1303 bound_to 1298
    0.3363   -8.6857    7.4814 H   0  0  0  0  0  0  0  0  0  0  0  0  # atno 2461 bound_to 2456
   -5.4557   -5.1104    8.2176 H   0  0  0  0  0  0  0  0  0  0  0  0  # atno 2472 bound_to 2467
    2.3351   -9.0540    5.8242 H   0  0  0  0  0  0  0  0  0  0  0  0  # atno 2515 bound_to 2510
   -2.7930  -17.6003   13.0966 H   0  0  0  0  0  0  0  0  0  0  0  0  # atno 3721 bound_to 3712
   -4.3734  -22.2409   11.6501 H   0  0  0  0  0  0  0  0  0  0  0  0  # atno 3767 bound_to 3762
    1.6142  -19.8101    9.0286 H   0  0  0  0  0  0  0  0  0  0  0  0  # atno 3841 bound_to 3832
    4.9121   -9.1853    4.8405 LP  0  0  0  0  0  0  0  0  0  0  0  0  # atno 4297 bound_to 1298
    3.7277  -10.2288    4.4223 LP  0  0  0  0  0  0  0  0  0  0  0  0  # atno 4298 bound_to 1298
    1.6106   -9.1509    8.3909 LP  0  0  0  0  0  0  0  0  0  0  0  0  # atno 4299 bound_to 2456
    1.7907   -7.9716    7.2757 LP  0  0  0  0  0  0  0  0  0  0  0  0  # atno 4300 bound_to 2456
    2.1416   -7.4712    5.4735 LP  0  0  0  0  0  0  0  0  0  0  0  0  # atno 4301 bound_to 2510
    2.8201   -8.4735    4.3773 LP  0  0  0  0  0  0  0  0  0  0  0  0  # atno 4302 bound_to 2510
   -2.7557  -17.8458   14.6829 LP  0  0  0  0  0  0  0  0  0  0  0  0  # atno 4306 bound_to 3712
   -3.5474  -16.5607   14.0599 LP  0  0  0  0  0  0  0  0  0  0  0  0  # atno 4307 bound_to 3712
    2.9498  -20.1758    8.2172 LP  0  0  0  0  0  0  0  0  0  0  0  0  # atno 4314 bound_to 3832
    2.4149  -21.1458    9.4170 LP  0  0  0  0  0  0  0  0  0  0  0  0  # atno 4315 bound_to 3832
   -4.2459  -23.3349   10.4444 LP  0  0  0  0  0  0  0  0  0  0  0  0  # atno 4318 bound_to 3762
   -5.5079  -22.2991   10.4769 LP  0  0  0  0  0  0  0  0  0  0  0  0  # atno 4319 bound_to 3762
   -3.8582   -4.8542    7.9967 LP  0  0  0  0  0  0  0  0  0  0  0  0  # atno 4320 bound_to 2467
   -4.4032   -5.4289    9.4248 LP  0  0  0  0  0  0  0  0  0  0  0  0  # atno 4321 bound_to 2467

> <Gold.Score>
     Score     S(PLP)   S(hbond)     S(cho)   S(metal)  DE(clash)   DE(tors)     intcor
     54.55     -52.19       1.00       0.00       0.00       0.00       1.24       1.84

> <Gold.PLP.Fitness>
54.5469

> <Gold.PLP.PLP>
-52.1906

> <Gold.PLP.part.hbond>
-1.0000

> <Gold.PLP.part.metal>
0.0000

> <Gold.PLP.part.buried>
-3.8235

> <Gold.PLP.part.nonpolar>
-48.0352

> <Gold.PLP.part.repulsive>
0.2619

> <Gold.PLP.ligand.clash>
0.0000

> <Gold.PLP.ligand.torsion>
1.2396

> <Gold.PLP.Chemscore.Hbond>
1.0000

> <Gold.PLP.Chemscore.CHOScore>
0.0000

> <Gold.PLP.Chemscore.Metal>
0.0000

> <Gold.Chemscore.Hbonds>
donor molecule, donor type, donor heavy atom, donor atom, acceptor molecule, acceptor atom, score
      L1  H    10    28       P1  2398  1.00

> <Gold.PLP.Chemscore.Internal.Correction>
1.8355

