#       Name:                EN300-30341_i001
#       Creating user name   fsindt
#       Creation time:       Tue Feb 28 12:04:37 2023


#       File generated by GOLD software.
#

@<TRIPOS>MOLECULE
EN300-30341_i001|amine_4|mol2|5100|dock13
    29    30     1
SMALL
USER_CHARGES


@<TRIPOS>ATOM
      1 C1          -3.7481  -9.9036  10.1792 C.3            1 <1>                0.0000
      2 O2          -2.6867 -10.3137  11.0436 O.3            1 <1>                0.0000
      3 C3          -1.9105 -11.3460  10.6210 C.ar           1 <1>                0.0000
      4 C4          -1.7057 -11.5513   9.2644 C.ar           1 <1>                0.0000
      5 C5          -0.9163 -12.6015   8.8374 C.ar           1 <1>                0.0000
      6 C6          -0.3305 -13.4476   9.7608 C.ar           1 <1>                0.0000
      7 C7          -0.5335 -13.2454  11.1135 C.ar           1 <1>                0.0000
      8 C8          -1.3170 -12.1929  11.5457 C.ar           1 <1>                0.0000
      9 C9           0.5302 -14.5924   9.2922 C.3            1 <1>                0.0000
     10 N10          1.7177 -14.6956  10.1508 N.4            1 <1>                1.0000
     11 C11          0.9661 -14.3445   7.8467 C.3            1 <1>                0.0000
     12 C12          1.0944 -15.5618   6.9288 C.3            1 <1>                0.0000
     13 C13         -0.0687 -14.5847   6.7457 C.3            1 <1>                0.0000
     14 H14         -4.4313 -10.7383  10.0215 H              1 <1>                0.0000
     15 H15         -4.2877  -9.0735  10.6348 H              1 <1>                0.0000
     16 H16         -3.3349  -9.5866   9.2217 H              1 <1>                0.0000
     17 H17         -2.1632 -10.8909   8.5427 H              1 <1>                0.0000
     18 H18         -0.7567 -12.7619   7.7813 H              1 <1>                0.0000
     19 H19         -0.0756 -13.9081  11.8328 H              1 <1>                0.0000
     20 H20         -1.4754 -12.0354  12.6024 H              1 <1>                0.0000
     21 H21         -0.0388 -15.5205   9.3459 H              1 <1>                0.0000
     22 H22          1.6745 -13.5286   7.7027 H              1 <1>                0.0000
     23 H23          1.8869 -15.5467   6.1806 H              1 <1>                0.0000
     24 H24          0.8682 -16.5393   7.3547 H              1 <1>                0.0000
     25 H25         -1.0601 -14.9195   7.0512 H              1 <1>                0.0000
     26 H26         -0.0414 -13.9269   5.8771 H              1 <1>                0.0000
     27 H27          2.1332 -15.6086  10.0419 H              1 <1>                0.0000
     28 H28          2.3865 -13.9880   9.8864 H              1 <1>                0.0000
     29 H29          1.4489 -14.5612  11.1141 H              1 <1>                0.0000
@<TRIPOS>BOND
    1    1    2 1     
    2    1   14 1     
    3    1   15 1     
    4    1   16 1     
    5    2    3 1     
    6    3    4 ar    
    7    3    8 ar    
    8    4    5 ar    
    9    4   17 1     
   10    5    6 ar    
   11    5   18 1     
   12    6    7 ar    
   13    6    9 1     
   14    7    8 ar    
   15    7   19 1     
   16    8   20 1     
   17    9   10 1     
   18    9   11 1     
   19    9   21 1     
   20   10   27 1     
   21   10   28 1     
   22   10   29 1     
   23   11   12 1     
   24   11   13 1     
   25   11   22 1     
   26   12   13 1     
   27   12   23 1     
   28   12   24 1     
   29   13   25 1     
   30   13   26 1     
@<TRIPOS>SUBSTRUCTURE
      1 ****           1
@<TRIPOS>SET
DONOR_HYDROGENS      STATIC     ATOMS    <user>   **** ""
3 27 28 29
ATOM$RED        STATIC     ATOMS    COLORGROUP SYSTEM
3 27 28 29
@<TRIPOS>COMMENT
> <Gold.Version>
2022.2.0

> <Gold.Id.Protein>
3pbl|protein|mol2

> <Gold.Protein.RotatedTorsions>
[ 1303 1298 1297 1294 ] final  148.96 input  179.99 | X-H torsion
[ 2461 2456 2455 2452 ] final -130.23 input   30.03 | X-H torsion
[ 2515 2510 2509 2506 ] final  -37.35 input  -89.99 | X-H torsion
[ 3721 3712 3711 3710 ] final  -57.65 input -179.91 | X-H torsion
[ 3841 3832 3831 3830 ] final   52.11 input -179.91 | X-H torsion
[ 3767 3762 3761 3758 ] final -118.08 input  -89.99 | X-H torsion
[ 2472 2467 2466 2463 ] final -122.36 input  -89.97 | X-H torsion

> <Gold.Protein.ActiveResidues>
 VAL82   VAL86   LEU89   PHE106  VAL107  ASP110  VAL111  MET112  CYS114  THR115 
 CYS181  SER182  ILE183  PHE188  VAL189  ILE190  SER192  SER193  SER196  TRP342 
 PHE345  PHE346  HIS349  VAL350  TYR365  THR369  GLY372  TYR373 

> <Gold.Protein.RotatedAtoms>
    4.9014   -9.3313    4.8904 H   0  0  0  0  0  0  0  0  0  0  0  0  # atno 1303 bound_to 1298
    0.6970   -9.2325    8.1536 H   0  0  0  0  0  0  0  0  0  0  0  0  # atno 2461 bound_to 2456
   -4.5400   -5.4480    9.4338 H   0  0  0  0  0  0  0  0  0  0  0  0  # atno 2472 bound_to 2467
    2.7544   -8.1369    4.3614 H   0  0  0  0  0  0  0  0  0  0  0  0  # atno 2515 bound_to 2510
   -2.7828  -17.3617   14.7484 H   0  0  0  0  0  0  0  0  0  0  0  0  # atno 3721 bound_to 3712
   -4.8750  -21.9596   11.5043 H   0  0  0  0  0  0  0  0  0  0  0  0  # atno 3767 bound_to 3762
    2.3631  -20.9180    9.5569 H   0  0  0  0  0  0  0  0  0  0  0  0  # atno 3841 bound_to 3832
    3.6205  -10.1721    4.3258 LP  0  0  0  0  0  0  0  0  0  0  0  0  # atno 4297 bound_to 1298
    3.8399   -8.6179    3.8752 LP  0  0  0  0  0  0  0  0  0  0  0  0  # atno 4298 bound_to 1298
    2.1547   -8.5235    7.9541 LP  0  0  0  0  0  0  0  0  0  0  0  0  # atno 4299 bound_to 2456
    0.8858   -8.0524    7.0405 LP  0  0  0  0  0  0  0  0  0  0  0  0  # atno 4300 bound_to 2456
    2.4817   -9.2138    5.5579 LP  0  0  0  0  0  0  0  0  0  0  0  0  # atno 4301 bound_to 2510
    2.0605   -7.6486    5.7563 LP  0  0  0  0  0  0  0  0  0  0  0  0  # atno 4302 bound_to 2510
   -3.5506  -16.6358   13.5396 LP  0  0  0  0  0  0  0  0  0  0  0  0  # atno 4306 bound_to 3712
   -2.7642  -18.0461   13.2962 LP  0  0  0  0  0  0  0  0  0  0  0  0  # atno 4307 bound_to 3712
    1.5086  -19.8050    8.7777 LP  0  0  0  0  0  0  0  0  0  0  0  0  # atno 4314 bound_to 3832
    2.9911  -20.2367    8.2463 LP  0  0  0  0  0  0  0  0  0  0  0  0  # atno 4315 bound_to 3832
   -3.9466  -23.1745   10.9307 LP  0  0  0  0  0  0  0  0  0  0  0  0  # atno 4318 bound_to 3762
   -5.3058  -22.7407   10.1364 LP  0  0  0  0  0  0  0  0  0  0  0  0  # atno 4319 bound_to 3762
   -5.4001   -5.0614    8.1007 LP  0  0  0  0  0  0  0  0  0  0  0  0  # atno 4320 bound_to 2467
   -3.7768   -4.8843    8.1048 LP  0  0  0  0  0  0  0  0  0  0  0  0  # atno 4321 bound_to 2467

> <Gold.Score>
     Score     S(PLP)   S(hbond)     S(cho)   S(metal)  DE(clash)   DE(tors)     intcor
     52.22     -47.34       2.00       0.00       0.00       0.00       1.47       1.83

> <Gold.PLP.Fitness>
52.2190

> <Gold.PLP.PLP>
-47.3358

> <Gold.PLP.part.hbond>
-1.0000

> <Gold.PLP.part.metal>
0.0000

> <Gold.PLP.part.buried>
-4.4724

> <Gold.PLP.part.nonpolar>
-43.4713

> <Gold.PLP.part.repulsive>
0.1114

> <Gold.PLP.ligand.clash>
0.0000

> <Gold.PLP.ligand.torsion>
1.4745

> <Gold.PLP.Chemscore.Hbond>
2.0000

> <Gold.PLP.Chemscore.CHOScore>
0.0000

> <Gold.PLP.Chemscore.Metal>
0.0000

> <Gold.Chemscore.Hbonds>
donor molecule, donor type, donor heavy atom, donor atom, acceptor molecule, acceptor atom, score
      L1  H    10    27       P1  1227  2.00

> <Gold.PLP.Chemscore.Internal.Correction>
1.8322

