#       Name:                EN300-30341_i001
#       Creating user name   fsindt
#       Creation time:       Tue Feb 28 12:04:42 2023


#       File generated by GOLD software.
#

@<TRIPOS>MOLECULE
EN300-30341_i001|amine_4|mol2|5100|dock18
    29    30     1
SMALL
USER_CHARGES


@<TRIPOS>ATOM
      1 C1          -2.8169  -9.5949   9.3009 C.3            1 <1>                0.0000
      2 O2          -1.4843  -9.8547   8.8553 O.3            1 <1>                0.0000
      3 C3          -0.9184 -11.0252   9.2512 C.ar           1 <1>                0.0000
      4 C4           0.0539 -11.6274   8.4660 C.ar           1 <1>                0.0000
      5 C5           0.6275 -12.8172   8.8707 C.ar           1 <1>                0.0000
      6 C6           0.2333 -13.4078  10.0571 C.ar           1 <1>                0.0000
      7 C7          -0.7359 -12.8098  10.8412 C.ar           1 <1>                0.0000
      8 C8          -1.3081 -11.6168  10.4440 C.ar           1 <1>                0.0000
      9 C9           0.8607 -14.7057  10.4961 C.3            1 <1>                0.0000
     10 N10          0.9179 -15.6318   9.3573 N.4            1 <1>                1.0000
     11 C11          0.0214 -15.3250  11.6155 C.3            1 <1>                0.0000
     12 C12          0.4962 -16.6568  12.2003 C.3            1 <1>                0.0000
     13 C13          0.6349 -15.3699  13.0164 C.3            1 <1>                0.0000
     14 H14         -2.8386  -9.5769  10.3906 H              1 <1>                0.0000
     15 H15         -3.1476  -8.6307   8.9149 H              1 <1>                0.0000
     16 H16         -3.4810 -10.3790   8.9372 H              1 <1>                0.0000
     17 H17          0.3619 -11.1667   7.5391 H              1 <1>                0.0000
     18 H18          1.3843 -13.2867   8.2596 H              1 <1>                0.0000
     19 H19         -1.0427 -13.2734  11.7671 H              1 <1>                0.0000
     20 H20         -2.0651 -11.1500  11.0567 H              1 <1>                0.0000
     21 H21          1.8701 -14.5162  10.8613 H              1 <1>                0.0000
     22 H22         -1.0539 -15.1626  11.5416 H              1 <1>                0.0000
     23 H23         -0.2667 -17.3703  12.5117 H              1 <1>                0.0000
     24 H24          1.4066 -17.0916  11.7877 H              1 <1>                0.0000
     25 H25          1.6366 -14.9582  13.1405 H              1 <1>                0.0000
     26 H26         -0.0367 -15.2369  13.8644 H              1 <1>                0.0000
     27 H27          1.5961 -16.3549   9.5455 H              1 <1>                0.0000
     28 H28          0.0103 -16.0501   9.2180 H              1 <1>                0.0000
     29 H29          1.1867 -15.1267   8.5262 H              1 <1>                0.0000
@<TRIPOS>BOND
    1    1    2 1     
    2    1   14 1     
    3    1   15 1     
    4    1   16 1     
    5    2    3 1     
    6    3    4 ar    
    7    3    8 ar    
    8    4    5 ar    
    9    4   17 1     
   10    5    6 ar    
   11    5   18 1     
   12    6    7 ar    
   13    6    9 1     
   14    7    8 ar    
   15    7   19 1     
   16    8   20 1     
   17    9   10 1     
   18    9   11 1     
   19    9   21 1     
   20   10   27 1     
   21   10   28 1     
   22   10   29 1     
   23   11   12 1     
   24   11   13 1     
   25   11   22 1     
   26   12   13 1     
   27   12   23 1     
   28   12   24 1     
   29   13   25 1     
   30   13   26 1     
@<TRIPOS>SUBSTRUCTURE
      1 ****           1
@<TRIPOS>SET
DONOR_HYDROGENS      STATIC     ATOMS    <user>   **** ""
3 27 28 29
ATOM$RED        STATIC     ATOMS    COLORGROUP SYSTEM
3 27 28 29
@<TRIPOS>COMMENT
> <Gold.Version>
2022.2.0

> <Gold.Id.Protein>
3pbl|protein|mol2

> <Gold.Protein.RotatedTorsions>
[ 1303 1298 1297 1294 ] final  104.70 input  179.99 | X-H torsion
[ 2461 2456 2455 2452 ] final -102.26 input   30.03 | X-H torsion
[ 2515 2510 2509 2506 ] final -146.24 input  -89.99 | X-H torsion
[ 3721 3712 3711 3710 ] final  -71.65 input -179.91 | X-H torsion
[ 3841 3832 3831 3830 ] final  -92.74 input -179.91 | X-H torsion
[ 3767 3762 3761 3758 ] final  -19.72 input  -89.99 | X-H torsion
[ 2472 2467 2466 2463 ] final   65.52 input  -89.97 | X-H torsion

> <Gold.Protein.ActiveResidues>
 VAL82   VAL86   LEU89   PHE106  VAL107  ASP110  VAL111  MET112  CYS114  THR115 
 CYS181  SER182  ILE183  PHE188  VAL189  ILE190  SER192  SER193  SER196  TRP342 
 PHE345  PHE346  HIS349  VAL350  TYR365  THR369  GLY372  TYR373 

> <Gold.Protein.RotatedAtoms>
    4.5914   -9.9695    4.9225 H   0  0  0  0  0  0  0  0  0  0  0  0  # atno 1303 bound_to 1298
    0.4174   -9.0313    7.8550 H   0  0  0  0  0  0  0  0  0  0  0  0  # atno 2461 bound_to 2456
   -4.7326   -4.8323    7.6667 H   0  0  0  0  0  0  0  0  0  0  0  0  # atno 2472 bound_to 2467
    2.5581   -9.2512    5.3964 H   0  0  0  0  0  0  0  0  0  0  0  0  # atno 2515 bound_to 2510
   -2.8873  -17.1784   14.7543 H   0  0  0  0  0  0  0  0  0  0  0  0  # atno 3721 bound_to 3712
   -5.4612  -22.4735   10.3088 H   0  0  0  0  0  0  0  0  0  0  0  0  # atno 3767 bound_to 3762
    1.8819  -19.6054    8.6795 H   0  0  0  0  0  0  0  0  0  0  0  0  # atno 3841 bound_to 3832
    3.3346   -9.6579    3.9276 LP  0  0  0  0  0  0  0  0  0  0  0  0  # atno 4297 bound_to 1298
    4.4360   -8.4937    4.2412 LP  0  0  0  0  0  0  0  0  0  0  0  0  # atno 4298 bound_to 1298
    1.9974   -8.8523    8.2277 LP  0  0  0  0  0  0  0  0  0  0  0  0  # atno 4299 bound_to 2456
    1.3226   -7.9247    7.0655 LP  0  0  0  0  0  0  0  0  0  0  0  0  # atno 4300 bound_to 2456
    2.0371   -7.7812    5.8795 LP  0  0  0  0  0  0  0  0  0  0  0  0  # atno 4301 bound_to 2510
    2.7015   -7.9663    4.3993 LP  0  0  0  0  0  0  0  0  0  0  0  0  # atno 4302 bound_to 2510
   -3.5064  -16.7444   13.3379 LP  0  0  0  0  0  0  0  0  0  0  0  0  # atno 4306 bound_to 3712
   -2.6879  -18.1491   13.4910 LP  0  0  0  0  0  0  0  0  0  0  0  0  # atno 4307 bound_to 3712
    3.1252  -20.6028    8.4909 LP  0  0  0  0  0  0  0  0  0  0  0  0  # atno 4314 bound_to 3832
    1.9302  -20.9553    9.5465 LP  0  0  0  0  0  0  0  0  0  0  0  0  # atno 4315 bound_to 3832
   -4.5743  -22.0995   11.6280 LP  0  0  0  0  0  0  0  0  0  0  0  0  # atno 4318 bound_to 3762
   -4.0921  -23.3020   10.6341 LP  0  0  0  0  0  0  0  0  0  0  0  0  # atno 4319 bound_to 3762
   -3.6920   -5.1553    8.8829 LP  0  0  0  0  0  0  0  0  0  0  0  0  # atno 4320 bound_to 2467
   -5.2923   -5.4058    9.0894 LP  0  0  0  0  0  0  0  0  0  0  0  0  # atno 4321 bound_to 2467

> <Gold.Score>
     Score     S(PLP)   S(hbond)     S(cho)   S(metal)  DE(clash)   DE(tors)     intcor
     44.28     -38.73       2.34       0.00       0.00       0.42       1.44       1.83

> <Gold.PLP.Fitness>
44.2797

> <Gold.PLP.PLP>
-38.7257

> <Gold.PLP.part.hbond>
-1.7687

> <Gold.PLP.part.metal>
0.0000

> <Gold.PLP.part.buried>
-2.4799

> <Gold.PLP.part.nonpolar>
-36.3537

> <Gold.PLP.part.repulsive>
0.0907

> <Gold.PLP.ligand.clash>
0.4160

> <Gold.PLP.ligand.torsion>
1.4389

> <Gold.PLP.Chemscore.Hbond>
2.3385

> <Gold.PLP.Chemscore.CHOScore>
0.0000

> <Gold.PLP.Chemscore.Metal>
0.0000

> <Gold.Chemscore.Hbonds>
donor molecule, donor type, donor heavy atom, donor atom, acceptor molecule, acceptor atom, score
      L1  H    10    27       P1  1227  2.00
      P1  H  2456  2461       L1     2  0.34

> <Gold.PLP.Chemscore.Internal.Correction>
1.8322

