#       Name:                EN300-30341_i001
#       Creating user name   fsindt
#       Creation time:       Tue Feb 28 12:04:35 2023


#       File generated by GOLD software.
#

@<TRIPOS>MOLECULE
EN300-30341_i001|amine_4|mol2|5100|dock11
    29    30     1
SMALL
USER_CHARGES


@<TRIPOS>ATOM
      1 C1          -0.1054 -24.2996  14.7770 C.3            1 <1>                0.0000
      2 O2          -0.4114 -23.7346  13.5006 O.3            1 <1>                0.0000
      3 C3          -0.0274 -22.4486  13.2869 C.ar           1 <1>                0.0000
      4 C4          -0.6866 -21.6744  12.3432 C.ar           1 <1>                0.0000
      5 C5          -0.2943 -20.3675  12.1278 C.ar           1 <1>                0.0000
      6 C6           0.7544 -19.8309  12.8519 C.ar           1 <1>                0.0000
      7 C7           1.4133 -20.6007  13.7927 C.ar           1 <1>                0.0000
      8 C8           1.0207 -21.9062  14.0162 C.ar           1 <1>                0.0000
      9 C9           1.1802 -18.4049  12.6149 C.3            1 <1>                0.0000
     10 N10          2.5838 -18.3785  12.1822 N.4            1 <1>                1.0000
     11 C11          1.0311 -17.6059  13.9112 C.3            1 <1>                0.0000
     12 C12          2.2975 -17.3426  14.7285 C.3            1 <1>                0.0000
     13 C13          1.6384 -16.2022  13.9498 C.3            1 <1>                0.0000
     14 H14         -0.5907 -23.7152  15.5588 H              1 <1>                0.0000
     15 H15         -0.4656 -25.3276  14.8152 H              1 <1>                0.0000
     16 H16          0.9737 -24.2867  14.9307 H              1 <1>                0.0000
     17 H17         -1.5055 -22.0931  11.7772 H              1 <1>                0.0000
     18 H18         -0.8069 -19.7643  11.3930 H              1 <1>                0.0000
     19 H19          2.2326 -20.1796  14.3564 H              1 <1>                0.0000
     20 H20          1.5357 -22.5072  14.7511 H              1 <1>                0.0000
     21 H21          0.5531 -17.9622  11.8412 H              1 <1>                0.0000
     22 H22          0.1030 -17.7684  14.4594 H              1 <1>                0.0000
     23 H23          2.2025 -17.3312  15.8143 H              1 <1>                0.0000
     24 H24          3.2368 -17.7384  14.3426 H              1 <1>                0.0000
     25 H25          2.1443 -15.8480  13.0516 H              1 <1>                0.0000
     26 H26          1.1100 -15.4408  14.5232 H              1 <1>                0.0000
     27 H27          2.6413 -17.9958  11.2504 H              1 <1>                0.0000
     28 H28          3.1202 -17.8045  12.8153 H              1 <1>                0.0000
     29 H29          2.9539 -19.3172  12.1836 H              1 <1>                0.0000
@<TRIPOS>BOND
    1    1    2 1     
    2    1   14 1     
    3    1   15 1     
    4    1   16 1     
    5    2    3 1     
    6    3    4 ar    
    7    3    8 ar    
    8    4    5 ar    
    9    4   17 1     
   10    5    6 ar    
   11    5   18 1     
   12    6    7 ar    
   13    6    9 1     
   14    7    8 ar    
   15    7   19 1     
   16    8   20 1     
   17    9   10 1     
   18    9   11 1     
   19    9   21 1     
   20   10   27 1     
   21   10   28 1     
   22   10   29 1     
   23   11   12 1     
   24   11   13 1     
   25   11   22 1     
   26   12   13 1     
   27   12   23 1     
   28   12   24 1     
   29   13   25 1     
   30   13   26 1     
@<TRIPOS>SUBSTRUCTURE
      1 ****           1
@<TRIPOS>SET
DONOR_HYDROGENS      STATIC     ATOMS    <user>   **** ""
3 27 28 29
ATOM$RED        STATIC     ATOMS    COLORGROUP SYSTEM
3 27 28 29
@<TRIPOS>COMMENT
> <Gold.Version>
2022.2.0

> <Gold.Id.Protein>
3pbl|protein|mol2

> <Gold.Protein.RotatedTorsions>
[ 1303 1298 1297 1294 ] final -131.36 input  179.99 | X-H torsion
[ 2461 2456 2455 2452 ] final  -24.79 input   30.03 | X-H torsion
[ 2515 2510 2509 2506 ] final   18.23 input  -89.99 | X-H torsion
[ 3721 3712 3711 3710 ] final   22.92 input -179.91 | X-H torsion
[ 3841 3832 3831 3830 ] final -146.54 input -179.91 | X-H torsion
[ 3767 3762 3761 3758 ] final   61.65 input  -89.99 | X-H torsion
[ 2472 2467 2466 2463 ] final  -51.12 input  -89.97 | X-H torsion

> <Gold.Protein.ActiveResidues>
 VAL82   VAL86   LEU89   PHE106  VAL107  ASP110  VAL111  MET112  CYS114  THR115 
 CYS181  SER182  ILE183  PHE188  VAL189  ILE190  SER192  SER193  SER196  TRP342 
 PHE345  PHE346  HIS349  VAL350  TYR365  THR369  GLY372  TYR373 

> <Gold.Protein.RotatedAtoms>
    4.3850   -8.4835    4.2025 H   0  0  0  0  0  0  0  0  0  0  0  0  # atno 1303 bound_to 1298
    0.6858   -8.1727    7.0910 H   0  0  0  0  0  0  0  0  0  0  0  0  # atno 2461 bound_to 2456
   -3.6745   -5.1366    8.8340 H   0  0  0  0  0  0  0  0  0  0  0  0  # atno 2472 bound_to 2467
    2.4139   -7.4770    4.8313 H   0  0  0  0  0  0  0  0  0  0  0  0  # atno 2515 bound_to 2510
   -2.4729  -18.0331   13.9071 H   0  0  0  0  0  0  0  0  0  0  0  0  # atno 3721 bound_to 3712
   -4.5464  -23.2886   10.2071 H   0  0  0  0  0  0  0  0  0  0  0  0  # atno 3767 bound_to 3762
    2.5837  -19.7261    8.3530 H   0  0  0  0  0  0  0  0  0  0  0  0  # atno 3841 bound_to 3832
    4.6344   -9.9222    4.9334 LP  0  0  0  0  0  0  0  0  0  0  0  0  # atno 4297 bound_to 1298
    3.3427   -9.7160    3.9558 LP  0  0  0  0  0  0  0  0  0  0  0  0  # atno 4298 bound_to 1298
    0.8989   -9.2805    8.2720 LP  0  0  0  0  0  0  0  0  0  0  0  0  # atno 4299 bound_to 2456
    2.1529   -8.3548    7.7850 LP  0  0  0  0  0  0  0  0  0  0  0  0  # atno 4300 bound_to 2456
    2.7906   -9.0635    4.7488 LP  0  0  0  0  0  0  0  0  0  0  0  0  # atno 4301 bound_to 2510
    2.0922   -8.4590    6.0954 LP  0  0  0  0  0  0  0  0  0  0  0  0  # atno 4302 bound_to 2510
   -3.2877  -16.9119   14.7175 LP  0  0  0  0  0  0  0  0  0  0  0  0  # atno 4306 bound_to 3712
   -3.3849  -16.9949   13.0896 LP  0  0  0  0  0  0  0  0  0  0  0  0  # atno 4307 bound_to 3712
    2.8295  -21.1099    9.1281 LP  0  0  0  0  0  0  0  0  0  0  0  0  # atno 4314 bound_to 3832
    1.4153  -20.3088    9.2865 LP  0  0  0  0  0  0  0  0  0  0  0  0  # atno 4315 bound_to 3832
   -5.4707  -22.0737   10.7873 LP  0  0  0  0  0  0  0  0  0  0  0  0  # atno 4318 bound_to 3762
   -4.1102  -22.5130   11.5764 LP  0  0  0  0  0  0  0  0  0  0  0  0  # atno 4319 bound_to 3762
   -5.2558   -5.4163    9.1297 LP  0  0  0  0  0  0  0  0  0  0  0  0  # atno 4320 bound_to 2467
   -4.7865   -4.8406    7.6755 LP  0  0  0  0  0  0  0  0  0  0  0  0  # atno 4321 bound_to 2467

> <Gold.Score>
     Score     S(PLP)   S(hbond)     S(cho)   S(metal)  DE(clash)   DE(tors)     intcor
     40.89     -35.01       2.00       0.00       0.00       0.00       0.97       1.83

> <Gold.PLP.Fitness>
40.8948

> <Gold.PLP.PLP>
-35.0123

> <Gold.PLP.part.hbond>
-1.0000

> <Gold.PLP.part.metal>
0.0000

> <Gold.PLP.part.buried>
-3.9428

> <Gold.PLP.part.nonpolar>
-30.4527

> <Gold.PLP.part.repulsive>
0.0743

> <Gold.PLP.ligand.clash>
0.0000

> <Gold.PLP.ligand.torsion>
0.9749

> <Gold.PLP.Chemscore.Hbond>
2.0000

> <Gold.PLP.Chemscore.CHOScore>
0.0000

> <Gold.PLP.Chemscore.Metal>
0.0000

> <Gold.Chemscore.Hbonds>
donor molecule, donor type, donor heavy atom, donor atom, acceptor molecule, acceptor atom, score
      L1  H    10    27       P1  1227  2.00

> <Gold.PLP.Chemscore.Internal.Correction>
1.8322

