#       Name:                EN300-30341_i001
#       Creating user name   fsindt
#       Creation time:       Tue Feb 28 12:04:33 2023


#       File generated by GOLD software.
#

@<TRIPOS>MOLECULE
EN300-30341_i001|amine_4|mol2|5100|dock8
    29    30     1
SMALL
USER_CHARGES


@<TRIPOS>ATOM
      1 C1           0.3277 -15.9257  11.9356 C.3            1 <1>                0.0000
      2 O2           0.6900 -15.1449  10.7949 O.3            1 <1>                0.0000
      3 C3          -0.0277 -14.0134  10.5684 C.ar           1 <1>                0.0000
      4 C4          -0.6948 -13.3926  11.6144 C.ar           1 <1>                0.0000
      5 C5          -1.4237 -12.2425  11.3815 C.ar           1 <1>                0.0000
      6 C6          -1.4888 -11.7100  10.1072 C.ar           1 <1>                0.0000
      7 C7          -0.8252 -12.3271   9.0628 C.ar           1 <1>                0.0000
      8 C8          -0.0898 -13.4740   9.2918 C.ar           1 <1>                0.0000
      9 C9          -2.2847 -10.4553   9.8560 C.3            1 <1>                0.0000
     10 N10         -1.6178  -9.3154  10.4993 N.4            1 <1>                1.0000
     11 C11         -3.6906 -10.6180  10.4372 C.3            1 <1>                0.0000
     12 C12         -4.8315  -9.8675   9.7472 C.3            1 <1>                0.0000
     13 C13         -4.7161 -11.3862   9.6011 C.3            1 <1>                0.0000
     14 H14         -0.7084 -16.2504  11.8394 H              1 <1>                0.0000
     15 H15          0.9775 -16.7984  11.9999 H              1 <1>                0.0000
     16 H16          0.4374 -15.3237  12.8376 H              1 <1>                0.0000
     17 H17         -0.6445 -13.8083  12.6100 H              1 <1>                0.0000
     18 H18         -1.9435 -11.7590  12.1955 H              1 <1>                0.0000
     19 H19         -0.8782 -11.9097   8.0682 H              1 <1>                0.0000
     20 H20          0.4283 -13.9556   8.4758 H              1 <1>                0.0000
     21 H21         -2.3536 -10.2774   8.7828 H              1 <1>                0.0000
     22 H22         -3.7418 -10.7259  11.5206 H              1 <1>                0.0000
     23 H23         -5.6336  -9.4821  10.3767 H              1 <1>                0.0000
     24 H24         -4.5806  -9.2579   8.8792 H              1 <1>                0.0000
     25 H25         -4.3891 -11.7756   8.6369 H              1 <1>                0.0000
     26 H26         -5.4422 -11.9997  10.1344 H              1 <1>                0.0000
     27 H27         -1.3862  -9.5549  11.4517 H              1 <1>                0.0000
     28 H28         -0.7737  -9.0907   9.9943 H              1 <1>                0.0000
     29 H29         -2.2355  -8.5175  10.4939 H              1 <1>                0.0000
@<TRIPOS>BOND
    1    1    2 1     
    2    1   14 1     
    3    1   15 1     
    4    1   16 1     
    5    2    3 1     
    6    3    4 ar    
    7    3    8 ar    
    8    4    5 ar    
    9    4   17 1     
   10    5    6 ar    
   11    5   18 1     
   12    6    7 ar    
   13    6    9 1     
   14    7    8 ar    
   15    7   19 1     
   16    8   20 1     
   17    9   10 1     
   18    9   11 1     
   19    9   21 1     
   20   10   27 1     
   21   10   28 1     
   22   10   29 1     
   23   11   12 1     
   24   11   13 1     
   25   11   22 1     
   26   12   13 1     
   27   12   23 1     
   28   12   24 1     
   29   13   25 1     
   30   13   26 1     
@<TRIPOS>SUBSTRUCTURE
      1 ****           1
@<TRIPOS>SET
DONOR_HYDROGENS      STATIC     ATOMS    <user>   **** ""
3 27 28 29
ATOM$RED        STATIC     ATOMS    COLORGROUP SYSTEM
3 27 28 29
@<TRIPOS>COMMENT
> <Gold.Version>
2022.2.0

> <Gold.Id.Protein>
3pbl|protein|mol2

> <Gold.Protein.RotatedTorsions>
[ 1303 1298 1297 1294 ] final   26.25 input  179.99 | X-H torsion
[ 2461 2456 2455 2452 ] final    8.16 input   30.03 | X-H torsion
[ 2515 2510 2509 2506 ] final  -47.14 input  -89.99 | X-H torsion
[ 3721 3712 3711 3710 ] final  -33.36 input -179.91 | X-H torsion
[ 3841 3832 3831 3830 ] final -176.10 input -179.91 | X-H torsion
[ 3767 3762 3761 3758 ] final  -74.50 input  -89.99 | X-H torsion
[ 2472 2467 2466 2463 ] final   90.98 input  -89.97 | X-H torsion

> <Gold.Protein.ActiveResidues>
 VAL82   VAL86   LEU89   PHE106  VAL107  ASP110  VAL111  MET112  CYS114  THR115 
 CYS181  SER182  ILE183  PHE188  VAL189  ILE190  SER192  SER193  SER196  TRP342 
 PHE345  PHE346  HIS349  VAL350  TYR365  THR369  GLY372  TYR373 

> <Gold.Protein.RotatedAtoms>
    3.5920  -10.1514    4.2986 H   0  0  0  0  0  0  0  0  0  0  0  0  # atno 1303 bound_to 1298
    1.1698   -7.9511    7.0386 H   0  0  0  0  0  0  0  0  0  0  0  0  # atno 2461 bound_to 2456
   -5.1144   -4.9236    7.8034 H   0  0  0  0  0  0  0  0  0  0  0  0  # atno 2472 bound_to 2467
    2.7911   -8.2934    4.3545 H   0  0  0  0  0  0  0  0  0  0  0  0  # atno 2515 bound_to 2510
   -2.6220  -17.6623   14.6198 H   0  0  0  0  0  0  0  0  0  0  0  0  # atno 3721 bound_to 3712
   -5.3702  -21.9702   11.0097 H   0  0  0  0  0  0  0  0  0  0  0  0  # atno 3767 bound_to 3762
    2.9227  -20.0061    8.3938 H   0  0  0  0  0  0  0  0  0  0  0  0  # atno 3841 bound_to 3832
    3.8753   -8.5958    3.8912 LP  0  0  0  0  0  0  0  0  0  0  0  0  # atno 4297 bound_to 1298
    4.8951   -9.3738    4.9018 LP  0  0  0  0  0  0  0  0  0  0  0  0  # atno 4298 bound_to 1298
    0.4940   -9.1143    7.9647 LP  0  0  0  0  0  0  0  0  0  0  0  0  # atno 4299 bound_to 2456
    2.0739   -8.7425    8.1447 LP  0  0  0  0  0  0  0  0  0  0  0  0  # atno 4300 bound_to 2456
    2.4128   -9.1530    5.6901 LP  0  0  0  0  0  0  0  0  0  0  0  0  # atno 4301 bound_to 2510
    2.0927   -7.5528    5.6311 LP  0  0  0  0  0  0  0  0  0  0  0  0  # atno 4302 bound_to 2510
   -3.5616  -16.5555   13.9341 LP  0  0  0  0  0  0  0  0  0  0  0  0  # atno 4306 bound_to 3712
   -2.9390  -17.7793   13.0501 LP  0  0  0  0  0  0  0  0  0  0  0  0  # atno 4307 bound_to 3712
    2.4317  -21.1483    9.4088 LP  0  0  0  0  0  0  0  0  0  0  0  0  # atno 4314 bound_to 3832
    1.4215  -19.9469    8.9587 LP  0  0  0  0  0  0  0  0  0  0  0  0  # atno 4315 bound_to 3832
   -3.9855  -22.7125   11.4549 LP  0  0  0  0  0  0  0  0  0  0  0  0  # atno 4318 bound_to 3762
   -4.7719  -23.1921   10.1065 LP  0  0  0  0  0  0  0  0  0  0  0  0  # atno 4319 bound_to 3762
   -3.6386   -5.0104    8.4970 LP  0  0  0  0  0  0  0  0  0  0  0  0  # atno 4320 bound_to 2467
   -4.9640   -5.4595    9.3386 LP  0  0  0  0  0  0  0  0  0  0  0  0  # atno 4321 bound_to 2467

> <Gold.Score>
     Score     S(PLP)   S(hbond)     S(cho)   S(metal)  DE(clash)   DE(tors)     intcor
     54.56     -51.87       1.00       0.00       0.00       0.00       1.07       1.83

> <Gold.PLP.Fitness>
54.5559

> <Gold.PLP.PLP>
-51.8705

> <Gold.PLP.part.hbond>
-1.0000

> <Gold.PLP.part.metal>
0.0000

> <Gold.PLP.part.buried>
-4.9360

> <Gold.PLP.part.nonpolar>
-47.1957

> <Gold.PLP.part.repulsive>
0.2001

> <Gold.PLP.ligand.clash>
0.0000

> <Gold.PLP.ligand.torsion>
1.0734

> <Gold.PLP.Chemscore.Hbond>
1.0000

> <Gold.PLP.Chemscore.CHOScore>
0.0000

> <Gold.PLP.Chemscore.Metal>
0.0000

> <Gold.Chemscore.Hbonds>
donor molecule, donor type, donor heavy atom, donor atom, acceptor molecule, acceptor atom, score
      L1  H    10    29       P1  2398  1.00

> <Gold.PLP.Chemscore.Internal.Correction>
1.8322

