#       Name:                EN300-30341_i001
#       Creating user name   fsindt
#       Creation time:       Tue Feb 28 12:04:29 2023


#       File generated by GOLD software.
#

@<TRIPOS>MOLECULE
EN300-30341_i001|amine_4|mol2|5100|dock4
    29    30     1
SMALL
USER_CHARGES


@<TRIPOS>ATOM
      1 C1          -2.9268 -11.0918  10.0133 C.3            1 <1>                0.0000
      2 O2          -1.5566 -11.2773   9.6528 O.3            1 <1>                0.0000
      3 C3          -0.9134 -12.3424  10.1995 C.ar           1 <1>                0.0000
      4 C4          -1.3555 -12.8800  11.3995 C.ar           1 <1>                0.0000
      5 C5          -0.6999 -13.9626  11.9531 C.ar           1 <1>                0.0000
      6 C6           0.3959 -14.5104  11.3122 C.ar           1 <1>                0.0000
      7 C7           0.8388 -13.9761  10.1163 C.ar           1 <1>                0.0000
      8 C8           0.1829 -12.8973   9.5555 C.ar           1 <1>                0.0000
      9 C9           1.1092 -15.6914  11.9183 C.3            1 <1>                0.0000
     10 N10          0.4658 -16.9341  11.4715 N.4            1 <1>                1.0000
     11 C11          1.0397 -15.6012  13.4441 C.3            1 <1>                0.0000
     12 C12         -0.0198 -16.4462  14.1543 C.3            1 <1>                0.0000
     13 C13          1.4568 -16.8365  14.2446 C.3            1 <1>                0.0000
     14 H14         -3.0037 -10.9581  11.0924 H              1 <1>                0.0000
     15 H15         -3.3189 -10.2087   9.5089 H              1 <1>                0.0000
     16 H16         -3.5030 -11.9673   9.7138 H              1 <1>                0.0000
     17 H17         -2.2113 -12.4524  11.9006 H              1 <1>                0.0000
     18 H18         -1.0435 -14.3814  12.8875 H              1 <1>                0.0000
     19 H19          1.6955 -14.4052   9.6180 H              1 <1>                0.0000
     20 H20          0.5292 -12.4803   8.6214 H              1 <1>                0.0000
     21 H21          2.1521 -15.6880  11.6014 H              1 <1>                0.0000
     22 H22          1.2717 -14.6242  13.8682 H              1 <1>                0.0000
     23 H23         -0.4846 -16.0254  15.0459 H              1 <1>                0.0000
     24 H24         -0.6673 -17.0664  13.5345 H              1 <1>                0.0000
     25 H25          1.7807 -17.7135  13.6842 H              1 <1>                0.0000
     26 H26          1.9635 -16.6725  15.1956 H              1 <1>                0.0000
     27 H27         -0.3438 -16.7114  10.9120 H              1 <1>                0.0000
     28 H28          1.1181 -17.4712  10.9201 H              1 <1>                0.0000
     29 H29          0.1811 -17.4733  12.2754 H              1 <1>                0.0000
@<TRIPOS>BOND
    1    1    2 1     
    2    1   14 1     
    3    1   15 1     
    4    1   16 1     
    5    2    3 1     
    6    3    4 ar    
    7    3    8 ar    
    8    4    5 ar    
    9    4   17 1     
   10    5    6 ar    
   11    5   18 1     
   12    6    7 ar    
   13    6    9 1     
   14    7    8 ar    
   15    7   19 1     
   16    8   20 1     
   17    9   10 1     
   18    9   11 1     
   19    9   21 1     
   20   10   27 1     
   21   10   28 1     
   22   10   29 1     
   23   11   12 1     
   24   11   13 1     
   25   11   22 1     
   26   12   13 1     
   27   12   23 1     
   28   12   24 1     
   29   13   25 1     
   30   13   26 1     
@<TRIPOS>SUBSTRUCTURE
      1 ****           1
@<TRIPOS>SET
DONOR_HYDROGENS      STATIC     ATOMS    <user>   **** ""
3 27 28 29
ATOM$RED        STATIC     ATOMS    COLORGROUP SYSTEM
3 27 28 29
@<TRIPOS>COMMENT
> <Gold.Version>
2022.2.0

> <Gold.Id.Protein>
3pbl|protein|mol2

> <Gold.Protein.RotatedTorsions>
[ 1303 1298 1297 1294 ] final   37.65 input  179.99 | X-H torsion
[ 2461 2456 2455 2452 ] final -130.54 input   30.03 | X-H torsion
[ 2515 2510 2509 2506 ] final   75.50 input  -89.99 | X-H torsion
[ 3721 3712 3711 3710 ] final  -14.18 input -179.91 | X-H torsion
[ 3841 3832 3831 3830 ] final   11.72 input -179.91 | X-H torsion
[ 3767 3762 3761 3758 ] final -176.01 input  -89.99 | X-H torsion
[ 2472 2467 2466 2463 ] final  179.38 input  -89.97 | X-H torsion

> <Gold.Protein.ActiveResidues>
 VAL82   VAL86   LEU89   PHE106  VAL107  ASP110  VAL111  MET112  CYS114  THR115 
 CYS181  SER182  ILE183  PHE188  VAL189  ILE190  SER192  SER193  SER196  TRP342 
 PHE345  PHE346  HIS349  VAL350  TYR365  THR369  GLY372  TYR373 

> <Gold.Protein.RotatedAtoms>
    3.7188  -10.2248    4.4152 H   0  0  0  0  0  0  0  0  0  0  0  0  # atno 1303 bound_to 1298
    0.7010   -9.2340    8.1565 H   0  0  0  0  0  0  0  0  0  0  0  0  # atno 2461 bound_to 2456
   -5.3523   -5.3850    9.0112 H   0  0  0  0  0  0  0  0  0  0  0  0  # atno 2472 bound_to 2467
    2.0833   -7.5768    5.6661 H   0  0  0  0  0  0  0  0  0  0  0  0  # atno 2515 bound_to 2510
   -2.5292  -17.8545   14.4254 H   0  0  0  0  0  0  0  0  0  0  0  0  # atno 3721 bound_to 3712
   -4.1320  -22.4839   11.5893 H   0  0  0  0  0  0  0  0  0  0  0  0  # atno 3767 bound_to 3762
    1.8500  -20.6149    9.6031 H   0  0  0  0  0  0  0  0  0  0  0  0  # atno 3841 bound_to 3832
    3.7315   -8.6998    3.8316 LP  0  0  0  0  0  0  0  0  0  0  0  0  # atno 4297 bound_to 1298
    4.9121   -9.1963    4.8447 LP  0  0  0  0  0  0  0  0  0  0  0  0  # atno 4298 bound_to 1298
    2.1553   -8.5198    7.9507 LP  0  0  0  0  0  0  0  0  0  0  0  0  # atno 4299 bound_to 2456
    0.8813   -8.0546    7.0412 LP  0  0  0  0  0  0  0  0  0  0  0  0  # atno 4300 bound_to 2456
    2.7822   -8.2509    4.3535 LP  0  0  0  0  0  0  0  0  0  0  0  0  # atno 4301 bound_to 2510
    2.4315   -9.1719    5.6555 LP  0  0  0  0  0  0  0  0  0  0  0  0  # atno 4302 bound_to 2510
   -3.5104  -16.5964   14.2465 LP  0  0  0  0  0  0  0  0  0  0  0  0  # atno 4306 bound_to 3712
   -3.0973  -17.5165   12.9622 LP  0  0  0  0  0  0  0  0  0  0  0  0  # atno 4307 bound_to 3712
    1.9719  -19.6345    8.3381 LP  0  0  0  0  0  0  0  0  0  0  0  0  # atno 4314 bound_to 3832
    3.1204  -20.7575    8.6325 LP  0  0  0  0  0  0  0  0  0  0  0  0  # atno 4315 bound_to 3832
   -4.5149  -23.2987   10.2268 LP  0  0  0  0  0  0  0  0  0  0  0  0  # atno 4318 bound_to 3762
   -5.4803  -22.0924   10.7553 LP  0  0  0  0  0  0  0  0  0  0  0  0  # atno 4319 bound_to 3762
   -4.6332   -4.8179    7.6593 LP  0  0  0  0  0  0  0  0  0  0  0  0  # atno 4320 bound_to 2467
   -3.7316   -5.1907    8.9688 LP  0  0  0  0  0  0  0  0  0  0  0  0  # atno 4321 bound_to 2467

> <Gold.Score>
     Score     S(PLP)   S(hbond)     S(cho)   S(metal)  DE(clash)   DE(tors)     intcor
     46.96     -42.53       2.00       0.00       0.00       0.00       1.71       1.84

> <Gold.PLP.Fitness>
46.9557

> <Gold.PLP.PLP>
-42.5316

> <Gold.PLP.part.hbond>
-1.0000

> <Gold.PLP.part.metal>
0.0000

> <Gold.PLP.part.buried>
-4.0187

> <Gold.PLP.part.nonpolar>
-38.6852

> <Gold.PLP.part.repulsive>
0.0000

> <Gold.PLP.ligand.clash>
0.0000

> <Gold.PLP.ligand.torsion>
1.7057

> <Gold.PLP.Chemscore.Hbond>
2.0000

> <Gold.PLP.Chemscore.CHOScore>
0.0000

> <Gold.PLP.Chemscore.Metal>
0.0000

> <Gold.Chemscore.Hbonds>
donor molecule, donor type, donor heavy atom, donor atom, acceptor molecule, acceptor atom, score
      L1  H    10    28       P1  1227  2.00

> <Gold.PLP.Chemscore.Internal.Correction>
1.8355

