#       Name:                EN300-30341_i001
#       Creating user name   fsindt
#       Creation time:       Tue Feb 28 12:04:34 2023


#       File generated by GOLD software.
#

@<TRIPOS>MOLECULE
EN300-30341_i001|amine_4|mol2|5100|dock9
    29    30     1
SMALL
USER_CHARGES


@<TRIPOS>ATOM
      1 C1          -4.5491  -9.9640  10.2122 C.3            1 <1>                0.0000
      2 O2          -3.3222 -10.0520  10.9394 O.3            1 <1>                0.0000
      3 C3          -2.2865 -10.6848  10.3281 C.ar           1 <1>                0.0000
      4 C4          -0.9814 -10.4095  10.7095 C.ar           1 <1>                0.0000
      5 C5           0.0696 -11.0541  10.0864 C.ar           1 <1>                0.0000
      6 C6          -0.1783 -11.9730   9.0835 C.ar           1 <1>                0.0000
      7 C7          -1.4781 -12.2489   8.7012 C.ar           1 <1>                0.0000
      8 C8          -2.5329 -11.6115   9.3255 C.ar           1 <1>                0.0000
      9 C9           0.9701 -12.6748   8.4056 C.3            1 <1>                0.0000
     10 N10          1.0613 -12.2280   7.0091 N.4            1 <1>                1.0000
     11 C11          0.7379 -14.1866   8.4432 C.3            1 <1>                0.0000
     12 C12         -0.3215 -14.7623   7.5013 C.3            1 <1>                0.0000
     13 C13          1.1635 -14.9975   7.2176 C.3            1 <1>                0.0000
     14 H14         -4.9107 -10.9674   9.9870 H              1 <1>                0.0000
     15 H15         -5.2904  -9.4368  10.8126 H              1 <1>                0.0000
     16 H16         -4.3819  -9.4209   9.2820 H              1 <1>                0.0000
     17 H17         -0.7872  -9.6916  11.4926 H              1 <1>                0.0000
     18 H18          1.0859 -10.8398  10.3828 H              1 <1>                0.0000
     19 H19         -1.6692 -12.9665   7.9171 H              1 <1>                0.0000
     20 H20         -3.5480 -11.8272   9.0266 H              1 <1>                0.0000
     21 H21          1.8987 -12.4369   8.9245 H              1 <1>                0.0000
     22 H22          0.8501 -14.6552   9.4210 H              1 <1>                0.0000
     23 H23         -0.9059 -15.6100   7.8591 H              1 <1>                0.0000
     24 H24         -0.8529 -14.0640   6.8547 H              1 <1>                0.0000
     25 H25          1.6090 -14.4539   6.3844 H              1 <1>                0.0000
     26 H26          1.5560 -15.9998   7.3888 H              1 <1>                0.0000
     27 H27          0.6946 -11.2913   6.9310 H              1 <1>                0.0000
     28 H28          2.0266 -12.2368   6.7155 H              1 <1>                0.0000
     29 H29          0.5254 -12.8490   6.4216 H              1 <1>                0.0000
@<TRIPOS>BOND
    1    1    2 1     
    2    1   14 1     
    3    1   15 1     
    4    1   16 1     
    5    2    3 1     
    6    3    4 ar    
    7    3    8 ar    
    8    4    5 ar    
    9    4   17 1     
   10    5    6 ar    
   11    5   18 1     
   12    6    7 ar    
   13    6    9 1     
   14    7    8 ar    
   15    7   19 1     
   16    8   20 1     
   17    9   10 1     
   18    9   11 1     
   19    9   21 1     
   20   10   27 1     
   21   10   28 1     
   22   10   29 1     
   23   11   12 1     
   24   11   13 1     
   25   11   22 1     
   26   12   13 1     
   27   12   23 1     
   28   12   24 1     
   29   13   25 1     
   30   13   26 1     
@<TRIPOS>SUBSTRUCTURE
      1 ****           1
@<TRIPOS>SET
DONOR_HYDROGENS      STATIC     ATOMS    <user>   **** ""
3 27 28 29
ATOM$RED        STATIC     ATOMS    COLORGROUP SYSTEM
3 27 28 29
@<TRIPOS>COMMENT
> <Gold.Version>
2022.2.0

> <Gold.Id.Protein>
3pbl|protein|mol2

> <Gold.Protein.RotatedTorsions>
[ 1303 1298 1297 1294 ] final   10.33 input  179.99 | X-H torsion
[ 2461 2456 2455 2452 ] final  141.19 input   30.03 | X-H torsion
[ 2515 2510 2509 2506 ] final  -39.83 input  -89.99 | X-H torsion
[ 3721 3712 3711 3710 ] final  136.62 input -179.91 | X-H torsion
[ 3841 3832 3831 3830 ] final   42.15 input -179.91 | X-H torsion
[ 3767 3762 3761 3758 ] final  -93.58 input  -89.99 | X-H torsion
[ 2472 2467 2466 2463 ] final   15.70 input  -89.97 | X-H torsion

> <Gold.Protein.ActiveResidues>
 VAL82   VAL86   LEU89   PHE106  VAL107  ASP110  VAL111  MET112  CYS114  THR115 
 CYS181  SER182  ILE183  PHE188  VAL189  ILE190  SER192  SER193  SER196  TRP342 
 PHE345  PHE346  HIS349  VAL350  TYR365  THR369  GLY372  TYR373 

> <Gold.Protein.RotatedAtoms>
    3.4508   -9.9983    4.1411 H   0  0  0  0  0  0  0  0  0  0  0  0  # atno 1303 bound_to 1298
    1.9649   -8.8903    8.2544 H   0  0  0  0  0  0  0  0  0  0  0  0  # atno 2461 bound_to 2456
   -3.9698   -4.8280    7.8876 H   0  0  0  0  0  0  0  0  0  0  0  0  # atno 2472 bound_to 2467
    2.7647   -8.1762    4.3573 H   0  0  0  0  0  0  0  0  0  0  0  0  # atno 2515 bound_to 2510
   -3.1250  -17.0206   13.0988 H   0  0  0  0  0  0  0  0  0  0  0  0  # atno 3721 bound_to 3712
   -5.1856  -21.9156   11.2557 H   0  0  0  0  0  0  0  0  0  0  0  0  # atno 3767 bound_to 3762
    2.2269  -20.8687    9.5970 H   0  0  0  0  0  0  0  0  0  0  0  0  # atno 3841 bound_to 3832
    4.0911   -8.5024    4.0050 LP  0  0  0  0  0  0  0  0  0  0  0  0  # atno 4297 bound_to 1298
    4.8205   -9.6204    4.9456 LP  0  0  0  0  0  0  0  0  0  0  0  0  # atno 4298 bound_to 1298
    1.3774   -7.9197    7.0796 LP  0  0  0  0  0  0  0  0  0  0  0  0  # atno 4299 bound_to 2456
    0.3957   -8.9982    7.8143 LP  0  0  0  0  0  0  0  0  0  0  0  0  # atno 4300 bound_to 2456
    2.4643   -9.2007    5.5925 LP  0  0  0  0  0  0  0  0  0  0  0  0  # atno 4301 bound_to 2510
    2.0676   -7.6223    5.7259 LP  0  0  0  0  0  0  0  0  0  0  0  0  # atno 4302 bound_to 2510
   -2.6071  -18.2028   14.0538 LP  0  0  0  0  0  0  0  0  0  0  0  0  # atno 4306 bound_to 3712
   -3.3128  -16.8730   14.6865 LP  0  0  0  0  0  0  0  0  0  0  0  0  # atno 4307 bound_to 3712
    1.5958  -19.7308    8.6573 LP  0  0  0  0  0  0  0  0  0  0  0  0  # atno 4314 bound_to 3832
    3.0611  -20.3680    8.3204 LP  0  0  0  0  0  0  0  0  0  0  0  0  # atno 4315 bound_to 3832
   -3.9123  -22.9381   11.2517 LP  0  0  0  0  0  0  0  0  0  0  0  0  # atno 4318 bound_to 3762
   -5.0297  -23.0210   10.0638 LP  0  0  0  0  0  0  0  0  0  0  0  0  # atno 4319 bound_to 3762
   -4.2511   -5.4000    9.3910 LP  0  0  0  0  0  0  0  0  0  0  0  0  # atno 4320 bound_to 2467
   -5.4959   -5.1655    8.3604 LP  0  0  0  0  0  0  0  0  0  0  0  0  # atno 4321 bound_to 2467

> <Gold.Score>
     Score     S(PLP)   S(hbond)     S(cho)   S(metal)  DE(clash)   DE(tors)     intcor
     46.91     -47.20       0.00       0.00       0.00       0.00       1.06       1.83

> <Gold.PLP.Fitness>
46.9075

> <Gold.PLP.PLP>
-47.1956

> <Gold.PLP.part.hbond>
0.0000

> <Gold.PLP.part.metal>
0.0000

> <Gold.PLP.part.buried>
-3.5918

> <Gold.PLP.part.nonpolar>
-43.7530

> <Gold.PLP.part.repulsive>
0.0849

> <Gold.PLP.ligand.clash>
0.0000

> <Gold.PLP.ligand.torsion>
1.0601

> <Gold.PLP.Chemscore.Hbond>
0.0000

> <Gold.PLP.Chemscore.CHOScore>
0.0000

> <Gold.PLP.Chemscore.Metal>
0.0000

> <Gold.PLP.Chemscore.Internal.Correction>
1.8322

