#       Name:                EN300-30341_i001
#       Creating user name   fsindt
#       Creation time:       Tue Feb 28 12:04:44 2023


#       File generated by GOLD software.
#

@<TRIPOS>MOLECULE
EN300-30341_i001|amine_4|mol2|5100|dock20
    29    30     1
SMALL
USER_CHARGES


@<TRIPOS>ATOM
      1 C1          -0.0617 -12.5342   8.8890 C.3            1 <1>                0.0000
      2 O2          -0.6909 -13.0931  10.0439 O.3            1 <1>                0.0000
      3 C3           0.0433 -13.9629  10.7864 C.ar           1 <1>                0.0000
      4 C4          -0.4433 -14.4216  12.0019 C.ar           1 <1>                0.0000
      5 C5           0.3049 -15.3056  12.7548 C.ar           1 <1>                0.0000
      6 C6           1.5378 -15.7333  12.2980 C.ar           1 <1>                0.0000
      7 C7           2.0253 -15.2772  11.0871 C.ar           1 <1>                0.0000
      8 C8           1.2781 -14.3979  10.3275 C.ar           1 <1>                0.0000
      9 C9           2.3519 -16.6978  13.1214 C.3            1 <1>                0.0000
     10 N10          2.5455 -17.9434  12.3671 N.4            1 <1>                1.0000
     11 C11          1.6152 -17.0017  14.4274 C.3            1 <1>                0.0000
     12 C12          0.3946 -17.9212  14.3526 C.3            1 <1>                0.0000
     13 C13          1.6989 -18.4298  14.9700 C.3            1 <1>                0.0000
     14 H14          0.2220 -13.3352   8.2063 H              1 <1>                0.0000
     15 H15         -0.7553 -11.8587   8.3884 H              1 <1>                0.0000
     16 H16          0.8284 -11.9824   9.1914 H              1 <1>                0.0000
     17 H17         -1.4062 -14.0876  12.3593 H              1 <1>                0.0000
     18 H18         -0.0734 -15.6629  13.7013 H              1 <1>                0.0000
     19 H19          2.9890 -15.6121  10.7328 H              1 <1>                0.0000
     20 H20          1.6593 -14.0419   9.3819 H              1 <1>                0.0000
     21 H21          3.3221 -16.2547  13.3462 H              1 <1>                0.0000
     22 H22          1.5888 -16.1882  15.1525 H              1 <1>                0.0000
     23 H23         -0.4346 -17.7130  15.0287 H              1 <1>                0.0000
     24 H24          0.1165 -18.3097  13.3729 H              1 <1>                0.0000
     25 H25          2.2788 -19.1528  14.3963 H              1 <1>                0.0000
     26 H26          1.7277 -18.5561  16.0522 H              1 <1>                0.0000
     27 H27          1.9660 -18.6691  12.7616 H              1 <1>                0.0000
     28 H28          2.2894 -17.7957  11.4024 H              1 <1>                0.0000
     29 H29          3.5142 -18.2210  12.4192 H              1 <1>                0.0000
@<TRIPOS>BOND
    1    1    2 1     
    2    1   14 1     
    3    1   15 1     
    4    1   16 1     
    5    2    3 1     
    6    3    4 ar    
    7    3    8 ar    
    8    4    5 ar    
    9    4   17 1     
   10    5    6 ar    
   11    5   18 1     
   12    6    7 ar    
   13    6    9 1     
   14    7    8 ar    
   15    7   19 1     
   16    8   20 1     
   17    9   10 1     
   18    9   11 1     
   19    9   21 1     
   20   10   27 1     
   21   10   28 1     
   22   10   29 1     
   23   11   12 1     
   24   11   13 1     
   25   11   22 1     
   26   12   13 1     
   27   12   23 1     
   28   12   24 1     
   29   13   25 1     
   30   13   26 1     
@<TRIPOS>SUBSTRUCTURE
      1 ****           1
@<TRIPOS>SET
DONOR_HYDROGENS      STATIC     ATOMS    <user>   **** ""
3 27 28 29
ATOM$RED        STATIC     ATOMS    COLORGROUP SYSTEM
3 27 28 29
@<TRIPOS>COMMENT
> <Gold.Version>
2022.2.0

> <Gold.Id.Protein>
3pbl|protein|mol2

> <Gold.Protein.RotatedTorsions>
[ 1303 1298 1297 1294 ] final  -10.95 input  179.99 | X-H torsion
[ 2461 2456 2455 2452 ] final   17.76 input   30.03 | X-H torsion
[ 2515 2510 2509 2506 ] final  -18.93 input  -89.99 | X-H torsion
[ 3721 3712 3711 3710 ] final  137.07 input -179.91 | X-H torsion
[ 3841 3832 3831 3830 ] final  109.72 input -179.91 | X-H torsion
[ 3767 3762 3761 3758 ] final -151.03 input  -89.99 | X-H torsion
[ 2472 2467 2466 2463 ] final  135.59 input  -89.97 | X-H torsion

> <Gold.Protein.ActiveResidues>
 VAL82   VAL86   LEU89   PHE106  VAL107  ASP110  VAL111  MET112  CYS114  THR115 
 CYS181  SER182  ILE183  PHE188  VAL189  ILE190  SER192  SER193  SER196  TRP342 
 PHE345  PHE346  HIS349  VAL350  TYR365  THR369  GLY372  TYR373 

> <Gold.Protein.RotatedAtoms>
    3.3437   -9.7216    3.9593 H   0  0  0  0  0  0  0  0  0  0  0  0  # atno 1303 bound_to 1298
    1.3229   -7.9244    7.0654 H   0  0  0  0  0  0  0  0  0  0  0  0  # atno 2461 bound_to 2456
   -5.4956   -5.1656    8.3585 H   0  0  0  0  0  0  0  0  0  0  0  0  # atno 2472 bound_to 2467
    2.6611   -7.8615    4.4418 H   0  0  0  0  0  0  0  0  0  0  0  0  # atno 2515 bound_to 2510
   -3.1279  -17.0150   13.1015 H   0  0  0  0  0  0  0  0  0  0  0  0  # atno 3721 bound_to 3712
   -4.4214  -22.2028   11.6496 H   0  0  0  0  0  0  0  0  0  0  0  0  # atno 3767 bound_to 3762
    3.0194  -20.8096    9.0534 H   0  0  0  0  0  0  0  0  0  0  0  0  # atno 3841 bound_to 3832
    4.3801   -8.4826    4.1980 LP  0  0  0  0  0  0  0  0  0  0  0  0  # atno 4297 bound_to 1298
    4.6388   -9.9170    4.9344 LP  0  0  0  0  0  0  0  0  0  0  0  0  # atno 4298 bound_to 1298
    0.4176   -9.0311    7.8548 LP  0  0  0  0  0  0  0  0  0  0  0  0  # atno 4299 bound_to 2456
    1.9973   -8.8525    8.2278 LP  0  0  0  0  0  0  0  0  0  0  0  0  # atno 4300 bound_to 2456
    2.6057   -9.2577    5.2863 LP  0  0  0  0  0  0  0  0  0  0  0  0  # atno 4301 bound_to 2510
    2.0298   -7.8801    5.9474 LP  0  0  0  0  0  0  0  0  0  0  0  0  # atno 4302 bound_to 2510
   -2.6070  -18.2040   14.0463 LP  0  0  0  0  0  0  0  0  0  0  0  0  # atno 4306 bound_to 3712
   -3.3094  -16.8782   14.6909 LP  0  0  0  0  0  0  0  0  0  0  0  0  # atno 4307 bound_to 3712
    1.4863  -20.4853    9.4006 LP  0  0  0  0  0  0  0  0  0  0  0  0  # atno 4314 bound_to 3832
    2.2552  -19.6817    8.2050 LP  0  0  0  0  0  0  0  0  0  0  0  0  # atno 4315 bound_to 3832
   -4.2044  -23.3313   10.4893 LP  0  0  0  0  0  0  0  0  0  0  0  0  # atno 4318 bound_to 3762
   -5.5015  -22.3408   10.4325 LP  0  0  0  0  0  0  0  0  0  0  0  0  # atno 4319 bound_to 3762
   -3.9686   -4.8276    7.8890 LP  0  0  0  0  0  0  0  0  0  0  0  0  # atno 4320 bound_to 2467
   -4.2529   -5.4004    9.3916 LP  0  0  0  0  0  0  0  0  0  0  0  0  # atno 4321 bound_to 2467

> <Gold.Score>
     Score     S(PLP)   S(hbond)     S(cho)   S(metal)  DE(clash)   DE(tors)     intcor
     41.71     -37.85       2.00       0.00       0.00       2.62       0.68       1.83

> <Gold.PLP.Fitness>
41.7075

> <Gold.PLP.PLP>
-37.8481

> <Gold.PLP.part.hbond>
-1.0000

> <Gold.PLP.part.metal>
0.0000

> <Gold.PLP.part.buried>
-0.5507

> <Gold.PLP.part.nonpolar>
-37.1374

> <Gold.PLP.part.repulsive>
0.0000

> <Gold.PLP.ligand.clash>
2.6177

> <Gold.PLP.ligand.torsion>
0.6775

> <Gold.PLP.Chemscore.Hbond>
2.0000

> <Gold.PLP.Chemscore.CHOScore>
0.0000

> <Gold.PLP.Chemscore.Metal>
0.0000

> <Gold.Chemscore.Hbonds>
donor molecule, donor type, donor heavy atom, donor atom, acceptor molecule, acceptor atom, score
      L1  H    10    28       P1  1227  2.00

> <Gold.PLP.Chemscore.Internal.Correction>
1.8322

