#       Name:                EN300-30341_i001
#       Creating user name   fsindt
#       Creation time:       Tue Feb 28 12:04:32 2023


#       File generated by GOLD software.
#

@<TRIPOS>MOLECULE
EN300-30341_i001|amine_4|mol2|5100|dock7
    29    30     1
SMALL
USER_CHARGES


@<TRIPOS>ATOM
      1 C1          -1.1857 -10.3398  10.5596 C.3            1 <1>                0.0000
      2 O2          -0.9122 -11.4404   9.6902 O.3            1 <1>                0.0000
      3 C3          -0.6007 -12.6267  10.2756 C.ar           1 <1>                0.0000
      4 C4          -1.0156 -12.8916  11.5726 C.ar           1 <1>                0.0000
      5 C5          -0.6976 -14.0981  12.1654 C.ar           1 <1>                0.0000
      6 C6           0.0336 -15.0413  11.4672 C.ar           1 <1>                0.0000
      7 C7           0.4488 -14.7795  10.1746 C.ar           1 <1>                0.0000
      8 C8           0.1279 -13.5769   9.5751 C.ar           1 <1>                0.0000
      9 C9           0.3791 -16.3567  12.1163 C.3            1 <1>                0.0000
     10 N10         -0.8564 -17.0820  12.4409 N.4            1 <1>                1.0000
     11 C11          1.1717 -16.0997  13.3995 C.3            1 <1>                0.0000
     12 C12          1.3340 -17.2668  14.3754 C.3            1 <1>                0.0000
     13 C13          2.5276 -16.7936  13.5434 C.3            1 <1>                0.0000
     14 H14         -0.3113 -10.1401  11.1789 H              1 <1>                0.0000
     15 H15         -1.4194  -9.4566   9.9652 H              1 <1>                0.0000
     16 H16         -2.0350 -10.5834  11.1979 H              1 <1>                0.0000
     17 H17         -1.5865 -12.1551  12.1185 H              1 <1>                0.0000
     18 H18         -1.0201 -14.3047  13.1752 H              1 <1>                0.0000
     19 H19          1.0204 -15.5175   9.6315 H              1 <1>                0.0000
     20 H20          0.4524 -13.3728   8.5654 H              1 <1>                0.0000
     21 H21          0.9811 -16.9532  11.4308 H              1 <1>                0.0000
     22 H22          1.0700 -15.1003  13.8226 H              1 <1>                0.0000
     23 H23          1.3396 -17.0353  15.4405 H              1 <1>                0.0000
     24 H24          0.8762 -18.2178  14.1032 H              1 <1>                0.0000
     25 H25          2.8550 -17.4333  12.7237 H              1 <1>                0.0000
     26 H26          3.3184 -16.2507  14.0610 H              1 <1>                0.0000
     27 H27         -1.5809 -16.4219  12.6808 H              1 <1>                0.0000
     28 H28         -1.1475 -17.6251  11.6419 H              1 <1>                0.0000
     29 H29         -0.6896 -17.6973  13.2230 H              1 <1>                0.0000
@<TRIPOS>BOND
    1    1    2 1     
    2    1   14 1     
    3    1   15 1     
    4    1   16 1     
    5    2    3 1     
    6    3    4 ar    
    7    3    8 ar    
    8    4    5 ar    
    9    4   17 1     
   10    5    6 ar    
   11    5   18 1     
   12    6    7 ar    
   13    6    9 1     
   14    7    8 ar    
   15    7   19 1     
   16    8   20 1     
   17    9   10 1     
   18    9   11 1     
   19    9   21 1     
   20   10   27 1     
   21   10   28 1     
   22   10   29 1     
   23   11   12 1     
   24   11   13 1     
   25   11   22 1     
   26   12   13 1     
   27   12   23 1     
   28   12   24 1     
   29   13   25 1     
   30   13   26 1     
@<TRIPOS>SUBSTRUCTURE
      1 ****           1
@<TRIPOS>SET
DONOR_HYDROGENS      STATIC     ATOMS    <user>   **** ""
3 27 28 29
ATOM$RED        STATIC     ATOMS    COLORGROUP SYSTEM
3 27 28 29
@<TRIPOS>COMMENT
> <Gold.Version>
2022.2.0

> <Gold.Id.Protein>
3pbl|protein|mol2

> <Gold.Protein.RotatedTorsions>
[ 1303 1298 1297 1294 ] final   52.25 input  179.99 | X-H torsion
[ 2461 2456 2455 2452 ] final  -37.78 input   30.03 | X-H torsion
[ 2515 2510 2509 2506 ] final   71.51 input  -89.99 | X-H torsion
[ 3721 3712 3711 3710 ] final  -92.68 input -179.91 | X-H torsion
[ 3841 3832 3831 3830 ] final   37.72 input -179.91 | X-H torsion
[ 3767 3762 3761 3758 ] final  142.81 input  -89.99 | X-H torsion
[ 2472 2467 2466 2463 ] final  107.66 input  -89.97 | X-H torsion

> <Gold.Protein.ActiveResidues>
 VAL82   VAL86   LEU89   PHE106  VAL107  ASP110  VAL111  MET112  CYS114  THR115 
 CYS181  SER182  ILE183  PHE188  VAL189  ILE190  SER192  SER193  SER196  TRP342 
 PHE345  PHE346  HIS349  VAL350  TYR365  THR369  GLY372  TYR373 

> <Gold.Protein.RotatedAtoms>
    3.9035  -10.2696    4.5609 H   0  0  0  0  0  0  0  0  0  0  0  0  # atno 1303 bound_to 1298
    0.5372   -8.3039    7.1702 H   0  0  0  0  0  0  0  0  0  0  0  0  # atno 2461 bound_to 2456
   -5.3111   -5.0067    7.9741 H   0  0  0  0  0  0  0  0  0  0  0  0  # atno 2472 bound_to 2467
    2.0982   -7.5416    5.6127 H   0  0  0  0  0  0  0  0  0  0  0  0  # atno 2515 bound_to 2510
   -3.0442  -16.9179   14.6679 H   0  0  0  0  0  0  0  0  0  0  0  0  # atno 3721 bound_to 3712
   -3.9076  -22.9773   11.2072 H   0  0  0  0  0  0  0  0  0  0  0  0  # atno 3767 bound_to 3762
    2.1673  -20.8408    9.6089 H   0  0  0  0  0  0  0  0  0  0  0  0  # atno 3841 bound_to 3832
    3.5705   -8.8713    3.7863 LP  0  0  0  0  0  0  0  0  0  0  0  0  # atno 4297 bound_to 1298
    4.8883   -8.9801    4.7443 LP  0  0  0  0  0  0  0  0  0  0  0  0  # atno 4298 bound_to 1298
    1.0983   -9.2868    8.3478 LP  0  0  0  0  0  0  0  0  0  0  0  0  # atno 4299 bound_to 2456
    2.1020   -8.2174    7.6299 LP  0  0  0  0  0  0  0  0  0  0  0  0  # atno 4300 bound_to 2456
    2.7953   -8.3151    4.3552 LP  0  0  0  0  0  0  0  0  0  0  0  0  # atno 4301 bound_to 2510
    2.4034   -9.1428    5.7072 LP  0  0  0  0  0  0  0  0  0  0  0  0  # atno 4302 bound_to 2510
   -3.3943  -16.9766   13.1020 LP  0  0  0  0  0  0  0  0  0  0  0  0  # atno 4306 bound_to 3712
   -2.6188  -18.2176   13.8267 LP  0  0  0  0  0  0  0  0  0  0  0  0  # atno 4307 bound_to 3712
    1.6412  -19.7041    8.6052 LP  0  0  0  0  0  0  0  0  0  0  0  0  # atno 4314 bound_to 3832
    3.0846  -20.4269    8.3586 LP  0  0  0  0  0  0  0  0  0  0  0  0  # atno 4315 bound_to 3832
   -5.0752  -22.9832   10.0655 LP  0  0  0  0  0  0  0  0  0  0  0  0  # atno 4318 bound_to 3762
   -5.1442  -21.9147   11.2984 LP  0  0  0  0  0  0  0  0  0  0  0  0  # atno 4319 bound_to 3762
   -3.7028   -4.9266    8.2449 LP  0  0  0  0  0  0  0  0  0  0  0  0  # atno 4320 bound_to 2467
   -4.7031   -5.4602    9.4201 LP  0  0  0  0  0  0  0  0  0  0  0  0  # atno 4321 bound_to 2467

> <Gold.Score>
     Score     S(PLP)   S(hbond)     S(cho)   S(metal)  DE(clash)   DE(tors)     intcor
     41.38     -41.87       0.01       0.00       0.00       0.00       1.17       1.83

> <Gold.PLP.Fitness>
41.3793

> <Gold.PLP.PLP>
-41.8700

> <Gold.PLP.part.hbond>
-1.0000

> <Gold.PLP.part.metal>
0.0000

> <Gold.PLP.part.buried>
-4.3439

> <Gold.PLP.part.nonpolar>
-37.1211

> <Gold.PLP.part.repulsive>
0.0000

> <Gold.PLP.ligand.clash>
0.0000

> <Gold.PLP.ligand.torsion>
1.1737

> <Gold.PLP.Chemscore.Hbond>
0.0081

> <Gold.PLP.Chemscore.CHOScore>
0.0000

> <Gold.PLP.Chemscore.Metal>
0.0000

> <Gold.Chemscore.Hbonds>
donor molecule, donor type, donor heavy atom, donor atom, acceptor molecule, acceptor atom, score
      L1  H    10    27       P1  3712  0.01

> <Gold.PLP.Chemscore.Internal.Correction>
1.8322

