#       Name:                EN300-30341_i001
#       Creating user name   fsindt
#       Creation time:       Tue Feb 28 12:04:39 2023


#       File generated by GOLD software.
#

@<TRIPOS>MOLECULE
EN300-30341_i001|amine_4|mol2|5100|dock15
    29    30     1
SMALL
USER_CHARGES


@<TRIPOS>ATOM
      1 C1           0.6066 -15.9906  13.7717 C.3            1 <1>                0.0000
      2 O2           0.9061 -16.0420  12.3754 O.3            1 <1>                0.0000
      3 C3           0.4793 -15.0003  11.6140 C.ar           1 <1>                0.0000
      4 C4           1.1541 -14.6697  10.4479 C.ar           1 <1>                0.0000
      5 C5           0.7182 -13.6104   9.6757 C.ar           1 <1>                0.0000
      6 C6          -0.3896 -12.8799  10.0642 C.ar           1 <1>                0.0000
      7 C7          -1.0636 -13.2071  11.2263 C.ar           1 <1>                0.0000
      8 C8          -0.6354 -14.2695  11.9987 C.ar           1 <1>                0.0000
      9 C9          -0.8629 -11.7248   9.2200 C.3            1 <1>                0.0000
     10 N10          0.2675 -11.1821   8.4547 N.4            1 <1>                1.0000
     11 C11         -1.4371 -10.6331  10.1252 C.3            1 <1>                0.0000
     12 C12         -2.4454  -9.6617   9.5081 C.3            1 <1>                0.0000
     13 C13         -2.9182 -10.7297  10.4965 C.3            1 <1>                0.0000
     14 H14         -0.4738 -15.9499  13.9103 H              1 <1>                0.0000
     15 H15          1.0025 -16.8804  14.2611 H              1 <1>                0.0000
     16 H16          1.0627 -15.1023  14.2086 H              1 <1>                0.0000
     17 H17          2.0196 -15.2398  10.1441 H              1 <1>                0.0000
     18 H18          1.2434 -13.3523   8.7679 H              1 <1>                0.0000
     19 H19         -1.9281 -12.6346  11.5281 H              1 <1>                0.0000
     20 H20         -1.1621 -14.5247  12.9063 H              1 <1>                0.0000
     21 H21         -1.6350 -12.0698   8.5323 H              1 <1>                0.0000
     22 H22         -0.7539 -10.2388  10.8775 H              1 <1>                0.0000
     23 H23         -2.4259  -8.6285   9.8549 H              1 <1>                0.0000
     24 H24         -2.6997  -9.8005   8.4574 H              1 <1>                0.0000
     25 H25         -3.4835 -11.5712  10.0958 H              1 <1>                0.0000
     26 H26         -3.2097 -10.3992  11.4933 H              1 <1>                0.0000
     27 H27          0.1819 -11.4569   7.4877 H              1 <1>                0.0000
     28 H28          0.2651 -10.1752   8.5197 H              1 <1>                0.0000
     29 H29          1.1319 -11.5414   8.8312 H              1 <1>                0.0000
@<TRIPOS>BOND
    1    1    2 1     
    2    1   14 1     
    3    1   15 1     
    4    1   16 1     
    5    2    3 1     
    6    3    4 ar    
    7    3    8 ar    
    8    4    5 ar    
    9    4   17 1     
   10    5    6 ar    
   11    5   18 1     
   12    6    7 ar    
   13    6    9 1     
   14    7    8 ar    
   15    7   19 1     
   16    8   20 1     
   17    9   10 1     
   18    9   11 1     
   19    9   21 1     
   20   10   27 1     
   21   10   28 1     
   22   10   29 1     
   23   11   12 1     
   24   11   13 1     
   25   11   22 1     
   26   12   13 1     
   27   12   23 1     
   28   12   24 1     
   29   13   25 1     
   30   13   26 1     
@<TRIPOS>SUBSTRUCTURE
      1 ****           1
@<TRIPOS>SET
DONOR_HYDROGENS      STATIC     ATOMS    <user>   **** ""
3 27 28 29
ATOM$RED        STATIC     ATOMS    COLORGROUP SYSTEM
3 27 28 29
@<TRIPOS>COMMENT
> <Gold.Version>
2022.2.0

> <Gold.Id.Protein>
3pbl|protein|mol2

> <Gold.Protein.RotatedTorsions>
[ 1303 1298 1297 1294 ] final   99.91 input  179.99 | X-H torsion
[ 2461 2456 2455 2452 ] final   46.86 input   30.03 | X-H torsion
[ 2515 2510 2509 2506 ] final -170.23 input  -89.99 | X-H torsion
[ 3721 3712 3711 3710 ] final -176.37 input -179.91 | X-H torsion
[ 3841 3832 3831 3830 ] final  -88.19 input -179.91 | X-H torsion
[ 3767 3762 3761 3758 ] final  173.56 input  -89.99 | X-H torsion
[ 2472 2467 2466 2463 ] final   86.18 input  -89.97 | X-H torsion

> <Gold.Protein.ActiveResidues>
 VAL82   VAL86   LEU89   PHE106  VAL107  ASP110  VAL111  MET112  CYS114  THR115 
 CYS181  SER182  ILE183  PHE188  VAL189  ILE190  SER192  SER193  SER196  TRP342 
 PHE345  PHE346  HIS349  VAL350  TYR365  THR369  GLY372  TYR373 

> <Gold.Protein.RotatedAtoms>
    4.5367  -10.0235    4.9055 H   0  0  0  0  0  0  0  0  0  0  0  0  # atno 1303 bound_to 1298
    1.7570   -7.9599    7.2523 H   0  0  0  0  0  0  0  0  0  0  0  0  # atno 2461 bound_to 2456
   -5.0484   -4.9026    7.7654 H   0  0  0  0  0  0  0  0  0  0  0  0  # atno 2472 bound_to 2467
    2.3913   -9.1285    5.7289 H   0  0  0  0  0  0  0  0  0  0  0  0  # atno 2515 bound_to 2510
   -3.3286  -16.5878   13.5974 H   0  0  0  0  0  0  0  0  0  0  0  0  # atno 3721 bound_to 3712
   -4.0405  -22.6123   11.5219 H   0  0  0  0  0  0  0  0  0  0  0  0  # atno 3767 bound_to 3762
    1.8331  -19.6224    8.7249 H   0  0  0  0  0  0  0  0  0  0  0  0  # atno 3841 bound_to 3832
    3.3299   -9.5858    3.8964 LP  0  0  0  0  0  0  0  0  0  0  0  0  # atno 4297 bound_to 1298
    4.4954   -8.5118    4.2895 LP  0  0  0  0  0  0  0  0  0  0  0  0  # atno 4298 bound_to 1298
    0.3328   -8.7164    7.5108 LP  0  0  0  0  0  0  0  0  0  0  0  0  # atno 4299 bound_to 2456
    1.6482   -9.1317    8.3848 LP  0  0  0  0  0  0  0  0  0  0  0  0  # atno 4300 bound_to 2456
    2.1049   -7.5272    5.5889 LP  0  0  0  0  0  0  0  0  0  0  0  0  # atno 4301 bound_to 2510
    2.8005   -8.3431    4.3572 LP  0  0  0  0  0  0  0  0  0  0  0  0  # atno 4302 bound_to 2510
   -2.7539  -18.0607   13.3179 LP  0  0  0  0  0  0  0  0  0  0  0  0  # atno 4306 bound_to 3712
   -2.9309  -17.5146   14.8467 LP  0  0  0  0  0  0  0  0  0  0  0  0  # atno 4307 bound_to 3712
    3.1167  -20.5439    8.4435 LP  0  0  0  0  0  0  0  0  0  0  0  0  # atno 4314 bound_to 3832
    1.9951  -20.9946    9.5415 LP  0  0  0  0  0  0  0  0  0  0  0  0  # atno 4315 bound_to 3832
   -4.6590  -23.2466   10.1500 LP  0  0  0  0  0  0  0  0  0  0  0  0  # atno 4318 bound_to 3762
   -5.4276  -22.0161   10.8994 LP  0  0  0  0  0  0  0  0  0  0  0  0  # atno 4319 bound_to 3762
   -3.6346   -5.0368    8.5714 LP  0  0  0  0  0  0  0  0  0  0  0  0  # atno 4320 bound_to 2467
   -5.0340   -5.4541    9.3023 LP  0  0  0  0  0  0  0  0  0  0  0  0  # atno 4321 bound_to 2467

> <Gold.Score>
     Score     S(PLP)   S(hbond)     S(cho)   S(metal)  DE(clash)   DE(tors)     intcor
     46.86     -45.54       0.94       0.00       0.00       0.00       1.67       1.83

> <Gold.PLP.Fitness>
46.8648

> <Gold.PLP.PLP>
-45.5372

> <Gold.PLP.part.hbond>
-1.0000

> <Gold.PLP.part.metal>
0.0000

> <Gold.PLP.part.buried>
-4.0364

> <Gold.PLP.part.nonpolar>
-41.8196

> <Gold.PLP.part.repulsive>
0.0742

> <Gold.PLP.ligand.clash>
0.0000

> <Gold.PLP.ligand.torsion>
1.6683

> <Gold.PLP.Chemscore.Hbond>
0.9440

> <Gold.PLP.Chemscore.CHOScore>
0.0000

> <Gold.PLP.Chemscore.Metal>
0.0000

> <Gold.Chemscore.Hbonds>
donor molecule, donor type, donor heavy atom, donor atom, acceptor molecule, acceptor atom, score
      L1  H    10    28       P1  2456  0.94

> <Gold.PLP.Chemscore.Internal.Correction>
1.8322

