#       Name:                EN300-30341_i001
#       Creating user name   fsindt
#       Creation time:       Tue Feb 28 12:04:31 2023


#       File generated by GOLD software.
#

@<TRIPOS>MOLECULE
EN300-30341_i001|amine_4|mol2|5100|dock6
    29    30     1
SMALL
USER_CHARGES


@<TRIPOS>ATOM
      1 C1          -0.4018 -24.8947  15.0592 C.3            1 <1>                0.0000
      2 O2          -0.8867 -24.3277  13.8404 O.3            1 <1>                0.0000
      3 C3          -0.3855 -23.1167  13.4809 C.ar           1 <1>                0.0000
      4 C4           0.9021 -22.7592  13.8533 C.ar           1 <1>                0.0000
      5 C5           1.4092 -21.5277  13.4866 C.ar           1 <1>                0.0000
      6 C6           0.6345 -20.6516  12.7490 C.ar           1 <1>                0.0000
      7 C7          -0.6493 -21.0053  12.3769 C.ar           1 <1>                0.0000
      8 C8          -1.1587 -22.2383  12.7358 C.ar           1 <1>                0.0000
      9 C9           1.1902 -19.3088  12.3503 C.3            1 <1>                0.0000
     10 N10          2.2935 -19.4982  11.3990 N.4            1 <1>                1.0000
     11 C11          1.7075 -18.5814  13.5930 C.3            1 <1>                0.0000
     12 C12          2.5948 -17.3541  13.3751 C.3            1 <1>                0.0000
     13 C13          1.1580 -17.1811  13.8720 C.3            1 <1>                0.0000
     14 H14         -0.6313 -24.2249  15.8880 H              1 <1>                0.0000
     15 H15         -0.8815 -25.8588  15.2275 H              1 <1>                0.0000
     16 H16          0.6773 -25.0326  14.9916 H              1 <1>                0.0000
     17 H17          1.5075 -23.4431  14.4298 H              1 <1>                0.0000
     18 H18          2.4115 -21.2488  13.7766 H              1 <1>                0.0000
     19 H19         -1.2527 -20.3190  11.8014 H              1 <1>                0.0000
     20 H20         -2.1616 -22.5141  12.4450 H              1 <1>                0.0000
     21 H21          0.4050 -18.7150  11.8824 H              1 <1>                0.0000
     22 H22          1.9282 -19.2161  14.4513 H              1 <1>                0.0000
     23 H23          3.3988 -17.1810  14.0904 H              1 <1>                0.0000
     24 H24          2.8098 -17.0648  12.3465 H              1 <1>                0.0000
     25 H25          0.4279 -16.7779  13.1701 H              1 <1>                0.0000
     26 H26          1.0169 -16.8942  14.9139 H              1 <1>                0.0000
     27 H27          3.0942 -19.8754  11.8834 H              1 <1>                0.0000
     28 H28          2.0064 -20.1388  10.6742 H              1 <1>                0.0000
     29 H29          2.5376 -18.6106  10.9861 H              1 <1>                0.0000
@<TRIPOS>BOND
    1    1    2 1     
    2    1   14 1     
    3    1   15 1     
    4    1   16 1     
    5    2    3 1     
    6    3    4 ar    
    7    3    8 ar    
    8    4    5 ar    
    9    4   17 1     
   10    5    6 ar    
   11    5   18 1     
   12    6    7 ar    
   13    6    9 1     
   14    7    8 ar    
   15    7   19 1     
   16    8   20 1     
   17    9   10 1     
   18    9   11 1     
   19    9   21 1     
   20   10   27 1     
   21   10   28 1     
   22   10   29 1     
   23   11   12 1     
   24   11   13 1     
   25   11   22 1     
   26   12   13 1     
   27   12   23 1     
   28   12   24 1     
   29   13   25 1     
   30   13   26 1     
@<TRIPOS>SUBSTRUCTURE
      1 ****           1
@<TRIPOS>SET
DONOR_HYDROGENS      STATIC     ATOMS    <user>   **** ""
3 27 28 29
ATOM$RED        STATIC     ATOMS    COLORGROUP SYSTEM
3 27 28 29
@<TRIPOS>COMMENT
> <Gold.Version>
2022.2.0

> <Gold.Id.Protein>
3pbl|protein|mol2

> <Gold.Protein.RotatedTorsions>
[ 1303 1298 1297 1294 ] final  -54.35 input  179.99 | X-H torsion
[ 2461 2456 2455 2452 ] final  -20.92 input   30.03 | X-H torsion
[ 2515 2510 2509 2506 ] final -117.94 input  -89.99 | X-H torsion
[ 3721 3712 3711 3710 ] final  140.00 input -179.91 | X-H torsion
[ 3841 3832 3831 3830 ] final -178.55 input -179.91 | X-H torsion
[ 3767 3762 3761 3758 ] final    8.31 input  -89.99 | X-H torsion
[ 2472 2467 2466 2463 ] final  157.42 input  -89.97 | X-H torsion

> <Gold.Protein.ActiveResidues>
 VAL82   VAL86   LEU89   PHE106  VAL107  ASP110  VAL111  MET112  CYS114  THR115 
 CYS181  SER182  ILE183  PHE188  VAL189  ILE190  SER192  SER193  SER196  TRP342 
 PHE345  PHE346  HIS349  VAL350  TYR365  THR369  GLY372  TYR373 

> <Gold.Protein.RotatedAtoms>
    3.4535   -9.0576    3.7779 H   0  0  0  0  0  0  0  0  0  0  0  0  # atno 1303 bound_to 1298
    0.7359   -8.1376    7.0734 H   0  0  0  0  0  0  0  0  0  0  0  0  # atno 2461 bound_to 2456
   -5.4904   -5.2861    8.6946 H   0  0  0  0  0  0  0  0  0  0  0  0  # atno 2472 bound_to 2467
    2.7248   -9.1921    4.9710 H   0  0  0  0  0  0  0  0  0  0  0  0  # atno 2515 bound_to 2510
   -3.1467  -16.9794   13.1200 H   0  0  0  0  0  0  0  0  0  0  0  0  # atno 3721 bound_to 3712
   -5.2422  -22.8175   10.1034 H   0  0  0  0  0  0  0  0  0  0  0  0  # atno 3767 bound_to 3762
    2.9451  -20.0336    8.4046 H   0  0  0  0  0  0  0  0  0  0  0  0  # atno 3841 bound_to 3832
    4.8229   -8.8038    4.6304 LP  0  0  0  0  0  0  0  0  0  0  0  0  # atno 4297 bound_to 1298
    4.0861  -10.2601    4.6835 LP  0  0  0  0  0  0  0  0  0  0  0  0  # atno 4298 bound_to 1298
    0.8425   -9.2719    8.2437 LP  0  0  0  0  0  0  0  0  0  0  0  0  # atno 4299 bound_to 2456
    2.1592   -8.3985    7.8308 LP  0  0  0  0  0  0  0  0  0  0  0  0  # atno 4300 bound_to 2456
    2.0450   -8.1989    6.0742 LP  0  0  0  0  0  0  0  0  0  0  0  0  # atno 4301 bound_to 2510
    2.5267   -7.6077    4.6302 LP  0  0  0  0  0  0  0  0  0  0  0  0  # atno 4302 bound_to 2510
   -2.6074  -18.2108   13.9979 LP  0  0  0  0  0  0  0  0  0  0  0  0  # atno 4306 bound_to 3712
   -3.2874  -16.9124   14.7179 LP  0  0  0  0  0  0  0  0  0  0  0  0  # atno 4307 bound_to 3712
    2.3950  -21.1425    9.4263 LP  0  0  0  0  0  0  0  0  0  0  0  0  # atno 4314 bound_to 3832
    1.4323  -19.9209    8.9287 LP  0  0  0  0  0  0  0  0  0  0  0  0  # atno 4315 bound_to 3832
   -4.9617  -21.9365   11.4495 LP  0  0  0  0  0  0  0  0  0  0  0  0  # atno 4318 bound_to 3762
   -3.9237  -23.1211   11.0180 LP  0  0  0  0  0  0  0  0  0  0  0  0  # atno 4319 bound_to 3762
   -4.2787   -4.7988    7.7144 LP  0  0  0  0  0  0  0  0  0  0  0  0  # atno 4320 bound_to 2467
   -3.9480   -5.3086    9.2301 LP  0  0  0  0  0  0  0  0  0  0  0  0  # atno 4321 bound_to 2467

> <Gold.Score>
     Score     S(PLP)   S(hbond)     S(cho)   S(metal)  DE(clash)   DE(tors)     intcor
     45.05     -37.11       2.90       0.00       0.00       0.00       1.29       1.83

> <Gold.PLP.Fitness>
45.0484

> <Gold.PLP.PLP>
-37.1098

> <Gold.PLP.part.hbond>
-2.0000

> <Gold.PLP.part.metal>
0.0000

> <Gold.PLP.part.buried>
-3.8495

> <Gold.PLP.part.nonpolar>
-30.8529

> <Gold.PLP.part.repulsive>
0.1180

> <Gold.PLP.ligand.clash>
0.0000

> <Gold.PLP.ligand.torsion>
1.2908

> <Gold.PLP.Chemscore.Hbond>
2.8960

> <Gold.PLP.Chemscore.CHOScore>
0.0000

> <Gold.PLP.Chemscore.Metal>
0.0000

> <Gold.Chemscore.Hbonds>
donor molecule, donor type, donor heavy atom, donor atom, acceptor molecule, acceptor atom, score
      L1  H    10    28       P1  3832  0.90
      L1  H    10    29       P1  1227  2.00

> <Gold.PLP.Chemscore.Internal.Correction>
1.8322

