#       Name:                EN300-30341_i001
#       Creating user name   fsindt
#       Creation time:       Tue Feb 28 12:04:43 2023


#       File generated by GOLD software.
#

@<TRIPOS>MOLECULE
EN300-30341_i001|amine_4|mol2|5100|dock19
    29    30     1
SMALL
USER_CHARGES


@<TRIPOS>ATOM
      1 C1           1.1200 -11.3995   6.3181 C.3            1 <1>                0.0000
      2 O2           0.4471 -11.2454   7.5693 O.3            1 <1>                0.0000
      3 C3           0.4614 -12.3108   8.4128 C.ar           1 <1>                0.0000
      4 C4           1.1146 -13.4785   8.0464 C.ar           1 <1>                0.0000
      5 C5           1.1276 -14.5601   8.9057 C.ar           1 <1>                0.0000
      6 C6           0.4904 -14.4795  10.1301 C.ar           1 <1>                0.0000
      7 C7          -0.1618 -13.3169  10.4975 C.ar           1 <1>                0.0000
      8 C8          -0.1723 -12.2304   9.6443 C.ar           1 <1>                0.0000
      9 C9           0.5062 -15.6608  11.0656 C.3            1 <1>                0.0000
     10 N10          0.0182 -16.8522  10.3581 N.4            1 <1>                1.0000
     11 C11         -0.3989 -15.3736  12.2653 C.3            1 <1>                0.0000
     12 C12         -0.6135 -16.5031  13.2748 C.3            1 <1>                0.0000
     13 C13          0.2584 -15.3016  13.6450 C.3            1 <1>                0.0000
     14 H14          0.6680 -12.2202   5.7610 H              1 <1>                0.0000
     15 H15          1.0324 -10.4780   5.7425 H              1 <1>                0.0000
     16 H16          2.1729 -11.6179   6.4963 H              1 <1>                0.0000
     17 H17          1.6123 -13.5421   7.0900 H              1 <1>                0.0000
     18 H18          1.6358 -15.4696   8.6208 H              1 <1>                0.0000
     19 H19         -0.6595 -13.2567  11.4540 H              1 <1>                0.0000
     20 H20         -0.6819 -11.3226   9.9316 H              1 <1>                0.0000
     21 H21          1.5245 -15.8361  11.4125 H              1 <1>                0.0000
     22 H22         -1.2380 -14.7054  12.0717 H              1 <1>                0.0000
     23 H23         -1.5937 -16.5777  13.7457 H              1 <1>                0.0000
     24 H24         -0.1099 -17.4508  13.0843 H              1 <1>                0.0000
     25 H25          1.3358 -15.4589  13.6979 H              1 <1>                0.0000
     26 H26         -0.1480 -14.5858  14.3594 H              1 <1>                0.0000
     27 H27          0.7829 -17.2866   9.8636 H              1 <1>                0.0000
     28 H28         -0.3656 -17.5054  11.0245 H              1 <1>                0.0000
     29 H29         -0.6980 -16.5829   9.7004 H              1 <1>                0.0000
@<TRIPOS>BOND
    1    1    2 1     
    2    1   14 1     
    3    1   15 1     
    4    1   16 1     
    5    2    3 1     
    6    3    4 ar    
    7    3    8 ar    
    8    4    5 ar    
    9    4   17 1     
   10    5    6 ar    
   11    5   18 1     
   12    6    7 ar    
   13    6    9 1     
   14    7    8 ar    
   15    7   19 1     
   16    8   20 1     
   17    9   10 1     
   18    9   11 1     
   19    9   21 1     
   20   10   27 1     
   21   10   28 1     
   22   10   29 1     
   23   11   12 1     
   24   11   13 1     
   25   11   22 1     
   26   12   13 1     
   27   12   23 1     
   28   12   24 1     
   29   13   25 1     
   30   13   26 1     
@<TRIPOS>SUBSTRUCTURE
      1 ****           1
@<TRIPOS>SET
DONOR_HYDROGENS      STATIC     ATOMS    <user>   **** ""
3 27 28 29
ATOM$RED        STATIC     ATOMS    COLORGROUP SYSTEM
3 27 28 29
@<TRIPOS>COMMENT
> <Gold.Version>
2022.2.0

> <Gold.Id.Protein>
3pbl|protein|mol2

> <Gold.Protein.RotatedTorsions>
[ 1303 1298 1297 1294 ] final  -82.55 input  179.99 | X-H torsion
[ 2461 2456 2455 2452 ] final -131.61 input   30.03 | X-H torsion
[ 2515 2510 2509 2506 ] final   14.14 input  -89.99 | X-H torsion
[ 3721 3712 3711 3710 ] final  -68.26 input -179.91 | X-H torsion
[ 3841 3832 3831 3830 ] final  -23.06 input -179.91 | X-H torsion
[ 3767 3762 3761 3758 ] final  131.51 input  -89.99 | X-H torsion
[ 2472 2467 2466 2463 ] final  -41.02 input  -89.97 | X-H torsion

> <Gold.Protein.ActiveResidues>
 VAL82   VAL86   LEU89   PHE106  VAL107  ASP110  VAL111  MET112  CYS114  THR115 
 CYS181  SER182  ILE183  PHE188  VAL189  ILE190  SER192  SER193  SER196  TRP342 
 PHE345  PHE346  HIS349  VAL350  TYR365  THR369  GLY372  TYR373 

> <Gold.Protein.RotatedAtoms>
    3.7336   -8.6978    3.8330 H   0  0  0  0  0  0  0  0  0  0  0  0  # atno 1303 bound_to 1298
    0.7148   -9.2389    8.1662 H   0  0  0  0  0  0  0  0  0  0  0  0  # atno 2461 bound_to 2456
   -3.6408   -5.0782    8.6822 H   0  0  0  0  0  0  0  0  0  0  0  0  # atno 2472 bound_to 2467
    2.4427   -7.5040    4.7769 H   0  0  0  0  0  0  0  0  0  0  0  0  # atno 2515 bound_to 2510
   -2.8617  -17.2227   14.7576 H   0  0  0  0  0  0  0  0  0  0  0  0  # atno 3721 bound_to 3712
   -3.9153  -23.0914   11.0609 H   0  0  0  0  0  0  0  0  0  0  0  0  # atno 3767 bound_to 3762
    1.5916  -20.2134    9.4037 H   0  0  0  0  0  0  0  0  0  0  0  0  # atno 3841 bound_to 3832
    4.9121   -9.1995    4.8459 LP  0  0  0  0  0  0  0  0  0  0  0  0  # atno 4297 bound_to 1298
    3.7166  -10.2242    4.4128 LP  0  0  0  0  0  0  0  0  0  0  0  0  # atno 4298 bound_to 1298
    2.1571   -8.5071    7.9386 LP  0  0  0  0  0  0  0  0  0  0  0  0  # atno 4299 bound_to 2456
    0.8657   -8.0624    7.0435 LP  0  0  0  0  0  0  0  0  0  0  0  0  # atno 4300 bound_to 2456
    2.7765   -9.1021    4.8020 LP  0  0  0  0  0  0  0  0  0  0  0  0  # atno 4301 bound_to 2510
    2.0776   -8.3935    6.0966 LP  0  0  0  0  0  0  0  0  0  0  0  0  # atno 4302 bound_to 2510
   -3.5195  -16.7143   13.3840 LP  0  0  0  0  0  0  0  0  0  0  0  0  # atno 4306 bound_to 3712
   -2.7043  -18.1281   13.4411 LP  0  0  0  0  0  0  0  0  0  0  0  0  # atno 4307 bound_to 3712
    2.4913  -19.7803    8.1470 LP  0  0  0  0  0  0  0  0  0  0  0  0  # atno 4314 bound_to 3832
    2.8995  -21.0755    9.0539 LP  0  0  0  0  0  0  0  0  0  0  0  0  # atno 4315 bound_to 3832
   -5.2080  -22.8560   10.0912 LP  0  0  0  0  0  0  0  0  0  0  0  0  # atno 4318 bound_to 3762
   -5.0037  -21.9278   11.4191 LP  0  0  0  0  0  0  0  0  0  0  0  0  # atno 4319 bound_to 3762
   -5.1326   -5.4418    9.2380 LP  0  0  0  0  0  0  0  0  0  0  0  0  # atno 4320 bound_to 2467
   -4.9433   -4.8735    7.7189 LP  0  0  0  0  0  0  0  0  0  0  0  0  # atno 4321 bound_to 2467

> <Gold.Score>
     Score     S(PLP)   S(hbond)     S(cho)   S(metal)  DE(clash)   DE(tors)     intcor
     44.39     -38.29       2.87       0.00       0.00       2.67       0.84       1.83

> <Gold.PLP.Fitness>
44.3894

> <Gold.PLP.PLP>
-38.2895

> <Gold.PLP.part.hbond>
-2.0000

> <Gold.PLP.part.metal>
0.0000

> <Gold.PLP.part.buried>
-0.8541

> <Gold.PLP.part.nonpolar>
-36.5613

> <Gold.PLP.part.repulsive>
0.0000

> <Gold.PLP.ligand.clash>
2.6707

> <Gold.PLP.ligand.torsion>
0.8412

> <Gold.PLP.Chemscore.Hbond>
2.8736

> <Gold.PLP.Chemscore.CHOScore>
0.0000

> <Gold.PLP.Chemscore.Metal>
0.0000

> <Gold.Chemscore.Hbonds>
donor molecule, donor type, donor heavy atom, donor atom, acceptor molecule, acceptor atom, score
      L1  H    10    27       P1  1227  2.00
      P1  H  2456  2461       L1     2  0.87

> <Gold.PLP.Chemscore.Internal.Correction>
1.8322

