#       Name:                EN300-30341_i001
#       Creating user name   fsindt
#       Creation time:       Tue Feb 28 12:04:36 2023


#       File generated by GOLD software.
#

@<TRIPOS>MOLECULE
EN300-30341_i001|amine_4|mol2|5100|dock12
    29    30     1
SMALL
USER_CHARGES


@<TRIPOS>ATOM
      1 C1           0.8647 -16.1518  13.1015 C.3            1 <1>                0.0000
      2 O2           0.8423 -15.8894  11.6970 O.3            1 <1>                0.0000
      3 C3           0.2453 -14.7370  11.2940 C.ar           1 <1>                0.0000
      4 C4           0.5755 -14.1748  10.0695 C.ar           1 <1>                0.0000
      5 C5          -0.0328 -13.0033   9.6621 C.ar           1 <1>                0.0000
      6 C6          -0.9700 -12.3912  10.4736 C.ar           1 <1>                0.0000
      7 C7          -1.3006 -12.9493  11.6947 C.ar           1 <1>                0.0000
      8 C8          -0.6996 -14.1240  12.1039 C.ar           1 <1>                0.0000
      9 C9          -1.6321 -11.1133  10.0268 C.3            1 <1>                0.0000
     10 N10         -0.8792  -9.9640  10.5465 N.4            1 <1>                1.0000
     11 C11         -3.0653 -11.0677  10.5605 C.3            1 <1>                0.0000
     12 C12         -3.9796  -9.9588  10.0356 C.3            1 <1>                0.0000
     13 C13         -4.1939 -11.4050   9.5841 C.3            1 <1>                0.0000
     14 H14         -0.1571 -16.2041  13.4777 H              1 <1>                0.0000
     15 H15          1.3689 -17.1003  13.2860 H              1 <1>                0.0000
     16 H16          1.3992 -15.3508  13.6123 H              1 <1>                0.0000
     17 H17          1.3077 -14.6524   9.4353 H              1 <1>                0.0000
     18 H18          0.2242 -12.5650   8.7090 H              1 <1>                0.0000
     19 H19         -2.0324 -12.4688  12.3272 H              1 <1>                0.0000
     20 H20         -0.9581 -14.5595  13.0578 H              1 <1>                0.0000
     21 H21         -1.6487 -11.0742   8.9376 H              1 <1>                0.0000
     22 H22         -3.1900 -11.3733  11.5993 H              1 <1>                0.0000
     23 H23         -4.7062  -9.5353  10.7290 H              1 <1>                0.0000
     24 H24         -3.5602  -9.2620   9.3101 H              1 <1>                0.0000
     25 H25         -3.9153 -11.6593   8.5614 H              1 <1>                0.0000
     26 H26         -5.0613 -11.9327   9.9803 H              1 <1>                0.0000
     27 H27         -0.0581 -10.2918  11.0327 H              1 <1>                0.0000
     28 H28         -0.6013  -9.3695   9.7801 H              1 <1>                0.0000
     29 H29         -1.4611  -9.4412  11.1838 H              1 <1>                0.0000
@<TRIPOS>BOND
    1    1    2 1     
    2    1   14 1     
    3    1   15 1     
    4    1   16 1     
    5    2    3 1     
    6    3    4 ar    
    7    3    8 ar    
    8    4    5 ar    
    9    4   17 1     
   10    5    6 ar    
   11    5   18 1     
   12    6    7 ar    
   13    6    9 1     
   14    7    8 ar    
   15    7   19 1     
   16    8   20 1     
   17    9   10 1     
   18    9   11 1     
   19    9   21 1     
   20   10   27 1     
   21   10   28 1     
   22   10   29 1     
   23   11   12 1     
   24   11   13 1     
   25   11   22 1     
   26   12   13 1     
   27   12   23 1     
   28   12   24 1     
   29   13   25 1     
   30   13   26 1     
@<TRIPOS>SUBSTRUCTURE
      1 ****           1
@<TRIPOS>SET
DONOR_HYDROGENS      STATIC     ATOMS    <user>   **** ""
3 27 28 29
ATOM$RED        STATIC     ATOMS    COLORGROUP SYSTEM
3 27 28 29
@<TRIPOS>COMMENT
> <Gold.Version>
2022.2.0

> <Gold.Id.Protein>
3pbl|protein|mol2

> <Gold.Protein.RotatedTorsions>
[ 1303 1298 1297 1294 ] final -158.27 input  179.99 | X-H torsion
[ 2461 2456 2455 2452 ] final  122.28 input   30.03 | X-H torsion
[ 2515 2510 2509 2506 ] final -111.76 input  -89.99 | X-H torsion
[ 3721 3712 3711 3710 ] final  118.21 input -179.91 | X-H torsion
[ 3841 3832 3831 3830 ] final  163.71 input -179.91 | X-H torsion
[ 3767 3762 3761 3758 ] final  -79.53 input  -89.99 | X-H torsion
[ 2472 2467 2466 2463 ] final  115.46 input  -89.97 | X-H torsion

> <Gold.Protein.ActiveResidues>
 VAL82   VAL86   LEU89   PHE106  VAL107  ASP110  VAL111  MET112  CYS114  THR115 
 CYS181  SER182  ILE183  PHE188  VAL189  ILE190  SER192  SER193  SER196  TRP342 
 PHE345  PHE346  HIS349  VAL350  TYR365  THR369  GLY372  TYR373 

> <Gold.Protein.RotatedAtoms>
    4.6938   -8.6338    4.4754 H   0  0  0  0  0  0  0  0  0  0  0  0  # atno 1303 bound_to 1298
    2.1098   -8.6730    8.0878 H   0  0  0  0  0  0  0  0  0  0  0  0  # atno 2461 bound_to 2456
   -5.3827   -5.0497    8.0714 H   0  0  0  0  0  0  0  0  0  0  0  0  # atno 2472 bound_to 2467
    2.7530   -9.1504    4.8827 H   0  0  0  0  0  0  0  0  0  0  0  0  # atno 2515 bound_to 2510
   -2.9955  -17.2567   13.0335 H   0  0  0  0  0  0  0  0  0  0  0  0  # atno 3721 bound_to 3712
   -5.3279  -21.9484   11.0773 H   0  0  0  0  0  0  0  0  0  0  0  0  # atno 3767 bound_to 3762
    3.0722  -20.2421    8.5126 H   0  0  0  0  0  0  0  0  0  0  0  0  # atno 3841 bound_to 3832
    4.3063  -10.1849    4.8073 LP  0  0  0  0  0  0  0  0  0  0  0  0  # atno 4297 bound_to 1298
    3.3619   -9.3030    3.8088 LP  0  0  0  0  0  0  0  0  0  0  0  0  # atno 4298 bound_to 1298
    1.0768   -7.9767    7.0316 LP  0  0  0  0  0  0  0  0  0  0  0  0  # atno 4299 bound_to 2456
    0.5515   -9.1584    8.0288 LP  0  0  0  0  0  0  0  0  0  0  0  0  # atno 4300 bound_to 2456
    2.0596   -8.2982    6.0904 LP  0  0  0  0  0  0  0  0  0  0  0  0  # atno 4301 bound_to 2510
    2.4839   -7.5501    4.7023 LP  0  0  0  0  0  0  0  0  0  0  0  0  # atno 4302 bound_to 2510
   -2.6342  -18.1103   14.3445 LP  0  0  0  0  0  0  0  0  0  0  0  0  # atno 4306 bound_to 3712
   -3.4351  -16.6929   14.4711 LP  0  0  0  0  0  0  0  0  0  0  0  0  # atno 4307 bound_to 3712
    2.1270  -21.0605    9.5189 LP  0  0  0  0  0  0  0  0  0  0  0  0  # atno 4314 bound_to 3832
    1.5536  -19.7621    8.7114 LP  0  0  0  0  0  0  0  0  0  0  0  0  # atno 4315 bound_to 3832
   -3.9580  -22.7740   11.4069 LP  0  0  0  0  0  0  0  0  0  0  0  0  # atno 4318 bound_to 3762
   -4.8417  -23.1524   10.0869 LP  0  0  0  0  0  0  0  0  0  0  0  0  # atno 4319 bound_to 3762
   -3.7585   -4.8929    8.1344 LP  0  0  0  0  0  0  0  0  0  0  0  0  # atno 4320 bound_to 2467
   -4.5759   -5.4509    9.4333 LP  0  0  0  0  0  0  0  0  0  0  0  0  # atno 4321 bound_to 2467

> <Gold.Score>
     Score     S(PLP)   S(hbond)     S(cho)   S(metal)  DE(clash)   DE(tors)     intcor
     47.25     -48.87       0.00       0.00       0.00       0.05       1.70       1.83

> <Gold.PLP.Fitness>
47.2495

> <Gold.PLP.PLP>
-48.8682

> <Gold.PLP.part.hbond>
0.0000

> <Gold.PLP.part.metal>
0.0000

> <Gold.PLP.part.buried>
-4.0465

> <Gold.PLP.part.nonpolar>
-45.5023

> <Gold.PLP.part.repulsive>
0.1313

> <Gold.PLP.ligand.clash>
0.0544

> <Gold.PLP.ligand.torsion>
1.6983

> <Gold.PLP.Chemscore.Hbond>
0.0000

> <Gold.PLP.Chemscore.CHOScore>
0.0000

> <Gold.PLP.Chemscore.Metal>
0.0000

> <Gold.PLP.Chemscore.Internal.Correction>
1.8322

