#       Name:                EN300-30341_i001
#       Creating user name   fsindt
#       Creation time:       Tue Feb 28 12:04:41 2023


#       File generated by GOLD software.
#

@<TRIPOS>MOLECULE
EN300-30341_i001|amine_4|mol2|5100|dock17
    29    30     1
SMALL
USER_CHARGES


@<TRIPOS>ATOM
      1 C1           2.0115 -17.0737  14.7131 C.3            1 <1>                0.0000
      2 O2           1.0080 -16.1174  14.3659 O.3            1 <1>                0.0000
      3 C3           1.0349 -15.6271  13.0987 C.ar           1 <1>                0.0000
      4 C4          -0.1236 -15.1267  12.5226 C.ar           1 <1>                0.0000
      5 C5          -0.0936 -14.6289  11.2343 C.ar           1 <1>                0.0000
      6 C6           1.0898 -14.6290  10.5192 C.ar           1 <1>                0.0000
      7 C7           2.2458 -15.1276  11.0911 C.ar           1 <1>                0.0000
      8 C8           2.2223 -15.6208  12.3813 C.ar           1 <1>                0.0000
      9 C9           1.1197 -14.0853   9.1141 C.3            1 <1>                0.0000
     10 N10          0.6461 -12.6948   9.1169 N.4            1 <1>                1.0000
     11 C11          0.2112 -14.9318   8.2202 C.3            1 <1>                0.0000
     12 C12         -0.2267 -14.3279   6.8843 C.3            1 <1>                0.0000
     13 C13          0.8017 -15.4605   6.9115 C.3            1 <1>                0.0000
     14 H14          2.9977 -16.6251  14.5935 H              1 <1>                0.0000
     15 H15          1.8760 -17.3825  15.7495 H              1 <1>                0.0000
     16 H16          1.9262 -17.9428  14.0608 H              1 <1>                0.0000
     17 H17         -1.0483 -15.1266  13.0806 H              1 <1>                0.0000
     18 H18         -0.9953 -14.2395  10.7852 H              1 <1>                0.0000
     19 H19          3.1687 -15.1274  10.5303 H              1 <1>                0.0000
     20 H20          3.1254 -16.0102  12.8276 H              1 <1>                0.0000
     21 H21          2.1401 -14.1207   8.7324 H              1 <1>                0.0000
     22 H22         -0.5031 -15.5674   8.7436 H              1 <1>                0.0000
     23 H23         -1.2290 -14.5667   6.5285 H              1 <1>                0.0000
     24 H24          0.1324 -13.3277   6.6423 H              1 <1>                0.0000
     25 H25          1.8374 -15.2052   6.6874 H              1 <1>                0.0000
     26 H26          0.4760 -16.4442   6.5737 H              1 <1>                0.0000
     27 H27          1.2323 -12.1385   8.5129 H              1 <1>                0.0000
     28 H28         -0.3059 -12.6630   8.7840 H              1 <1>                0.0000
     29 H29          0.6864 -12.3276  10.0559 H              1 <1>                0.0000
@<TRIPOS>BOND
    1    1    2 1     
    2    1   14 1     
    3    1   15 1     
    4    1   16 1     
    5    2    3 1     
    6    3    4 ar    
    7    3    8 ar    
    8    4    5 ar    
    9    4   17 1     
   10    5    6 ar    
   11    5   18 1     
   12    6    7 ar    
   13    6    9 1     
   14    7    8 ar    
   15    7   19 1     
   16    8   20 1     
   17    9   10 1     
   18    9   11 1     
   19    9   21 1     
   20   10   27 1     
   21   10   28 1     
   22   10   29 1     
   23   11   12 1     
   24   11   13 1     
   25   11   22 1     
   26   12   13 1     
   27   12   23 1     
   28   12   24 1     
   29   13   25 1     
   30   13   26 1     
@<TRIPOS>SUBSTRUCTURE
      1 ****           1
@<TRIPOS>SET
DONOR_HYDROGENS      STATIC     ATOMS    <user>   **** ""
3 27 28 29
ATOM$RED        STATIC     ATOMS    COLORGROUP SYSTEM
3 27 28 29
@<TRIPOS>COMMENT
> <Gold.Version>
2022.2.0

> <Gold.Id.Protein>
3pbl|protein|mol2

> <Gold.Protein.RotatedTorsions>
[ 1303 1298 1297 1294 ] final    1.10 input  179.99 | X-H torsion
[ 2461 2456 2455 2452 ] final -177.82 input   30.03 | X-H torsion
[ 2515 2510 2509 2506 ] final   48.03 input  -89.99 | X-H torsion
[ 3721 3712 3711 3710 ] final  -23.00 input -179.91 | X-H torsion
[ 3841 3832 3831 3830 ] final   62.20 input -179.91 | X-H torsion
[ 3767 3762 3761 3758 ] final  -16.87 input  -89.99 | X-H torsion
[ 2472 2467 2466 2463 ] final  134.02 input  -89.97 | X-H torsion

> <Gold.Protein.ActiveResidues>
 VAL82   VAL86   LEU89   PHE106  VAL107  ASP110  VAL111  MET112  CYS114  THR115 
 CYS181  SER182  ILE183  PHE188  VAL189  ILE190  SER192  SER193  SER196  TRP342 
 PHE345  PHE346  HIS349  VAL350  TYR365  THR369  GLY372  TYR373 

> <Gold.Protein.RotatedAtoms>
    3.3919   -9.8867    4.0569 H   0  0  0  0  0  0  0  0  0  0  0  0  # atno 1303 bound_to 1298
    1.4168   -9.2283    8.4007 H   0  0  0  0  0  0  0  0  0  0  0  0  # atno 2461 bound_to 2456
   -5.4907   -5.1565    8.3348 H   0  0  0  0  0  0  0  0  0  0  0  0  # atno 2472 bound_to 2467
    2.2160   -7.4168    5.2697 H   0  0  0  0  0  0  0  0  0  0  0  0  # atno 2515 bound_to 2510
   -2.5672  -17.7729   14.5236 H   0  0  0  0  0  0  0  0  0  0  0  0  # atno 3721 bound_to 3712
   -5.4464  -22.5083   10.2809 H   0  0  0  0  0  0  0  0  0  0  0  0  # atno 3767 bound_to 3762
    2.5004  -20.9481    9.4987 H   0  0  0  0  0  0  0  0  0  0  0  0  # atno 3841 bound_to 3832
    4.2184   -8.4787    4.0842 LP  0  0  0  0  0  0  0  0  0  0  0  0  # atno 4297 bound_to 1298
    4.7522   -9.7557    4.9507 LP  0  0  0  0  0  0  0  0  0  0  0  0  # atno 4298 bound_to 1298
    1.9392   -8.0463    7.4022 LP  0  0  0  0  0  0  0  0  0  0  0  0  # atno 4299 bound_to 2456
    0.3818   -8.5338    7.3455 LP  0  0  0  0  0  0  0  0  0  0  0  0  # atno 4300 bound_to 2456
    2.8355   -8.6850    4.4489 LP  0  0  0  0  0  0  0  0  0  0  0  0  # atno 4301 bound_to 2510
    2.2453   -8.8977    5.9566 LP  0  0  0  0  0  0  0  0  0  0  0  0  # atno 4302 bound_to 2510
   -3.5402  -16.5662   14.1055 LP  0  0  0  0  0  0  0  0  0  0  0  0  # atno 4306 bound_to 3712
   -3.0236  -17.6410   12.9899 LP  0  0  0  0  0  0  0  0  0  0  0  0  # atno 4307 bound_to 3712
    1.4433  -19.8983    8.9017 LP  0  0  0  0  0  0  0  0  0  0  0  0  # atno 4314 bound_to 3832
    2.8977  -20.1088    8.1895 LP  0  0  0  0  0  0  0  0  0  0  0  0  # atno 4315 bound_to 3832
   -4.6138  -22.0763   11.6177 LP  0  0  0  0  0  0  0  0  0  0  0  0  # atno 4318 bound_to 3762
   -4.0673  -23.2904   10.6722 LP  0  0  0  0  0  0  0  0  0  0  0  0  # atno 4319 bound_to 3762
   -3.9491   -4.8314    7.9056 LP  0  0  0  0  0  0  0  0  0  0  0  0  # atno 4320 bound_to 2467
   -4.2772   -5.4056    9.3987 LP  0  0  0  0  0  0  0  0  0  0  0  0  # atno 4321 bound_to 2467

> <Gold.Score>
     Score     S(PLP)   S(hbond)     S(cho)   S(metal)  DE(clash)   DE(tors)     intcor
     45.62     -43.23       1.00       0.00       0.00       0.00       1.22       1.83

> <Gold.PLP.Fitness>
45.6182

> <Gold.PLP.PLP>
-43.2297

> <Gold.PLP.part.hbond>
-1.0000

> <Gold.PLP.part.metal>
0.0000

> <Gold.PLP.part.buried>
-2.2116

> <Gold.PLP.part.nonpolar>
-41.0157

> <Gold.PLP.part.repulsive>
0.0081

> <Gold.PLP.ligand.clash>
0.0000

> <Gold.PLP.ligand.torsion>
1.2219

> <Gold.PLP.Chemscore.Hbond>
1.0000

> <Gold.PLP.Chemscore.CHOScore>
0.0000

> <Gold.PLP.Chemscore.Metal>
0.0000

> <Gold.Chemscore.Hbonds>
donor molecule, donor type, donor heavy atom, donor atom, acceptor molecule, acceptor atom, score
      P1  H  2305  2313       L1     2  1.00

> <Gold.PLP.Chemscore.Internal.Correction>
1.8322

