#       Name:                EN300-30341_i001
#       Creating user name   fsindt
#       Creation time:       Tue Feb 28 12:04:27 2023


#       File generated by GOLD software.
#

@<TRIPOS>MOLECULE
EN300-30341_i001|amine_4|mol2|5100|dock1
    29    30     1
SMALL
USER_CHARGES


@<TRIPOS>ATOM
      1 C1          -1.9896  -9.8525   9.4315 C.3            1 <1>                0.0000
      2 O2          -0.7956 -10.4926   8.9769 O.3            1 <1>                0.0000
      3 C3          -0.5084 -11.7107   9.5065 C.ar           1 <1>                0.0000
      4 C4           0.2975 -12.5990   8.8094 C.ar           1 <1>                0.0000
      5 C5           0.5879 -13.8366   9.3499 C.ar           1 <1>                0.0000
      6 C6           0.0761 -14.1904  10.5847 C.ar           1 <1>                0.0000
      7 C7          -0.7277 -13.3070  11.2814 C.ar           1 <1>                0.0000
      8 C8          -1.0160 -12.0657  10.7479 C.ar           1 <1>                0.0000
      9 C9           0.3946 -15.5411  11.1721 C.3            1 <1>                0.0000
     10 N10          0.2058 -16.5772  10.1480 N.4            1 <1>                1.0000
     11 C11         -0.5377 -15.8162  12.3537 C.3            1 <1>                0.0000
     12 C12         -0.0738 -16.8341  13.3976 C.3            1 <1>                0.0000
     13 C13         -0.0849 -15.3420  13.7361 C.3            1 <1>                0.0000
     14 H14         -1.9309  -9.6970  10.5088 H              1 <1>                0.0000
     15 H15         -2.0994  -8.8905   8.9310 H              1 <1>                0.0000
     16 H16         -2.8493 -10.4820   9.2016 H              1 <1>                0.0000
     17 H17          0.6972 -12.3233   7.8447 H              1 <1>                0.0000
     18 H18          1.2150 -14.5287   8.8074 H              1 <1>                0.0000
     19 H19         -1.1269 -13.5859  12.2453 H              1 <1>                0.0000
     20 H20         -1.6439 -11.3760  11.2923 H              1 <1>                0.0000
     21 H21          1.4291 -15.5535  11.5150 H              1 <1>                0.0000
     22 H22         -1.6039 -15.7739  12.1310 H              1 <1>                0.0000
     23 H23         -0.8348 -17.4611  13.8620 H              1 <1>                0.0000
     24 H24          0.8956 -17.3077  13.2425 H              1 <1>                0.0000
     25 H25          0.8772 -14.8341  13.8037 H              1 <1>                0.0000
     26 H26         -0.8532 -14.9875  14.4232 H              1 <1>                0.0000
     27 H27         -0.2729 -17.3675  10.5533 H              1 <1>                0.0000
     28 H28         -0.3444 -16.2038   9.3891 H              1 <1>                0.0000
     29 H29          1.1051 -16.8721   9.7981 H              1 <1>                0.0000
@<TRIPOS>BOND
    1    1    2 1     
    2    1   14 1     
    3    1   15 1     
    4    1   16 1     
    5    2    3 1     
    6    3    4 ar    
    7    3    8 ar    
    8    4    5 ar    
    9    4   17 1     
   10    5    6 ar    
   11    5   18 1     
   12    6    7 ar    
   13    6    9 1     
   14    7    8 ar    
   15    7   19 1     
   16    8   20 1     
   17    9   10 1     
   18    9   11 1     
   19    9   21 1     
   20   10   27 1     
   21   10   28 1     
   22   10   29 1     
   23   11   12 1     
   24   11   13 1     
   25   11   22 1     
   26   12   13 1     
   27   12   23 1     
   28   12   24 1     
   29   13   25 1     
   30   13   26 1     
@<TRIPOS>SUBSTRUCTURE
      1 ****           1
@<TRIPOS>SET
DONOR_HYDROGENS      STATIC     ATOMS    <user>   **** ""
3 27 28 29
ATOM$RED        STATIC     ATOMS    COLORGROUP SYSTEM
3 27 28 29
@<TRIPOS>COMMENT
> <Gold.Version>
2022.2.0

> <Gold.Id.Protein>
3pbl|protein|mol2

> <Gold.Protein.RotatedTorsions>
[ 1303 1298 1297 1294 ] final  -56.41 input  179.99 | X-H torsion
[ 2461 2456 2455 2452 ] final -124.97 input   30.03 | X-H torsion
[ 2515 2510 2509 2506 ] final  155.96 input  -89.99 | X-H torsion
[ 3721 3712 3711 3710 ] final -132.60 input -179.91 | X-H torsion
[ 3841 3832 3831 3830 ] final  125.99 input -179.91 | X-H torsion
[ 3767 3762 3761 3758 ] final   46.21 input  -89.99 | X-H torsion
[ 2472 2467 2466 2463 ] final   83.86 input  -89.97 | X-H torsion

> <Gold.Protein.ActiveResidues>
 VAL82   VAL86   LEU89   PHE106  VAL107  ASP110  VAL111  MET112  CYS114  THR115 
 CYS181  SER182  ILE183  PHE188  VAL189  ILE190  SER192  SER193  SER196  TRP342 
 PHE345  PHE346  HIS349  VAL350  TYR365  THR369  GLY372  TYR373 

> <Gold.Protein.RotatedAtoms>
    3.4692   -9.0275    3.7772 H   0  0  0  0  0  0  0  0  0  0  0  0  # atno 1303 bound_to 1298
    0.6322   -9.2049    8.1034 H   0  0  0  0  0  0  0  0  0  0  0  0  # atno 2461 bound_to 2456
   -5.0153   -4.8931    7.7489 H   0  0  0  0  0  0  0  0  0  0  0  0  # atno 2472 bound_to 2467
    2.1749   -8.7318    6.0393 H   0  0  0  0  0  0  0  0  0  0  0  0  # atno 2515 bound_to 2510
   -3.2756  -16.5804   14.2410 H   0  0  0  0  0  0  0  0  0  0  0  0  # atno 3721 bound_to 3712
   -4.7614  -23.1971   10.1092 H   0  0  0  0  0  0  0  0  0  0  0  0  # atno 3767 bound_to 3762
    3.1066  -20.6687    8.8732 H   0  0  0  0  0  0  0  0  0  0  0  0  # atno 3841 bound_to 3832
    4.8355   -8.8291    4.6490 LP  0  0  0  0  0  0  0  0  0  0  0  0  # atno 4297 bound_to 1298
    4.0577  -10.2648    4.6656 LP  0  0  0  0  0  0  0  0  0  0  0  0  # atno 4298 bound_to 1298
    2.1409   -8.5863    8.0120 LP  0  0  0  0  0  0  0  0  0  0  0  0  # atno 4299 bound_to 2456
    0.9645   -8.0172    7.0328 LP  0  0  0  0  0  0  0  0  0  0  0  0  # atno 4300 bound_to 2456
    2.2918   -7.4111    5.0865 LP  0  0  0  0  0  0  0  0  0  0  0  0  # atno 4301 bound_to 2510
    2.8302   -8.8560    4.5490 LP  0  0  0  0  0  0  0  0  0  0  0  0  # atno 4302 bound_to 2510
   -3.0857  -17.5364   12.9651 LP  0  0  0  0  0  0  0  0  0  0  0  0  # atno 4306 bound_to 3712
   -2.6602  -18.0476   14.4565 LP  0  0  0  0  0  0  0  0  0  0  0  0  # atno 4307 bound_to 3712
    1.6288  -20.6936    9.4989 LP  0  0  0  0  0  0  0  0  0  0  0  0  # atno 4314 bound_to 3832
    2.0119  -19.6362    8.3149 LP  0  0  0  0  0  0  0  0  0  0  0  0  # atno 4315 bound_to 3832
   -5.3762  -21.9744   11.0002 LP  0  0  0  0  0  0  0  0  0  0  0  0  # atno 4318 bound_to 3762
   -3.9898  -22.7038   11.4613 LP  0  0  0  0  0  0  0  0  0  0  0  0  # atno 4319 bound_to 3762
   -3.6350   -5.0497    8.6072 LP  0  0  0  0  0  0  0  0  0  0  0  0  # atno 4320 bound_to 2467
   -5.0666   -5.4507    9.2828 LP  0  0  0  0  0  0  0  0  0  0  0  0  # atno 4321 bound_to 2467

> <Gold.Score>
     Score     S(PLP)   S(hbond)     S(cho)   S(metal)  DE(clash)   DE(tors)     intcor
     48.96     -41.19       2.98       0.00       0.00       0.53       1.23       1.84

> <Gold.PLP.Fitness>
48.9593

> <Gold.PLP.PLP>
-41.1881

> <Gold.PLP.part.hbond>
-2.0000

> <Gold.PLP.part.metal>
0.0000

> <Gold.PLP.part.buried>
-3.9035

> <Gold.PLP.part.nonpolar>
-36.5346

> <Gold.PLP.part.repulsive>
0.0151

> <Gold.PLP.ligand.clash>
0.5325

> <Gold.PLP.ligand.torsion>
1.2322

> <Gold.PLP.Chemscore.Hbond>
2.9750

> <Gold.PLP.Chemscore.CHOScore>
0.0000

> <Gold.PLP.Chemscore.Metal>
0.0000

> <Gold.Chemscore.Hbonds>
donor molecule, donor type, donor heavy atom, donor atom, acceptor molecule, acceptor atom, score
      L1  H    10    29       P1  1227  2.00
      P1  H  2456  2461       L1     2  0.98

> <Gold.PLP.Chemscore.Internal.Correction>
1.8431

