#       Name:                plp ligand
#       Creating user name   fsindt
#       Creation time:       Tue Feb 28 12:04:26 2023


#       File generated by GOLD software.
#

@<TRIPOS>MOLECULE
plp ligand
    29    30     1
SMALL
USER_CHARGES


@<TRIPOS>ATOM
      1 C1          -4.7257   0.4201  -0.6931 NONPOLAR       1 <1>                0.0000
      2 O2          -4.0129  -0.6248  -0.0282 ACCEPTOR       1 <1>                0.0000
      3 C3          -2.6753  -0.4508   0.1375 NONPOLAR       1 <1>                0.0000
      4 C4          -1.9215  -1.4256   0.7747 NONPOLAR       1 <1>                0.0000
      5 C5          -0.5620  -1.2463   0.9419 NONPOLAR       1 <1>                0.0000
      6 C6           0.0475  -0.0965   0.4748 NONPOLAR       1 <1>                0.0000
      7 C7          -0.7017   0.8768  -0.1602 NONPOLAR       1 <1>                0.0000
      8 C8          -2.0605   0.6994  -0.3354 NONPOLAR       1 <1>                0.0000
      9 C9           1.5307   0.0965   0.6585 NONPOLAR       1 <1>                0.0000
     10 N10          1.8022   1.4960   1.0130 DONOR          1 <1>                1.0000
     11 C11          2.2553  -0.2495  -0.6439 NONPOLAR       1 <1>                0.0000
     12 C12          3.7794  -0.1163  -0.6613 NONPOLAR       1 <1>                0.0000
     13 C13          3.1326  -1.5029  -0.6528 NONPOLAR       1 <1>                0.0000
     14 H14         -4.3213   0.5544  -1.6964                1 <1>                0.0000
     15 H15         -5.7809   0.1552  -0.7591                1 <1>                0.0000
     16 H16         -4.6184   1.3478  -0.1310                1 <1>                0.0000
     17 H17         -2.3971  -2.3238   1.1400                1 <1>                0.0000
     18 H18          0.0253  -2.0048   1.4382                1 <1>                0.0000
     19 H19         -0.2235   1.7744  -0.5235                1 <1>                0.0000
     20 H20         -2.6453   1.4599  -0.8314                1 <1>                0.0000
     21 H21          1.8860  -0.5558   1.4562                1 <1>                0.0000
     22 H22          1.7181  -0.0042  -1.5601                1 <1>                0.0000
     23 H23          4.2450   0.2161  -1.5891                1 <1>                0.0000
     24 H24          4.2659   0.2177   0.2551                1 <1>                0.0000
     25 H25          3.1936  -2.0810   0.2693                1 <1>                0.0000
     26 H26          3.1727  -2.0826  -1.5749                1 <1>                0.0000
     27 H27          1.4734   2.0999   0.2746                1 <1>                0.0000
     28 H28          1.3244   1.7242   1.8719                1 <1>                0.0000
     29 H29          2.7953   1.6252   1.1360                1 <1>                0.0000
@<TRIPOS>BOND
    1    1    2 1     
    2    1   14 1     
    3    1   15 1     
    4    1   16 1     
    5    2    3 1     
    6    3    4 ar    
    7    3    8 ar    
    8    4    5 ar    
    9    4   17 1     
   10    5    6 ar    
   11    5   18 1     
   12    6    7 ar    
   13    6    9 1     
   14    7    8 ar    
   15    7   19 1     
   16    8   20 1     
   17    9   10 1     
   18    9   11 1     
   19    9   21 1     
   20   10   27 1     
   21   10   28 1     
   22   10   29 1     
   23   11   12 1     
   24   11   13 1     
   25   11   22 1     
   26   12   13 1     
   27   12   23 1     
   28   12   24 1     
   29   13   25 1     
   30   13   26 1     
@<TRIPOS>SUBSTRUCTURE
      1 ****           1
@<TRIPOS>SET
DONOR_HYDROGENS      STATIC     ATOMS    <user>   **** ""
3 27 28 29
ATOM$RED        STATIC     ATOMS    COLORGROUP SYSTEM
3 27 28 29
