#       Name:                EN300-1198129_i001
#       Creating user name   fsindt
#       Creation time:       Mon Feb 27 17:31:58 2023


#       File generated by GOLD software.
#

@<TRIPOS>MOLECULE
EN300-1198129_i001|acide_1|mol2|127|dock17
    25    25     1
SMALL
USER_CHARGES


@<TRIPOS>ATOM
      1 O1          -0.1424 -16.0682  13.2759 O.co2          1 <1>               -1.0000
      2 C2          -0.3911 -17.0613  12.6065 C.2            1 <1>                0.0000
      3 O3          -0.6410 -18.1239  13.1584 O.co2          1 <1>                0.0000
      4 C4          -0.3958 -16.9760  11.1355 C.ar           1 <1>                0.0000
      5 C5          -0.0908 -15.7687  10.5005 C.ar           1 <1>                0.0000
      6 C6          -0.0971 -15.6964   9.1240 C.ar           1 <1>                0.0000
      7 C7          -0.4049 -16.8151   8.3684 C.ar           1 <1>                0.0000
      8 C8          -0.7081 -18.0142   8.9862 C.ar           1 <1>                0.0000
      9 C9          -0.7001 -18.1055  10.3659 C.ar           1 <1>                0.0000
     10 F10         -0.9964 -19.2773  10.9694 F              1 <1>                0.0000
     11 S11          0.2873 -14.1747   8.3232 S.o2           1 <1>                0.0000
     12 O12          1.6993 -14.0649   8.4386 O.2            1 <1>                0.0000
     13 O13         -0.3379 -14.2803   7.0515 O.2            1 <1>                0.0000
     14 C14         -0.5340 -12.9116   9.3333 C.3            1 <1>                0.0000
     15 C15         -0.3919 -11.5463   8.6574 C.3            1 <1>                0.0000
     16 C16         -1.3236 -10.5914   9.2795 C.1            1 <1>                0.0000
     17 C17         -2.0667  -9.8299   9.7757 C.1            1 <1>                0.0000
     18 H18          0.1491 -14.8943  11.0872 H              1 <1>                0.0000
     19 H19         -0.4086 -16.7505   7.2903 H              1 <1>                0.0000
     20 H20         -0.9471 -18.8823   8.3900 H              1 <1>                0.0000
     21 H21         -1.5909 -13.1582   9.4350 H              1 <1>                0.0000
     22 H22         -0.0721 -12.8783  10.3200 H              1 <1>                0.0000
     23 H23          0.6301 -11.1866   8.7764 H              1 <1>                0.0000
     24 H24         -0.6229 -11.6403   7.5963 H              1 <1>                0.0000
     25 H25         -2.7313  -9.1488  10.2194 H              1 <1>                0.0000
@<TRIPOS>BOND
    1    1    2 ar    
    2    2    3 ar    
    3    2    4 1     
    4    4    5 ar    
    5    4    9 ar    
    6    5    6 ar    
    7    5   18 1     
    8    6    7 ar    
    9    6   11 1     
   10    7    8 ar    
   11    7   19 1     
   12    8    9 ar    
   13    8   20 1     
   14    9   10 1     
   15   11   12 2     
   16   11   13 2     
   17   11   14 1     
   18   14   15 1     
   19   14   21 1     
   20   14   22 1     
   21   15   16 1     
   22   15   23 1     
   23   15   24 1     
   24   16   17 3     
   25   17   25 1     
@<TRIPOS>SUBSTRUCTURE
      1 ****           1
@<TRIPOS>COMMENT
> <Gold.Version>
2022.2.0

> <Gold.Id.Protein>
3pbl|protein|mol2

> <Gold.Protein.RotatedTorsions>
[ 1303 1298 1297 1294 ] final -168.77 input  179.99 | X-H torsion
[ 2461 2456 2455 2452 ] final   53.55 input   30.03 | X-H torsion
[ 2515 2510 2509 2506 ] final  -43.97 input  -89.99 | X-H torsion
[ 3721 3712 3711 3710 ] final   32.79 input -179.91 | X-H torsion
[ 3841 3832 3831 3830 ] final  -11.93 input -179.91 | X-H torsion
[ 3767 3762 3761 3758 ] final  -27.95 input  -89.99 | X-H torsion
[ 2472 2467 2466 2463 ] final   -6.24 input  -89.97 | X-H torsion

> <Gold.Protein.ActiveResidues>
 VAL82   VAL86   LEU89   PHE106  VAL107  ASP110  VAL111  MET112  CYS114  THR115 
 CYS181  SER182  ILE183  PHE188  VAL189  ILE190  SER192  SER193  SER196  TRP342 
 PHE345  PHE346  HIS349  VAL350  TYR365  THR369  GLY372  TYR373 

> <Gold.Protein.RotatedAtoms>
    4.7836   -8.7389    4.5786 H   0  0  0  0  0  0  0  0  0  0  0  0  # atno 1303 bound_to 1298
    1.8420   -7.9922    7.3143 H   0  0  0  0  0  0  0  0  0  0  0  0  # atno 2461 bound_to 2456
   -3.7449   -4.9006    8.1577 H   0  0  0  0  0  0  0  0  0  0  0  0  # atno 2472 bound_to 2467
    2.7803   -8.2423    4.3540 H   0  0  0  0  0  0  0  0  0  0  0  0  # atno 2515 bound_to 2510
   -2.4882  -18.0295   13.7588 H   0  0  0  0  0  0  0  0  0  0  0  0  # atno 3721 bound_to 3712
   -5.4933  -22.3757   10.3966 H   0  0  0  0  0  0  0  0  0  0  0  0  # atno 3767 bound_to 3762
    1.6476  -20.3469    9.4886 H   0  0  0  0  0  0  0  0  0  0  0  0  # atno 3841 bound_to 3832
    4.1630  -10.2417    4.7298 LP  0  0  0  0  0  0  0  0  0  0  0  0  # atno 4297 bound_to 1298
    3.4154   -9.1410    3.7831 LP  0  0  0  0  0  0  0  0  0  0  0  0  # atno 4298 bound_to 1298
    0.3463   -8.6368    7.4361 LP  0  0  0  0  0  0  0  0  0  0  0  0  # atno 4299 bound_to 2456
    1.5497   -9.1789    8.3977 LP  0  0  0  0  0  0  0  0  0  0  0  0  # atno 4300 bound_to 2456
    2.4352   -9.1754    5.6486 LP  0  0  0  0  0  0  0  0  0  0  0  0  # atno 4301 bound_to 2510
    2.0811   -7.5815    5.6731 LP  0  0  0  0  0  0  0  0  0  0  0  0  # atno 4302 bound_to 2510
   -3.2099  -17.0360   14.7931 LP  0  0  0  0  0  0  0  0  0  0  0  0  # atno 4306 bound_to 3712
   -3.4451  -16.8750   13.1852 LP  0  0  0  0  0  0  0  0  0  0  0  0  # atno 4307 bound_to 3712
    2.3252  -19.7053    8.1827 LP  0  0  0  0  0  0  0  0  0  0  0  0  # atno 4314 bound_to 3832
    3.0009  -20.9962    8.9202 LP  0  0  0  0  0  0  0  0  0  0  0  0  # atno 4315 bound_to 3832
   -4.4626  -22.1733   11.6469 LP  0  0  0  0  0  0  0  0  0  0  0  0  # atno 4318 bound_to 3762
   -4.1717  -23.3260   10.5274 LP  0  0  0  0  0  0  0  0  0  0  0  0  # atno 4319 bound_to 3762
   -4.6036   -5.4535    9.4318 LP  0  0  0  0  0  0  0  0  0  0  0  0  # atno 4320 bound_to 2467
   -5.3683   -5.0394    8.0496 LP  0  0  0  0  0  0  0  0  0  0  0  0  # atno 4321 bound_to 2467

> <Gold.Score>
     Score     S(PLP)   S(hbond)     S(cho)   S(metal)  DE(clash)   DE(tors)     intcor
     45.75     -43.12       1.00       0.00       0.00       0.01       1.29       2.22

> <Gold.PLP.Fitness>
45.7493

> <Gold.PLP.PLP>
-43.1205

> <Gold.PLP.part.hbond>
-1.0000

> <Gold.PLP.part.metal>
0.0000

> <Gold.PLP.part.buried>
-5.7793

> <Gold.PLP.part.nonpolar>
-35.7451

> <Gold.PLP.part.repulsive>
0.2025

> <Gold.PLP.ligand.clash>
0.0130

> <Gold.PLP.ligand.torsion>
1.2912

> <Gold.PLP.Chemscore.Hbond>
1.0000

> <Gold.PLP.Chemscore.CHOScore>
0.0000

> <Gold.PLP.Chemscore.Metal>
0.0000

> <Gold.Chemscore.Hbonds>
donor molecule, donor type, donor heavy atom, donor atom, acceptor molecule, acceptor atom, score
      P1  H  3712  3721       L1     3  1.00

> <Gold.PLP.Chemscore.Internal.Correction>
2.2242

