#       Name:                EN300-1198129_i001
#       Creating user name   fsindt
#       Creation time:       Mon Feb 27 17:32:00 2023


#       File generated by GOLD software.
#

@<TRIPOS>MOLECULE
EN300-1198129_i001|acide_1|mol2|127|dock19
    25    25     1
SMALL
USER_CHARGES


@<TRIPOS>ATOM
      1 O1          -0.3046 -17.2320  10.9820 O.co2          1 <1>               -1.0000
      2 C2          -0.0992 -16.0437  11.1864 C.2            1 <1>                0.0000
      3 O3           0.1100 -15.6461  12.3241 O.co2          1 <1>                0.0000
      4 C4          -0.0979 -15.0920  10.0614 C.ar           1 <1>                0.0000
      5 C5          -0.0950 -13.7157  10.3052 C.ar           1 <1>                0.0000
      6 C6          -0.0937 -12.8313   9.2479 C.ar           1 <1>                0.0000
      7 C7          -0.0957 -13.3016   7.9456 C.ar           1 <1>                0.0000
      8 C8          -0.0987 -14.6609   7.6932 C.ar           1 <1>                0.0000
      9 C9          -0.0936 -15.5616   8.7423 C.ar           1 <1>                0.0000
     10 F10         -0.0964 -16.8898   8.4955 F              1 <1>                0.0000
     11 S11         -0.0901 -11.0963   9.5546 S.o2           1 <1>                0.0000
     12 O12          1.2590 -10.8027   9.8907 O.2            1 <1>                0.0000
     13 O13         -0.6960 -10.5347   8.3985 O.2            1 <1>                0.0000
     14 C14         -1.1656 -10.8901  11.0008 C.3            1 <1>                0.0000
     15 C15         -2.3179  -9.9470  10.6491 C.3            1 <1>                0.0000
     16 C16         -3.4317 -10.7237  10.0809 C.1            1 <1>                0.0000
     17 C17         -4.3201 -11.3431   9.6277 C.1            1 <1>                0.0000
     18 H18         -0.0940 -13.3459  11.3199 H              1 <1>                0.0000
     19 H19         -0.0955 -12.6026   7.1222 H              1 <1>                0.0000
     20 H20         -0.1002 -15.0199   6.6747 H              1 <1>                0.0000
     21 H21         -1.5669 -11.8595  11.2963 H              1 <1>                0.0000
     22 H22         -0.5898 -10.4688  11.8248 H              1 <1>                0.0000
     23 H23         -2.6551  -9.4338  11.5497 H              1 <1>                0.0000
     24 H24         -1.9769  -9.2132   9.9188 H              1 <1>                0.0000
     25 H25         -5.1147 -11.8971   9.2224 H              1 <1>                0.0000
@<TRIPOS>BOND
    1    1    2 ar    
    2    2    3 ar    
    3    2    4 1     
    4    4    5 ar    
    5    4    9 ar    
    6    5    6 ar    
    7    5   18 1     
    8    6    7 ar    
    9    6   11 1     
   10    7    8 ar    
   11    7   19 1     
   12    8    9 ar    
   13    8   20 1     
   14    9   10 1     
   15   11   12 2     
   16   11   13 2     
   17   11   14 1     
   18   14   15 1     
   19   14   21 1     
   20   14   22 1     
   21   15   16 1     
   22   15   23 1     
   23   15   24 1     
   24   16   17 3     
   25   17   25 1     
@<TRIPOS>SUBSTRUCTURE
      1 ****           1
@<TRIPOS>COMMENT
> <Gold.Version>
2022.2.0

> <Gold.Id.Protein>
3pbl|protein|mol2

> <Gold.Protein.RotatedTorsions>
[ 1303 1298 1297 1294 ] final   44.57 input  179.99 | X-H torsion
[ 2461 2456 2455 2452 ] final -110.23 input   30.03 | X-H torsion
[ 2515 2510 2509 2506 ] final  -36.25 input  -89.99 | X-H torsion
[ 3721 3712 3711 3710 ] final   76.65 input -179.91 | X-H torsion
[ 3841 3832 3831 3830 ] final  -40.77 input -179.91 | X-H torsion
[ 3767 3762 3761 3758 ] final   92.25 input  -89.99 | X-H torsion
[ 2472 2467 2466 2463 ] final -123.79 input  -89.97 | X-H torsion

> <Gold.Protein.ActiveResidues>
 VAL82   VAL86   LEU89   PHE106  VAL107  ASP110  VAL111  MET112  CYS114  THR115 
 CYS181  SER182  ILE183  PHE188  VAL189  ILE190  SER192  SER193  SER196  TRP342 
 PHE345  PHE346  HIS349  VAL350  TYR365  THR369  GLY372  TYR373 

> <Gold.Protein.RotatedAtoms>
    3.8038  -10.2532    4.4853 H   0  0  0  0  0  0  0  0  0  0  0  0  # atno 1303 bound_to 1298
    0.4795   -9.1014    7.9467 H   0  0  0  0  0  0  0  0  0  0  0  0  # atno 2461 bound_to 2456
   -4.5634   -5.4504    9.4334 H   0  0  0  0  0  0  0  0  0  0  0  0  # atno 2472 bound_to 2467
    2.7497   -8.1195    4.3638 H   0  0  0  0  0  0  0  0  0  0  0  0  # atno 2515 bound_to 2510
   -2.6907  -17.7619   13.2058 H   0  0  0  0  0  0  0  0  0  0  0  0  # atno 3721 bound_to 3712
   -4.1691  -23.3252   10.5295 H   0  0  0  0  0  0  0  0  0  0  0  0  # atno 3767 bound_to 3762
    1.5616  -20.0071    9.2375 H   0  0  0  0  0  0  0  0  0  0  0  0  # atno 3841 bound_to 3832
    3.6513   -8.7763    3.8056 LP  0  0  0  0  0  0  0  0  0  0  0  0  # atno 4297 bound_to 1298
    4.9072   -9.0915    4.8006 LP  0  0  0  0  0  0  0  0  0  0  0  0  # atno 4298 bound_to 1298
    2.0626   -8.7613    8.1596 LP  0  0  0  0  0  0  0  0  0  0  0  0  # atno 4299 bound_to 2456
    1.1954   -7.9456    7.0419 LP  0  0  0  0  0  0  0  0  0  0  0  0  # atno 4300 bound_to 2456
    2.4894   -9.2190    5.5424 LP  0  0  0  0  0  0  0  0  0  0  0  0  # atno 4301 bound_to 2510
    2.0575   -7.6607    5.7695 LP  0  0  0  0  0  0  0  0  0  0  0  0  # atno 4302 bound_to 2510
   -2.8540  -17.6561   14.7995 LP  0  0  0  0  0  0  0  0  0  0  0  0  # atno 4306 bound_to 3712
   -3.5672  -16.5638   13.8173 LP  0  0  0  0  0  0  0  0  0  0  0  0  # atno 4307 bound_to 3712
    2.7352  -19.9459    8.1443 LP  0  0  0  0  0  0  0  0  0  0  0  0  # atno 4314 bound_to 3832
    2.6903  -21.1481    9.2486 LP  0  0  0  0  0  0  0  0  0  0  0  0  # atno 4315 bound_to 3832
   -5.4930  -22.3786   10.3948 LP  0  0  0  0  0  0  0  0  0  0  0  0  # atno 4318 bound_to 3762
   -4.4651  -22.1715   11.6467 LP  0  0  0  0  0  0  0  0  0  0  0  0  # atno 4319 bound_to 3762
   -5.3889   -5.0533    8.0817 LP  0  0  0  0  0  0  0  0  0  0  0  0  # atno 4320 bound_to 2467
   -3.7646   -4.8899    8.1242 LP  0  0  0  0  0  0  0  0  0  0  0  0  # atno 4321 bound_to 2467

> <Gold.Score>
     Score     S(PLP)   S(hbond)     S(cho)   S(metal)  DE(clash)   DE(tors)     intcor
     54.28     -51.94       1.00       0.00       0.00       0.00       1.44       2.22

> <Gold.PLP.Fitness>
54.2797

> <Gold.PLP.PLP>
-51.9414

> <Gold.PLP.part.hbond>
-1.9556

> <Gold.PLP.part.metal>
0.0000

> <Gold.PLP.part.buried>
-2.1131

> <Gold.PLP.part.nonpolar>
-48.5899

> <Gold.PLP.part.repulsive>
0.1825

> <Gold.PLP.ligand.clash>
0.0000

> <Gold.PLP.ligand.torsion>
1.4430

> <Gold.PLP.Chemscore.Hbond>
1.0000

> <Gold.PLP.Chemscore.CHOScore>
0.0000

> <Gold.PLP.Chemscore.Metal>
0.0000

> <Gold.Chemscore.Hbonds>
donor molecule, donor type, donor heavy atom, donor atom, acceptor molecule, acceptor atom, score
      P1  H  2456  2461       L1    13  1.00

> <Gold.PLP.Chemscore.Internal.Correction>
2.2242

