#       Name:                EN300-1198129_i001
#       Creating user name   fsindt
#       Creation time:       Mon Feb 27 17:31:50 2023


#       File generated by GOLD software.
#

@<TRIPOS>MOLECULE
EN300-1198129_i001|acide_1|mol2|127|dock9
    25    25     1
SMALL
USER_CHARGES


@<TRIPOS>ATOM
      1 O1           0.0714 -15.4953  13.0118 O.co2          1 <1>               -1.0000
      2 C2          -0.3298 -16.2651  12.1501 C.2            1 <1>                0.0000
      3 O3          -0.7790 -17.3577  12.4674 O.co2          1 <1>                0.0000
      4 C4          -0.2777 -15.8739  10.7304 C.ar           1 <1>                0.0000
      5 C5          -0.0559 -14.5399  10.3768 C.ar           1 <1>                0.0000
      6 C6          -0.0084 -14.1812   9.0467 C.ar           1 <1>                0.0000
      7 C7          -0.1800 -15.1375   8.0601 C.ar           1 <1>                0.0000
      8 C8          -0.4001 -16.4597   8.3988 C.ar           1 <1>                0.0000
      9 C9          -0.4444 -16.8374   9.7282 C.ar           1 <1>                0.0000
     10 F10         -0.6594 -18.1295  10.0590 F              1 <1>                0.0000
     11 S11          0.2712 -12.4998   8.6004 S.o2           1 <1>                0.0000
     12 O12          1.1192 -12.0014   9.6259 O.2            1 <1>                0.0000
     13 O13          0.7129 -12.5641   7.2513 O.2            1 <1>                0.0000
     14 C14         -1.3671 -11.7273   8.6976 C.3            1 <1>                0.0000
     15 C15         -1.8344 -11.7042  10.1543 C.3            1 <1>                0.0000
     16 C16         -3.1653 -11.0801  10.2329 C.1            1 <1>                0.0000
     17 C17         -4.2268 -10.5825  10.2955 C.1            1 <1>                0.0000
     18 H18          0.0778 -13.7917  11.1441 H              1 <1>                0.0000
     19 H19         -0.1423 -14.8487   7.0201 H              1 <1>                0.0000
     20 H20         -0.5331 -17.1996   7.6236 H              1 <1>                0.0000
     21 H21         -1.3110 -10.7072   8.3179 H              1 <1>                0.0000
     22 H22         -2.0750 -12.2997   8.0981 H              1 <1>                0.0000
     23 H23         -1.8885 -12.7242  10.5348 H              1 <1>                0.0000
     24 H24         -1.1279 -11.1298  10.7535 H              1 <1>                0.0000
     25 H25         -5.1762 -10.1374  10.3514 H              1 <1>                0.0000
@<TRIPOS>BOND
    1    1    2 ar    
    2    2    3 ar    
    3    2    4 1     
    4    4    5 ar    
    5    4    9 ar    
    6    5    6 ar    
    7    5   18 1     
    8    6    7 ar    
    9    6   11 1     
   10    7    8 ar    
   11    7   19 1     
   12    8    9 ar    
   13    8   20 1     
   14    9   10 1     
   15   11   12 2     
   16   11   13 2     
   17   11   14 1     
   18   14   15 1     
   19   14   21 1     
   20   14   22 1     
   21   15   16 1     
   22   15   23 1     
   23   15   24 1     
   24   16   17 3     
   25   17   25 1     
@<TRIPOS>SUBSTRUCTURE
      1 ****           1
@<TRIPOS>COMMENT
> <Gold.Version>
2022.2.0

> <Gold.Id.Protein>
3pbl|protein|mol2

> <Gold.Protein.RotatedTorsions>
[ 1303 1298 1297 1294 ] final -137.90 input  179.99 | X-H torsion
[ 2461 2456 2455 2452 ] final -104.17 input   30.03 | X-H torsion
[ 2515 2510 2509 2506 ] final  -70.35 input  -89.99 | X-H torsion
[ 3721 3712 3711 3710 ] final   72.98 input -179.91 | X-H torsion
[ 3841 3832 3831 3830 ] final   40.36 input -179.91 | X-H torsion
[ 3767 3762 3761 3758 ] final   20.00 input  -89.99 | X-H torsion
[ 2472 2467 2466 2463 ] final  -73.85 input  -89.97 | X-H torsion

> <Gold.Protein.ActiveResidues>
 VAL82   VAL86   LEU89   PHE106  VAL107  ASP110  VAL111  MET112  CYS114  THR115 
 CYS181  SER182  ILE183  PHE188  VAL189  ILE190  SER192  SER193  SER196  TRP342 
 PHE345  PHE346  HIS349  VAL350  TYR365  THR369  GLY372  TYR373 

> <Gold.Protein.RotatedAtoms>
    4.4682   -8.5028    4.2678 H   0  0  0  0  0  0  0  0  0  0  0  0  # atno 1303 bound_to 1298
    0.4309   -9.0489    7.8773 H   0  0  0  0  0  0  0  0  0  0  0  0  # atno 2461 bound_to 2456
   -3.8489   -5.2646    9.1361 H   0  0  0  0  0  0  0  0  0  0  0  0  # atno 2472 bound_to 2467
    2.8349   -8.6605    4.4384 H   0  0  0  0  0  0  0  0  0  0  0  0  # atno 2515 bound_to 2510
   -2.6669  -17.7980   13.2405 H   0  0  0  0  0  0  0  0  0  0  0  0  # atno 3721 bound_to 3712
   -5.1097  -22.9521   10.0685 H   0  0  0  0  0  0  0  0  0  0  0  0  # atno 3767 bound_to 3762
    2.2027  -20.8578    9.6022 H   0  0  0  0  0  0  0  0  0  0  0  0  # atno 3841 bound_to 3832
    4.5624   -9.9997    4.9135 LP  0  0  0  0  0  0  0  0  0  0  0  0  # atno 4297 bound_to 1298
    3.3314   -9.6191    3.9103 LP  0  0  0  0  0  0  0  0  0  0  0  0  # atno 4298 bound_to 1298
    2.0144   -8.8309    8.2122 LP  0  0  0  0  0  0  0  0  0  0  0  0  # atno 4299 bound_to 2456
    1.2922   -7.9285    7.0587 LP  0  0  0  0  0  0  0  0  0  0  0  0  # atno 4300 bound_to 2456
    2.2555   -8.9181    5.9430 LP  0  0  0  0  0  0  0  0  0  0  0  0  # atno 4301 bound_to 2510
    2.2062   -7.4203    5.2943 LP  0  0  0  0  0  0  0  0  0  0  0  0  # atno 4302 bound_to 2510
   -2.8813  -17.6052   14.8200 LP  0  0  0  0  0  0  0  0  0  0  0  0  # atno 4306 bound_to 3712
   -3.5673  -16.5730   13.7567 LP  0  0  0  0  0  0  0  0  0  0  0  0  # atno 4307 bound_to 3712
    1.6137  -19.7195    8.6361 LP  0  0  0  0  0  0  0  0  0  0  0  0  # atno 4314 bound_to 3832
    3.0712  -20.3918    8.3355 LP  0  0  0  0  0  0  0  0  0  0  0  0  # atno 4315 bound_to 3832
   -5.1107  -21.9154   11.3302 LP  0  0  0  0  0  0  0  0  0  0  0  0  # atno 4318 bound_to 3762
   -3.9072  -23.0077   11.1720 LP  0  0  0  0  0  0  0  0  0  0  0  0  # atno 4319 bound_to 3762
   -5.4508   -5.3283    8.8260 LP  0  0  0  0  0  0  0  0  0  0  0  0  # atno 4320 bound_to 2467
   -4.4171   -4.8006    7.6772 LP  0  0  0  0  0  0  0  0  0  0  0  0  # atno 4321 bound_to 2467

> <Gold.Score>
     Score     S(PLP)   S(hbond)     S(cho)   S(metal)  DE(clash)   DE(tors)     intcor
     47.76     -45.40       0.88       0.00       0.00       0.00       1.25       2.23

> <Gold.PLP.Fitness>
47.7614

> <Gold.PLP.PLP>
-45.4016

> <Gold.PLP.part.hbond>
-1.0000

> <Gold.PLP.part.metal>
0.0000

> <Gold.PLP.part.buried>
-4.3070

> <Gold.PLP.part.nonpolar>
-40.3213

> <Gold.PLP.part.repulsive>
0.1310

> <Gold.PLP.ligand.clash>
0.0000

> <Gold.PLP.ligand.torsion>
1.2539

> <Gold.PLP.Chemscore.Hbond>
0.8800

> <Gold.PLP.Chemscore.CHOScore>
0.0000

> <Gold.PLP.Chemscore.Metal>
0.0000

> <Gold.Chemscore.Hbonds>
donor molecule, donor type, donor heavy atom, donor atom, acceptor molecule, acceptor atom, score
      P1  H  3712  3721       L1     3  0.88

> <Gold.PLP.Chemscore.Internal.Correction>
2.2277

