#       Name:                EN300-1198129_i001
#       Creating user name   fsindt
#       Creation time:       Mon Feb 27 17:31:44 2023


#       File generated by GOLD software.
#

@<TRIPOS>MOLECULE
EN300-1198129_i001|acide_1|mol2|127|dock2
    25    25     1
SMALL
USER_CHARGES


@<TRIPOS>ATOM
      1 O1           0.0773 -15.2613  13.2069 O.co2          1 <1>               -1.0000
      2 C2          -0.3925 -15.7871  12.2073 C.2            1 <1>                0.0000
      3 O3          -0.9969 -16.8465  12.3003 O.co2          1 <1>                0.0000
      4 C4          -0.2354 -15.1414  10.8922 C.ar           1 <1>                0.0000
      5 C5          -0.1788 -13.7480  10.7957 C.ar           1 <1>                0.0000
      6 C6          -0.0318 -13.1509   9.5621 C.ar           1 <1>                0.0000
      7 C7           0.0595 -13.9262   8.4186 C.ar           1 <1>                0.0000
      8 C8           0.0046 -15.3051   8.5026 C.ar           1 <1>                0.0000
      9 C9          -0.1363 -15.9203   9.7329 C.ar           1 <1>                0.0000
     10 F10         -0.1899 -17.2677   9.8148 F              1 <1>                0.0000
     11 S11          0.0396 -11.3946   9.4399 S.o2           1 <1>                0.0000
     12 O12          0.3047 -10.9615  10.7671 O.2            1 <1>                0.0000
     13 O13          0.9678 -11.1537   8.3914 O.2            1 <1>                0.0000
     14 C14         -1.6330 -10.9078   8.9338 C.3            1 <1>                0.0000
     15 C15         -2.3738 -10.3081  10.1306 C.3            1 <1>                0.0000
     16 C16         -3.8145 -10.5817  10.0032 C.1            1 <1>                0.0000
     17 C17         -4.9636 -10.7998   9.9015 C.1            1 <1>                0.0000
     18 H18         -0.2504 -13.1407  11.6858 H              1 <1>                0.0000
     19 H19          0.1738 -13.4511   7.4554 H              1 <1>                0.0000
     20 H20          0.0765 -15.9029   7.6061 H              1 <1>                0.0000
     21 H21         -1.5702 -10.1667   8.1369 H              1 <1>                0.0000
     22 H22         -2.1731 -11.7834   8.5738 H              1 <1>                0.0000
     23 H23         -1.9991 -10.7556  11.0512 H              1 <1>                0.0000
     24 H24         -2.2095  -9.2309  10.1572 H              1 <1>                0.0000
     25 H25         -5.9913 -10.9949   9.8107 H              1 <1>                0.0000
@<TRIPOS>BOND
    1    1    2 ar    
    2    2    3 ar    
    3    2    4 1     
    4    4    5 ar    
    5    4    9 ar    
    6    5    6 ar    
    7    5   18 1     
    8    6    7 ar    
    9    6   11 1     
   10    7    8 ar    
   11    7   19 1     
   12    8    9 ar    
   13    8   20 1     
   14    9   10 1     
   15   11   12 2     
   16   11   13 2     
   17   11   14 1     
   18   14   15 1     
   19   14   21 1     
   20   14   22 1     
   21   15   16 1     
   22   15   23 1     
   23   15   24 1     
   24   16   17 3     
   25   17   25 1     
@<TRIPOS>SUBSTRUCTURE
      1 ****           1
@<TRIPOS>COMMENT
> <Gold.Version>
2022.2.0

> <Gold.Id.Protein>
3pbl|protein|mol2

> <Gold.Protein.RotatedTorsions>
[ 1303 1298 1297 1294 ] final   23.27 input  179.99 | X-H torsion
[ 2461 2456 2455 2452 ] final -168.32 input   30.03 | X-H torsion
[ 2515 2510 2509 2506 ] final  -87.71 input  -89.99 | X-H torsion
[ 3721 3712 3711 3710 ] final   90.76 input -179.91 | X-H torsion
[ 3841 3832 3831 3830 ] final  171.43 input -179.91 | X-H torsion
[ 3767 3762 3761 3758 ] final   49.83 input  -89.99 | X-H torsion
[ 2472 2467 2466 2463 ] final  141.97 input  -89.97 | X-H torsion

> <Gold.Protein.ActiveResidues>
 VAL82   VAL86   LEU89   PHE106  VAL107  ASP110  VAL111  MET112  CYS114  THR115 
 CYS181  SER182  ILE183  PHE188  VAL189  ILE190  SER192  SER193  SER196  TRP342 
 PHE345  PHE346  HIS349  VAL350  TYR365  THR369  GLY372  TYR373 

> <Gold.Protein.RotatedAtoms>
    3.5621  -10.1270    4.2683 H   0  0  0  0  0  0  0  0  0  0  0  0  # atno 1303 bound_to 1298
    1.2659   -9.2662    8.3859 H   0  0  0  0  0  0  0  0  0  0  0  0  # atno 2461 bound_to 2456
   -5.5081   -5.2021    8.4561 H   0  0  0  0  0  0  0  0  0  0  0  0  # atno 2472 bound_to 2467
    2.8250   -8.9035    4.5859 H   0  0  0  0  0  0  0  0  0  0  0  0  # atno 2515 bound_to 2510
   -2.7894  -17.6062   13.0995 H   0  0  0  0  0  0  0  0  0  0  0  0  # atno 3721 bound_to 3712
   -4.7108  -23.2225   10.1275 H   0  0  0  0  0  0  0  0  0  0  0  0  # atno 3767 bound_to 3762
    3.0248  -20.1499    8.4593 H   0  0  0  0  0  0  0  0  0  0  0  0  # atno 3841 bound_to 3832
    3.9148   -8.5734    3.9100 LP  0  0  0  0  0  0  0  0  0  0  0  0  # atno 4297 bound_to 1298
    4.8855   -9.4206    4.9133 LP  0  0  0  0  0  0  0  0  0  0  0  0  # atno 4298 bound_to 1298
    2.0284   -8.1201    7.5071 LP  0  0  0  0  0  0  0  0  0  0  0  0  # atno 4299 bound_to 2456
    0.4434   -8.4220    7.2554 LP  0  0  0  0  0  0  0  0  0  0  0  0  # atno 4300 bound_to 2456
    2.1552   -8.6778    6.0577 LP  0  0  0  0  0  0  0  0  0  0  0  0  # atno 4301 bound_to 2510
    2.3163   -7.4175    5.0319 LP  0  0  0  0  0  0  0  0  0  0  0  0  # atno 4302 bound_to 2510
   -2.7587  -17.8398   14.6877 LP  0  0  0  0  0  0  0  0  0  0  0  0  # atno 4306 bound_to 3712
   -3.5486  -16.5599   14.0517 LP  0  0  0  0  0  0  0  0  0  0  0  0  # atno 4307 bound_to 3712
    2.2436  -21.1046    9.4861 LP  0  0  0  0  0  0  0  0  0  0  0  0  # atno 4314 bound_to 3832
    1.4917  -19.8246    8.8057 LP  0  0  0  0  0  0  0  0  0  0  0  0  # atno 4315 bound_to 3832
   -5.4030  -21.9937   10.9507 LP  0  0  0  0  0  0  0  0  0  0  0  0  # atno 4318 bound_to 3762
   -4.0136  -22.6591   11.4926 LP  0  0  0  0  0  0  0  0  0  0  0  0  # atno 4319 bound_to 3762
   -4.0521   -4.8144    7.8268 LP  0  0  0  0  0  0  0  0  0  0  0  0  # atno 4320 bound_to 2467
   -4.1569   -5.3771    9.3562 LP  0  0  0  0  0  0  0  0  0  0  0  0  # atno 4321 bound_to 2467

> <Gold.Score>
     Score     S(PLP)   S(hbond)     S(cho)   S(metal)  DE(clash)   DE(tors)     intcor
     50.23     -46.51       1.78       0.00       0.00       0.00       1.93       2.25

> <Gold.PLP.Fitness>
50.2295

> <Gold.PLP.PLP>
-46.5140

> <Gold.PLP.part.hbond>
-2.0000

> <Gold.PLP.part.metal>
0.0000

> <Gold.PLP.part.buried>
-0.4989

> <Gold.PLP.part.nonpolar>
-44.6247

> <Gold.PLP.part.repulsive>
0.1360

> <Gold.PLP.ligand.clash>
0.0000

> <Gold.PLP.ligand.torsion>
1.9341

> <Gold.PLP.Chemscore.Hbond>
1.7771

> <Gold.PLP.Chemscore.CHOScore>
0.0000

> <Gold.PLP.Chemscore.Metal>
0.0000

> <Gold.Chemscore.Hbonds>
donor molecule, donor type, donor heavy atom, donor atom, acceptor molecule, acceptor atom, score
      P1  H  2456  2461       L1    13  1.00
      P1  H  3712  3721       L1     3  0.78

> <Gold.PLP.Chemscore.Internal.Correction>
2.2522

