#       Name:                EN300-1198129_i001
#       Creating user name   fsindt
#       Creation time:       Mon Feb 27 17:31:43 2023


#       File generated by GOLD software.
#

@<TRIPOS>MOLECULE
EN300-1198129_i001|acide_1|mol2|127|dock1
    25    25     1
SMALL
USER_CHARGES


@<TRIPOS>ATOM
      1 O1          -2.0043 -11.2838  11.8089 O.co2          1 <1>               -1.0000
      2 C2          -1.6240 -11.7341  10.7370 C.2            1 <1>                0.0000
      3 O3          -2.0086 -11.2300   9.6910 O.co2          1 <1>                0.0000
      4 C4          -0.6978 -12.8797  10.7062 C.ar           1 <1>                0.0000
      5 C5          -0.7068 -13.8188  11.7415 C.ar           1 <1>                0.0000
      6 C6           0.1624 -14.8879  11.7059 C.ar           1 <1>                0.0000
      7 C7           1.0444 -15.0345  10.6487 C.ar           1 <1>                0.0000
      8 C8           1.0618 -14.1115   9.6196 C.ar           1 <1>                0.0000
      9 C9           0.1921 -13.0367   9.6367 C.ar           1 <1>                0.0000
     10 F10          0.2092 -12.1349   8.6309 F              1 <1>                0.0000
     11 S11          0.1515 -16.0719  13.0107 S.o2           1 <1>                0.0000
     12 O12         -0.0758 -15.3004  14.1822 O.2            1 <1>                0.0000
     13 O13         -0.7851 -17.0526  12.5862 O.2            1 <1>                0.0000
     14 C14          1.8315 -16.7560  13.0152 C.3            1 <1>                0.0000
     15 C15          2.2206 -17.1436  14.4432 C.3            1 <1>                0.0000
     16 C16          1.4369 -18.3165  14.8641 C.1            1 <1>                0.0000
     17 C17          0.8119 -19.2519  15.1998 C.1            1 <1>                0.0000
     18 H18         -1.3933 -13.7067  12.5677 H              1 <1>                0.0000
     19 H19          1.7231 -15.8745  10.6282 H              1 <1>                0.0000
     20 H20          1.7527 -14.2328   8.7985 H              1 <1>                0.0000
     21 H21          1.8661 -17.6389  12.3769 H              1 <1>                0.0000
     22 H22          2.5295 -16.0082  12.6387 H              1 <1>                0.0000
     23 H23          3.2829 -17.3853  14.4774 H              1 <1>                0.0000
     24 H24          2.0158 -16.3099  15.1147 H              1 <1>                0.0000
     25 H25          0.2529 -20.0885  15.4999 H              1 <1>                0.0000
@<TRIPOS>BOND
    1    1    2 ar    
    2    2    3 ar    
    3    2    4 1     
    4    4    5 ar    
    5    4    9 ar    
    6    5    6 ar    
    7    5   18 1     
    8    6    7 ar    
    9    6   11 1     
   10    7    8 ar    
   11    7   19 1     
   12    8    9 ar    
   13    8   20 1     
   14    9   10 1     
   15   11   12 2     
   16   11   13 2     
   17   11   14 1     
   18   14   15 1     
   19   14   21 1     
   20   14   22 1     
   21   15   16 1     
   22   15   23 1     
   23   15   24 1     
   24   16   17 3     
   25   17   25 1     
@<TRIPOS>SUBSTRUCTURE
      1 ****           1
@<TRIPOS>COMMENT
> <Gold.Version>
2022.2.0

> <Gold.Id.Protein>
3pbl|protein|mol2

> <Gold.Protein.RotatedTorsions>
[ 1303 1298 1297 1294 ] final  -43.57 input  179.99 | X-H torsion
[ 2461 2456 2455 2452 ] final -164.21 input   30.03 | X-H torsion
[ 2515 2510 2509 2506 ] final   45.52 input  -89.99 | X-H torsion
[ 3721 3712 3711 3710 ] final   68.79 input -179.91 | X-H torsion
[ 3841 3832 3831 3830 ] final   30.84 input -179.91 | X-H torsion
[ 3767 3762 3761 3758 ] final   89.13 input  -89.99 | X-H torsion
[ 2472 2467 2466 2463 ] final  119.95 input  -89.97 | X-H torsion

> <Gold.Protein.ActiveResidues>
 VAL82   VAL86   LEU89   PHE106  VAL107  ASP110  VAL111  MET112  CYS114  THR115 
 CYS181  SER182  ILE183  PHE188  VAL189  ILE190  SER192  SER193  SER196  TRP342 
 PHE345  PHE346  HIS349  VAL350  TYR365  THR369  GLY372  TYR373 

> <Gold.Protein.RotatedAtoms>
    3.3857   -9.2204    3.7940 H   0  0  0  0  0  0  0  0  0  0  0  0  # atno 1303 bound_to 1298
    1.2003   -9.2770    8.3738 H   0  0  0  0  0  0  0  0  0  0  0  0  # atno 2461 bound_to 2456
   -5.4171   -5.0752    8.1317 H   0  0  0  0  0  0  0  0  0  0  0  0  # atno 2472 bound_to 2467
    2.2311   -7.4123    5.2316 H   0  0  0  0  0  0  0  0  0  0  0  0  # atno 2515 bound_to 2510
   -2.6410  -17.8366   13.2835 H   0  0  0  0  0  0  0  0  0  0  0  0  # atno 3721 bound_to 3712
   -4.2022  -23.3307   10.4906 H   0  0  0  0  0  0  0  0  0  0  0  0  # atno 3767 bound_to 3762
    2.0769  -20.7908    9.6201 H   0  0  0  0  0  0  0  0  0  0  0  0  # atno 3841 bound_to 3832
    4.7422   -8.6839    4.5278 LP  0  0  0  0  0  0  0  0  0  0  0  0  # atno 4297 bound_to 1298
    4.2346  -10.2170    4.7700 LP  0  0  0  0  0  0  0  0  0  0  0  0  # atno 4298 bound_to 1298
    2.0604   -8.1563    7.5543 LP  0  0  0  0  0  0  0  0  0  0  0  0  # atno 4299 bound_to 2456
    0.4770   -8.3751    7.2202 LP  0  0  0  0  0  0  0  0  0  0  0  0  # atno 4300 bound_to 2456
    2.8359   -8.7221    4.4670 LP  0  0  0  0  0  0  0  0  0  0  0  0  # atno 4301 bound_to 2510
    2.2298   -8.8651    5.9767 LP  0  0  0  0  0  0  0  0  0  0  0  0  # atno 4302 bound_to 2510
   -2.9136  -17.5460   14.8388 LP  0  0  0  0  0  0  0  0  0  0  0  0  # atno 4306 bound_to 3712
   -3.5650  -16.5876   13.6883 LP  0  0  0  0  0  0  0  0  0  0  0  0  # atno 4307 bound_to 3712
    1.7189  -19.6710    8.5274 LP  0  0  0  0  0  0  0  0  0  0  0  0  # atno 4314 bound_to 3832
    3.1113  -20.5179    8.4236 LP  0  0  0  0  0  0  0  0  0  0  0  0  # atno 4315 bound_to 3832
   -5.5011  -22.3427   10.4306 LP  0  0  0  0  0  0  0  0  0  0  0  0  # atno 4318 bound_to 3762
   -4.4238  -22.2019   11.6497 LP  0  0  0  0  0  0  0  0  0  0  0  0  # atno 4319 bound_to 3762
   -3.7975   -4.8754    8.0740 LP  0  0  0  0  0  0  0  0  0  0  0  0  # atno 4320 bound_to 2467
   -4.5024   -5.4429    9.4334 LP  0  0  0  0  0  0  0  0  0  0  0  0  # atno 4321 bound_to 2467

> <Gold.Score>
     Score     S(PLP)   S(hbond)     S(cho)   S(metal)  DE(clash)   DE(tors)     intcor
     51.83     -48.69       1.65       0.00       0.00       0.00       2.04       2.26

> <Gold.PLP.Fitness>
51.8265

> <Gold.PLP.PLP>
-48.6923

> <Gold.PLP.part.hbond>
-2.4485

> <Gold.PLP.part.metal>
0.0000

> <Gold.PLP.part.buried>
-1.9225

> <Gold.PLP.part.nonpolar>
-44.8952

> <Gold.PLP.part.repulsive>
0.2239

> <Gold.PLP.ligand.clash>
0.0000

> <Gold.PLP.ligand.torsion>
2.0396

> <Gold.PLP.Chemscore.Hbond>
1.6521

> <Gold.PLP.Chemscore.CHOScore>
0.0000

> <Gold.PLP.Chemscore.Metal>
0.0000

> <Gold.Chemscore.Hbonds>
donor molecule, donor type, donor heavy atom, donor atom, acceptor molecule, acceptor atom, score
      P1  H  2305  2313       L1    12  1.00
      P1  H  3712  3721       L1    13  0.65

> <Gold.PLP.Chemscore.Internal.Correction>
2.2571

