#       Name:                EN300-1198129_i001
#       Creating user name   fsindt
#       Creation time:       Mon Feb 27 17:31:45 2023


#       File generated by GOLD software.
#

@<TRIPOS>MOLECULE
EN300-1198129_i001|acide_1|mol2|127|dock3
    25    25     1
SMALL
USER_CHARGES


@<TRIPOS>ATOM
      1 O1           0.6294 -13.1002   7.3186 O.co2          1 <1>               -1.0000
      2 C2           0.7678 -13.9972   8.1386 C.2            1 <1>                0.0000
      3 O3           1.3930 -15.0058   7.8420 O.co2          1 <1>                0.0000
      4 C4           0.1867 -13.8600   9.4857 C.ar           1 <1>                0.0000
      5 C5           0.3820 -14.8619  10.4407 C.ar           1 <1>                0.0000
      6 C6          -0.1646 -14.7268  11.6989 C.ar           1 <1>                0.0000
      7 C7          -0.9066 -13.6027  12.0196 C.ar           1 <1>                0.0000
      8 C8          -1.1061 -12.6058  11.0826 C.ar           1 <1>                0.0000
      9 C9          -0.5594 -12.7227   9.8180 C.ar           1 <1>                0.0000
     10 F10         -0.7544 -11.7485   8.9026 F              1 <1>                0.0000
     11 S11          0.0813 -15.9893  12.9030 S.o2           1 <1>                0.0000
     12 O12         -0.0215 -15.3113  14.1476 O.2            1 <1>                0.0000
     13 O13         -0.8465 -17.0032  12.5422 O.2            1 <1>                0.0000
     14 C14          1.7823 -16.5549  12.6249 C.3            1 <1>                0.0000
     15 C15          2.0546 -17.7930  13.4815 C.3            1 <1>                0.0000
     16 C16          1.8239 -19.0053  12.6790 C.1            1 <1>                0.0000
     17 C17          1.6401 -19.9722  12.0390 C.1            1 <1>                0.0000
     18 H18          0.9598 -15.7401  10.1932 H              1 <1>                0.0000
     19 H19         -1.3325 -13.5042  13.0073 H              1 <1>                0.0000
     20 H20         -1.6860 -11.7321  11.3405 H              1 <1>                0.0000
     21 H21          1.9145 -16.8052  11.5723 H              1 <1>                0.0000
     22 H22          2.4783 -15.7625  12.9000 H              1 <1>                0.0000
     23 H23          3.0887 -17.7765  13.8256 H              1 <1>                0.0000
     24 H24          1.3853 -17.7940  14.3418 H              1 <1>                0.0000
     25 H25          1.4756 -20.8369  11.4664 H              1 <1>                0.0000
@<TRIPOS>BOND
    1    1    2 ar    
    2    2    3 ar    
    3    2    4 1     
    4    4    5 ar    
    5    4    9 ar    
    6    5    6 ar    
    7    5   18 1     
    8    6    7 ar    
    9    6   11 1     
   10    7    8 ar    
   11    7   19 1     
   12    8    9 ar    
   13    8   20 1     
   14    9   10 1     
   15   11   12 2     
   16   11   13 2     
   17   11   14 1     
   18   14   15 1     
   19   14   21 1     
   20   14   22 1     
   21   15   16 1     
   22   15   23 1     
   23   15   24 1     
   24   16   17 3     
   25   17   25 1     
@<TRIPOS>SUBSTRUCTURE
      1 ****           1
@<TRIPOS>COMMENT
> <Gold.Version>
2022.2.0

> <Gold.Id.Protein>
3pbl|protein|mol2

> <Gold.Protein.RotatedTorsions>
[ 1303 1298 1297 1294 ] final  -92.52 input  179.99 | X-H torsion
[ 2461 2456 2455 2452 ] final -145.69 input   30.03 | X-H torsion
[ 2515 2510 2509 2506 ] final  -23.36 input  -89.99 | X-H torsion
[ 3721 3712 3711 3710 ] final   81.62 input -179.91 | X-H torsion
[ 3841 3832 3831 3830 ] final -150.65 input -179.91 | X-H torsion
[ 3767 3762 3761 3758 ] final   71.07 input  -89.99 | X-H torsion
[ 2472 2467 2466 2463 ] final -138.90 input  -89.97 | X-H torsion

> <Gold.Protein.ActiveResidues>
 VAL82   VAL86   LEU89   PHE106  VAL107  ASP110  VAL111  MET112  CYS114  THR115 
 CYS181  SER182  ILE183  PHE188  VAL189  ILE190  SER192  SER193  SER196  TRP342 
 PHE345  PHE346  HIS349  VAL350  TYR365  THR369  GLY372  TYR373 

> <Gold.Protein.RotatedAtoms>
    3.8590   -8.6056    3.8843 H   0  0  0  0  0  0  0  0  0  0  0  0  # atno 1303 bound_to 1298
    0.9122   -9.2822    8.2784 H   0  0  0  0  0  0  0  0  0  0  0  0  # atno 2461 bound_to 2456
   -4.8081   -5.4640    9.3964 H   0  0  0  0  0  0  0  0  0  0  0  0  # atno 2472 bound_to 2467
    2.6861   -7.9243    4.4147 H   0  0  0  0  0  0  0  0  0  0  0  0  # atno 2515 bound_to 2510
   -2.7243  -17.7098   13.1632 H   0  0  0  0  0  0  0  0  0  0  0  0  # atno 3721 bound_to 3712
   -4.4200  -23.3211   10.2904 H   0  0  0  0  0  0  0  0  0  0  0  0  # atno 3767 bound_to 3762
    2.6367  -19.7579    8.3486 H   0  0  0  0  0  0  0  0  0  0  0  0  # atno 3841 bound_to 3832
    4.8984   -9.3548    4.8967 LP  0  0  0  0  0  0  0  0  0  0  0  0  # atno 4297 bound_to 1298
    3.6049  -10.1612    4.3108 LP  0  0  0  0  0  0  0  0  0  0  0  0  # atno 4298 bound_to 1298
    2.1509   -8.3448    7.7742 LP  0  0  0  0  0  0  0  0  0  0  0  0  # atno 4299 bound_to 2456
    0.6746   -8.1814    7.0957 LP  0  0  0  0  0  0  0  0  0  0  0  0  # atno 4300 bound_to 2456
    2.5771   -9.2558    5.3533 LP  0  0  0  0  0  0  0  0  0  0  0  0  # atno 4301 bound_to 2510
    2.0334   -7.8192    5.9076 LP  0  0  0  0  0  0  0  0  0  0  0  0  # atno 4302 bound_to 2510
   -2.8185  -17.7233   14.7659 LP  0  0  0  0  0  0  0  0  0  0  0  0  # atno 4306 bound_to 3712
   -3.5640  -16.5567   13.9001 LP  0  0  0  0  0  0  0  0  0  0  0  0  # atno 4307 bound_to 3712
    2.7811  -21.1271    9.1735 LP  0  0  0  0  0  0  0  0  0  0  0  0  # atno 4314 bound_to 3832
    1.4025  -20.2549    9.2462 LP  0  0  0  0  0  0  0  0  0  0  0  0  # atno 4315 bound_to 3832
   -5.5017  -22.1545   10.6589 LP  0  0  0  0  0  0  0  0  0  0  0  0  # atno 4318 bound_to 3762
   -4.2056  -22.3997   11.6215 LP  0  0  0  0  0  0  0  0  0  0  0  0  # atno 4319 bound_to 3762
   -5.2405   -4.9717    7.9007 LP  0  0  0  0  0  0  0  0  0  0  0  0  # atno 4320 bound_to 2467
   -3.6684   -4.9579    8.3422 LP  0  0  0  0  0  0  0  0  0  0  0  0  # atno 4321 bound_to 2467

> <Gold.Score>
     Score     S(PLP)   S(hbond)     S(cho)   S(metal)  DE(clash)   DE(tors)     intcor
     50.57     -46.23       1.71       0.00       0.00       0.00       1.52       2.25

> <Gold.PLP.Fitness>
50.5654

> <Gold.PLP.PLP>
-46.2293

> <Gold.PLP.part.hbond>
-2.0000

> <Gold.PLP.part.metal>
0.0000

> <Gold.PLP.part.buried>
-4.6227

> <Gold.PLP.part.nonpolar>
-40.5777

> <Gold.PLP.part.repulsive>
0.4129

> <Gold.PLP.ligand.clash>
0.0000

> <Gold.PLP.ligand.torsion>
1.5249

> <Gold.PLP.Chemscore.Hbond>
1.7113

> <Gold.PLP.Chemscore.CHOScore>
0.0000

> <Gold.PLP.Chemscore.Metal>
0.0000

> <Gold.Chemscore.Hbonds>
donor molecule, donor type, donor heavy atom, donor atom, acceptor molecule, acceptor atom, score
      P1  H  2305  2313       L1    12  0.99
      P1  H  3712  3721       L1    13  0.72

> <Gold.PLP.Chemscore.Internal.Correction>
2.2522

