#       Name:                EN300-1198129_i001
#       Creating user name   fsindt
#       Creation time:       Mon Feb 27 17:32:02 2023


#       File generated by GOLD software.
#

@<TRIPOS>MOLECULE
EN300-1198129_i001|acide_1|mol2|127|dock20
    25    25     1
SMALL
USER_CHARGES


@<TRIPOS>ATOM
      1 O1          -0.5772 -17.5252  13.3454 O.co2          1 <1>               -1.0000
      2 C2          -0.1937 -16.6148  12.6241 C.2            1 <1>                0.0000
      3 O3           0.2683 -15.5959  13.1188 O.co2          1 <1>                0.0000
      4 C4          -0.2826 -16.7479  11.1594 C.ar           1 <1>                0.0000
      5 C5          -0.0167 -15.6498  10.3364 C.ar           1 <1>                0.0000
      6 C6          -0.1019 -15.7818   8.9670 C.ar           1 <1>                0.0000
      7 C7          -0.4502 -16.9979   8.4040 C.ar           1 <1>                0.0000
      8 C8          -0.7154 -18.0904   9.2087 C.ar           1 <1>                0.0000
      9 C9          -0.6283 -17.9768  10.5840 C.ar           1 <1>                0.0000
     10 F10         -0.8874 -19.0445  11.3701 F              1 <1>                0.0000
     11 S11          0.2332 -14.3978   7.9292 S.o2           1 <1>                0.0000
     12 O12          1.5821 -14.5831   7.5228 O.2            1 <1>                0.0000
     13 O13         -0.8253 -14.4062   6.9813 O.2            1 <1>                0.0000
     14 C14          0.0912 -12.9624   9.0292 C.3            1 <1>                0.0000
     15 C15          0.0804 -11.6798   8.1950 C.3            1 <1>                0.0000
     16 C16          0.9386 -11.8565   7.0122 C.1            1 <1>                0.0000
     17 C17          1.6231 -11.9973   6.0689 C.1            1 <1>                0.0000
     18 H18          0.2546 -14.6998  10.7727 H              1 <1>                0.0000
     19 H19         -0.5157 -17.0934   7.3302 H              1 <1>                0.0000
     20 H20         -0.9864 -19.0355   8.7621 H              1 <1>                0.0000
     21 H21         -0.8347 -13.0323   9.6001 H              1 <1>                0.0000
     22 H22          0.9394 -12.9436   9.7135 H              1 <1>                0.0000
     23 H23         -0.9389 -11.4631   7.8752 H              1 <1>                0.0000
     24 H24          0.4563 -10.8521   8.7964 H              1 <1>                0.0000
     25 H25          2.2353 -12.1232   5.2251 H              1 <1>                0.0000
@<TRIPOS>BOND
    1    1    2 ar    
    2    2    3 ar    
    3    2    4 1     
    4    4    5 ar    
    5    4    9 ar    
    6    5    6 ar    
    7    5   18 1     
    8    6    7 ar    
    9    6   11 1     
   10    7    8 ar    
   11    7   19 1     
   12    8    9 ar    
   13    8   20 1     
   14    9   10 1     
   15   11   12 2     
   16   11   13 2     
   17   11   14 1     
   18   14   15 1     
   19   14   21 1     
   20   14   22 1     
   21   15   16 1     
   22   15   23 1     
   23   15   24 1     
   24   16   17 3     
   25   17   25 1     
@<TRIPOS>SUBSTRUCTURE
      1 ****           1
@<TRIPOS>COMMENT
> <Gold.Version>
2022.2.0

> <Gold.Id.Protein>
3pbl|protein|mol2

> <Gold.Protein.RotatedTorsions>
[ 1303 1298 1297 1294 ] final   -2.86 input  179.99 | X-H torsion
[ 2461 2456 2455 2452 ] final   26.98 input   30.03 | X-H torsion
[ 2515 2510 2509 2506 ] final -150.18 input  -89.99 | X-H torsion
[ 3721 3712 3711 3710 ] final   33.26 input -179.91 | X-H torsion
[ 3841 3832 3831 3830 ] final  125.80 input -179.91 | X-H torsion
[ 3767 3762 3761 3758 ] final  122.32 input  -89.99 | X-H torsion
[ 2472 2467 2466 2463 ] final -157.22 input  -89.97 | X-H torsion

> <Gold.Protein.ActiveResidues>
 VAL82   VAL86   LEU89   PHE106  VAL107  ASP110  VAL111  MET112  CYS114  THR115 
 CYS181  SER182  ILE183  PHE188  VAL189  ILE190  SER192  SER193  SER196  TRP342 
 PHE345  PHE346  HIS349  VAL350  TYR365  THR369  GLY372  TYR373 

> <Gold.Protein.RotatedAtoms>
    3.3724   -9.8346    4.0231 H   0  0  0  0  0  0  0  0  0  0  0  0  # atno 1303 bound_to 1298
    1.4681   -7.9167    7.1083 H   0  0  0  0  0  0  0  0  0  0  0  0  # atno 2461 bound_to 2456
   -5.0815   -5.4496    9.2731 H   0  0  0  0  0  0  0  0  0  0  0  0  # atno 2472 bound_to 2467
    2.5314   -9.2417    5.4547 H   0  0  0  0  0  0  0  0  0  0  0  0  # atno 2515 bound_to 2510
   -2.4892  -18.0288   13.7518 H   0  0  0  0  0  0  0  0  0  0  0  0  # atno 3721 bound_to 3712
   -3.9443  -23.1710   10.9358 H   0  0  0  0  0  0  0  0  0  0  0  0  # atno 3767 bound_to 3762
    3.1060  -20.6705    8.8752 H   0  0  0  0  0  0  0  0  0  0  0  0  # atno 3841 bound_to 3832
    4.2723   -8.4756    4.1205 LP  0  0  0  0  0  0  0  0  0  0  0  0  # atno 4297 bound_to 1298
    4.7177   -9.8109    4.9482 LP  0  0  0  0  0  0  0  0  0  0  0  0  # atno 4298 bound_to 1298
    0.3659   -8.9396    7.7454 LP  0  0  0  0  0  0  0  0  0  0  0  0  # atno 4299 bound_to 2456
    1.9038   -8.9516    8.2942 LP  0  0  0  0  0  0  0  0  0  0  0  0  # atno 4300 bound_to 2456
    2.0437   -7.7315    5.8384 LP  0  0  0  0  0  0  0  0  0  0  0  0  # atno 4301 bound_to 2510
    2.7215   -8.0255    4.3821 LP  0  0  0  0  0  0  0  0  0  0  0  0  # atno 4302 bound_to 2510
   -3.2061  -17.0421   14.7960 LP  0  0  0  0  0  0  0  0  0  0  0  0  # atno 4306 bound_to 3712
   -3.4477  -16.8696   13.1903 LP  0  0  0  0  0  0  0  0  0  0  0  0  # atno 4307 bound_to 3712
    1.6268  -20.6913    9.4980 LP  0  0  0  0  0  0  0  0  0  0  0  0  # atno 4314 bound_to 3832
    2.0146  -19.6364    8.3134 LP  0  0  0  0  0  0  0  0  0  0  0  0  # atno 4315 bound_to 3832
   -5.3019  -22.7457   10.1340 LP  0  0  0  0  0  0  0  0  0  0  0  0  # atno 4318 bound_to 3762
   -4.8808  -21.9585   11.5013 LP  0  0  0  0  0  0  0  0  0  0  0  0  # atno 4319 bound_to 3762
   -4.9997   -4.8880    7.7420 LP  0  0  0  0  0  0  0  0  0  0  0  0  # atno 4320 bound_to 2467
   -3.6358   -5.0559    8.6241 LP  0  0  0  0  0  0  0  0  0  0  0  0  # atno 4321 bound_to 2467

> <Gold.Score>
     Score     S(PLP)   S(hbond)     S(cho)   S(metal)  DE(clash)   DE(tors)     intcor
     46.78     -45.56       0.72       0.00       0.00       0.00       1.58       2.22

> <Gold.PLP.Fitness>
46.7795

> <Gold.PLP.PLP>
-45.5561

> <Gold.PLP.part.hbond>
-1.0000

> <Gold.PLP.part.metal>
0.0000

> <Gold.PLP.part.buried>
-6.1931

> <Gold.PLP.part.nonpolar>
-40.2496

> <Gold.PLP.part.repulsive>
0.2776

> <Gold.PLP.ligand.clash>
0.0000

> <Gold.PLP.ligand.torsion>
1.5804

> <Gold.PLP.Chemscore.Hbond>
0.7200

> <Gold.PLP.Chemscore.CHOScore>
0.0000

> <Gold.PLP.Chemscore.Metal>
0.0000

> <Gold.Chemscore.Hbonds>
donor molecule, donor type, donor heavy atom, donor atom, acceptor molecule, acceptor atom, score
      P1  H  3712  3721       L1     1  0.72

> <Gold.PLP.Chemscore.Internal.Correction>
2.2242

