#       Name:                EN300-1198129_i001
#       Creating user name   fsindt
#       Creation time:       Mon Feb 27 17:31:55 2023


#       File generated by GOLD software.
#

@<TRIPOS>MOLECULE
EN300-1198129_i001|acide_1|mol2|127|dock14
    25    25     1
SMALL
USER_CHARGES


@<TRIPOS>ATOM
      1 O1          -2.5486 -24.0111  11.8634 O.co2          1 <1>               -1.0000
      2 C2          -2.2868 -23.6930  13.0152 C.2            1 <1>                0.0000
      3 O3          -3.0999 -23.8972  13.9058 O.co2          1 <1>                0.0000
      4 C4          -0.9895 -23.0694  13.3305 C.ar           1 <1>                0.0000
      5 C5          -0.6484 -21.8351  12.7702 C.ar           1 <1>                0.0000
      6 C6           0.5668 -21.2577  13.0698 C.ar           1 <1>                0.0000
      7 C7           1.4507 -21.8962  13.9231 C.ar           1 <1>                0.0000
      8 C8           1.1235 -23.1174  14.4827 C.ar           1 <1>                0.0000
      9 C9          -0.0941 -23.7073  14.1976 C.ar           1 <1>                0.0000
     10 F10         -0.4138 -24.9005  14.7446 F              1 <1>                0.0000
     11 S11          0.9973 -19.7018  12.3638 S.o2           1 <1>                0.0000
     12 O12          1.9968 -20.0169  11.4042 O.2            1 <1>                0.0000
     13 O13         -0.2466 -19.1401  11.9685 O.2            1 <1>                0.0000
     14 C14          1.7112 -18.7618  13.7412 C.3            1 <1>                0.0000
     15 C15          0.5861 -18.1551  14.5820 C.3            1 <1>                0.0000
     16 C16          0.2066 -16.8471  14.0232 C.1            1 <1>                0.0000
     17 C17         -0.0959 -15.8040  13.5775 C.1            1 <1>                0.0000
     18 H18         -1.3355 -21.3349  12.1038 H              1 <1>                0.0000
     19 H19          2.4015 -21.4380  14.1525 H              1 <1>                0.0000
     20 H20          1.8182 -23.6091  15.1473 H              1 <1>                0.0000
     21 H21          2.3110 -19.4267  14.3627 H              1 <1>                0.0000
     22 H22          2.3420 -17.9643  13.3487 H              1 <1>                0.0000
     23 H23         -0.2773 -18.8203  14.5679 H              1 <1>                0.0000
     24 H24          0.9286 -18.0260  15.6086 H              1 <1>                0.0000
     25 H25         -0.3665 -14.8710  13.1790 H              1 <1>                0.0000
@<TRIPOS>BOND
    1    1    2 ar    
    2    2    3 ar    
    3    2    4 1     
    4    4    5 ar    
    5    4    9 ar    
    6    5    6 ar    
    7    5   18 1     
    8    6    7 ar    
    9    6   11 1     
   10    7    8 ar    
   11    7   19 1     
   12    8    9 ar    
   13    8   20 1     
   14    9   10 1     
   15   11   12 2     
   16   11   13 2     
   17   11   14 1     
   18   14   15 1     
   19   14   21 1     
   20   14   22 1     
   21   15   16 1     
   22   15   23 1     
   23   15   24 1     
   24   16   17 3     
   25   17   25 1     
@<TRIPOS>SUBSTRUCTURE
      1 ****           1
@<TRIPOS>COMMENT
> <Gold.Version>
2022.2.0

> <Gold.Id.Protein>
3pbl|protein|mol2

> <Gold.Protein.RotatedTorsions>
[ 1303 1298 1297 1294 ] final  -59.77 input  179.99 | X-H torsion
[ 2461 2456 2455 2452 ] final  -43.03 input   30.03 | X-H torsion
[ 2515 2510 2509 2506 ] final  -92.24 input  -89.99 | X-H torsion
[ 3721 3712 3711 3710 ] final  -87.90 input -179.91 | X-H torsion
[ 3841 3832 3831 3830 ] final   12.03 input -179.91 | X-H torsion
[ 3767 3762 3761 3758 ] final  128.50 input  -89.99 | X-H torsion
[ 2472 2467 2466 2463 ] final  124.35 input  -89.97 | X-H torsion

> <Gold.Protein.ActiveResidues>
 VAL82   VAL86   LEU89   PHE106  VAL107  ASP110  VAL111  MET112  CYS114  THR115 
 CYS181  SER182  ILE183  PHE188  VAL189  ILE190  SER192  SER193  SER196  TRP342 
 PHE345  PHE346  HIS349  VAL350  TYR365  THR369  GLY372  TYR373 

> <Gold.Protein.RotatedAtoms>
    3.4967   -8.9796    3.7776 H   0  0  0  0  0  0  0  0  0  0  0  0  # atno 1303 bound_to 1298
    0.4872   -8.3617    7.2105 H   0  0  0  0  0  0  0  0  0  0  0  0  # atno 2461 bound_to 2456
   -5.4459   -5.1005    8.1930 H   0  0  0  0  0  0  0  0  0  0  0  0  # atno 2472 bound_to 2467
    2.8164   -8.9592    4.6347 H   0  0  0  0  0  0  0  0  0  0  0  0  # atno 2515 bound_to 2510
   -3.0095  -16.9740   14.6972 H   0  0  0  0  0  0  0  0  0  0  0  0  # atno 3721 bound_to 3712
   -3.9226  -23.1189   11.0203 H   0  0  0  0  0  0  0  0  0  0  0  0  # atno 3767 bound_to 3762
    1.8534  -20.6181    9.6039 H   0  0  0  0  0  0  0  0  0  0  0  0  # atno 3841 bound_to 3832
    4.8542   -8.8719    4.6786 LP  0  0  0  0  0  0  0  0  0  0  0  0  # atno 4297 bound_to 1298
    4.0115  -10.2700    4.6356 LP  0  0  0  0  0  0  0  0  0  0  0  0  # atno 4298 bound_to 1298
    1.1816   -9.2793    8.3695 LP  0  0  0  0  0  0  0  0  0  0  0  0  # atno 4299 bound_to 2456
    2.0688   -8.1670    7.5680 LP  0  0  0  0  0  0  0  0  0  0  0  0  # atno 4300 bound_to 2456
    2.1329   -8.6089    6.0755 LP  0  0  0  0  0  0  0  0  0  0  0  0  # atno 4301 bound_to 2510
    2.3472   -7.4307    4.9653 LP  0  0  0  0  0  0  0  0  0  0  0  0  # atno 4302 bound_to 2510
   -3.4240  -16.9178   13.1471 LP  0  0  0  0  0  0  0  0  0  0  0  0  # atno 4306 bound_to 3712
   -2.6292  -18.2117   13.7478 LP  0  0  0  0  0  0  0  0  0  0  0  0  # atno 4307 bound_to 3712
    1.9675  -19.6344    8.3408 LP  0  0  0  0  0  0  0  0  0  0  0  0  # atno 4314 bound_to 3832
    3.1210  -20.7538    8.6288 LP  0  0  0  0  0  0  0  0  0  0  0  0  # atno 4315 bound_to 3832
   -5.2404  -22.8203   10.1031 LP  0  0  0  0  0  0  0  0  0  0  0  0  # atno 4318 bound_to 3762
   -4.9641  -21.9360   11.4478 LP  0  0  0  0  0  0  0  0  0  0  0  0  # atno 4319 bound_to 3762
   -3.8403   -4.8599    8.0178 LP  0  0  0  0  0  0  0  0  0  0  0  0  # atno 4320 bound_to 2467
   -4.4309   -5.4332    9.4282 LP  0  0  0  0  0  0  0  0  0  0  0  0  # atno 4321 bound_to 2467

> <Gold.Score>
     Score     S(PLP)   S(hbond)     S(cho)   S(metal)  DE(clash)   DE(tors)     intcor
     49.08     -46.62       2.00       0.00       0.00       0.00       2.88       2.22

> <Gold.PLP.Fitness>
49.0771

> <Gold.PLP.PLP>
-46.6152

> <Gold.PLP.part.hbond>
-3.0000

> <Gold.PLP.part.metal>
0.0000

> <Gold.PLP.part.buried>
-6.9820

> <Gold.PLP.part.nonpolar>
-37.3464

> <Gold.PLP.part.repulsive>
0.6830

> <Gold.PLP.ligand.clash>
0.0000

> <Gold.PLP.ligand.torsion>
2.8811

> <Gold.PLP.Chemscore.Hbond>
2.0000

> <Gold.PLP.Chemscore.CHOScore>
0.0000

> <Gold.PLP.Chemscore.Metal>
0.0000

> <Gold.Chemscore.Hbonds>
donor molecule, donor type, donor heavy atom, donor atom, acceptor molecule, acceptor atom, score
      P1  H  3832  3841       L1    12  1.00
      P1  H  3762  3767       L1     1  1.00

> <Gold.PLP.Chemscore.Internal.Correction>
2.2242

