#       Name:                EN300-1198129_i001
#       Creating user name   fsindt
#       Creation time:       Mon Feb 27 17:31:59 2023


#       File generated by GOLD software.
#

@<TRIPOS>MOLECULE
EN300-1198129_i001|acide_1|mol2|127|dock18
    25    25     1
SMALL
USER_CHARGES


@<TRIPOS>ATOM
      1 O1          -3.2144 -23.1249  13.0907 O.co2          1 <1>               -1.0000
      2 C2          -2.3393 -23.6230  13.7851 C.2            1 <1>                0.0000
      3 O3          -2.5932 -24.5921  14.4870 O.co2          1 <1>                0.0000
      4 C4          -0.9779 -23.0596  13.7714 C.ar           1 <1>                0.0000
      5 C5          -0.7237 -21.8518  13.1153 C.ar           1 <1>                0.0000
      6 C6           0.5523 -21.3306  13.1066 C.ar           1 <1>                0.0000
      7 C7           1.5830 -21.9995  13.7451 C.ar           1 <1>                0.0000
      8 C8           1.3427 -23.1948  14.3969 C.ar           1 <1>                0.0000
      9 C9           0.0672 -23.7281  14.4206 C.ar           1 <1>                0.0000
     10 F10         -0.1674 -24.8961  15.0577 F              1 <1>                0.0000
     11 S11          0.8732 -19.8082  12.2797 S.o2           1 <1>                0.0000
     12 O12          1.0219 -18.8633  13.3305 O.2            1 <1>                0.0000
     13 O13          1.9519 -20.1057  11.4038 O.2            1 <1>                0.0000
     14 C14         -0.6404 -19.4780  11.3361 C.3            1 <1>                0.0000
     15 C15         -0.3684 -18.3830  10.3026 C.3            1 <1>                0.0000
     16 C16         -1.1249 -18.6702   9.0729 C.1            1 <1>                0.0000
     17 C17         -1.7283 -18.8992   8.0922 C.1            1 <1>                0.0000
     18 H18         -1.5255 -21.3281  12.6159 H              1 <1>                0.0000
     19 H19          2.5804 -21.5853  13.7333 H              1 <1>                0.0000
     20 H20          2.1518 -23.7104  14.8926 H              1 <1>                0.0000
     21 H21         -0.9568 -20.3880  10.8264 H              1 <1>                0.0000
     22 H22         -1.4274 -19.1494  12.0148 H              1 <1>                0.0000
     23 H23         -0.6802 -17.4189  10.7041 H              1 <1>                0.0000
     24 H24          0.6972 -18.3545  10.0752 H              1 <1>                0.0000
     25 H25         -2.2679 -19.1041   7.2150 H              1 <1>                0.0000
@<TRIPOS>BOND
    1    1    2 ar    
    2    2    3 ar    
    3    2    4 1     
    4    4    5 ar    
    5    4    9 ar    
    6    5    6 ar    
    7    5   18 1     
    8    6    7 ar    
    9    6   11 1     
   10    7    8 ar    
   11    7   19 1     
   12    8    9 ar    
   13    8   20 1     
   14    9   10 1     
   15   11   12 2     
   16   11   13 2     
   17   11   14 1     
   18   14   15 1     
   19   14   21 1     
   20   14   22 1     
   21   15   16 1     
   22   15   23 1     
   23   15   24 1     
   24   16   17 3     
   25   17   25 1     
@<TRIPOS>SUBSTRUCTURE
      1 ****           1
@<TRIPOS>COMMENT
> <Gold.Version>
2022.2.0

> <Gold.Id.Protein>
3pbl|protein|mol2

> <Gold.Protein.RotatedTorsions>
[ 1303 1298 1297 1294 ] final  162.17 input  179.99 | X-H torsion
[ 2461 2456 2455 2452 ] final   34.08 input   30.03 | X-H torsion
[ 2515 2510 2509 2506 ] final  -27.93 input  -89.99 | X-H torsion
[ 3721 3712 3711 3710 ] final  154.67 input -179.91 | X-H torsion
[ 3841 3832 3831 3830 ] final   17.22 input -179.91 | X-H torsion
[ 3767 3762 3761 3758 ] final  169.06 input  -89.99 | X-H torsion
[ 2472 2467 2466 2463 ] final -136.95 input  -89.97 | X-H torsion

> <Gold.Protein.ActiveResidues>
 VAL82   VAL86   LEU89   PHE106  VAL107  ASP110  VAL111  MET112  CYS114  THR115 
 CYS181  SER182  ILE183  PHE188  VAL189  ILE190  SER192  SER193  SER196  TRP342 
 PHE345  PHE346  HIS349  VAL350  TYR365  THR369  GLY372  TYR373 

> <Gold.Protein.RotatedAtoms>
    4.9097   -9.1275    4.8170 H   0  0  0  0  0  0  0  0  0  0  0  0  # atno 1303 bound_to 1298
    1.5763   -7.9228    7.1522 H   0  0  0  0  0  0  0  0  0  0  0  0  # atno 2461 bound_to 2456
   -4.7771   -5.4635    9.4046 H   0  0  0  0  0  0  0  0  0  0  0  0  # atno 2472 bound_to 2467
    2.7103   -7.9917    4.3918 H   0  0  0  0  0  0  0  0  0  0  0  0  # atno 2515 bound_to 2510
   -3.2301  -16.8149   13.2420 H   0  0  0  0  0  0  0  0  0  0  0  0  # atno 3721 bound_to 3712
   -4.0078  -22.6680   11.4860 H   0  0  0  0  0  0  0  0  0  0  0  0  # atno 3767 bound_to 3762
    1.9107  -20.6703    9.6152 H   0  0  0  0  0  0  0  0  0  0  0  0  # atno 3841 bound_to 3832
    3.7738  -10.2451    4.4607 LP  0  0  0  0  0  0  0  0  0  0  0  0  # atno 4297 bound_to 1298
    3.6783   -8.7488    3.8137 LP  0  0  0  0  0  0  0  0  0  0  0  0  # atno 4298 bound_to 1298
    0.3415   -8.8632    7.6605 LP  0  0  0  0  0  0  0  0  0  0  0  0  # atno 4299 bound_to 2456
    1.8201   -9.0220    8.3353 LP  0  0  0  0  0  0  0  0  0  0  0  0  # atno 4300 bound_to 2456
    2.5466   -9.2480    5.4216 LP  0  0  0  0  0  0  0  0  0  0  0  0  # atno 4301 bound_to 2510
    2.0397   -7.7596    5.8622 LP  0  0  0  0  0  0  0  0  0  0  0  0  # atno 4302 bound_to 2510
   -2.6282  -18.2124   13.7543 LP  0  0  0  0  0  0  0  0  0  0  0  0  # atno 4306 bound_to 3712
   -3.1703  -17.1009   14.8207 LP  0  0  0  0  0  0  0  0  0  0  0  0  # atno 4307 bound_to 3712
    1.8946  -19.6364    8.3877 LP  0  0  0  0  0  0  0  0  0  0  0  0  # atno 4314 bound_to 3832
    3.1276  -20.6916    8.5690 LP  0  0  0  0  0  0  0  0  0  0  0  0  # atno 4315 bound_to 3832
   -4.7218  -23.2177   10.1240 LP  0  0  0  0  0  0  0  0  0  0  0  0  # atno 4318 bound_to 3762
   -5.3974  -21.9893   10.9613 LP  0  0  0  0  0  0  0  0  0  0  0  0  # atno 4319 bound_to 3762
   -5.2625   -4.9817    7.9218 LP  0  0  0  0  0  0  0  0  0  0  0  0  # atno 4320 bound_to 2467
   -3.6774   -4.9483    8.3129 LP  0  0  0  0  0  0  0  0  0  0  0  0  # atno 4321 bound_to 2467

> <Gold.Score>
     Score     S(PLP)   S(hbond)     S(cho)   S(metal)  DE(clash)   DE(tors)     intcor
     53.75     -49.03       2.00       0.00       0.00       0.00       1.75       2.22

> <Gold.PLP.Fitness>
53.7457

> <Gold.PLP.PLP>
-49.0252

> <Gold.PLP.part.hbond>
-2.0000

> <Gold.PLP.part.metal>
0.0000

> <Gold.PLP.part.buried>
-5.3718

> <Gold.PLP.part.nonpolar>
-43.2032

> <Gold.PLP.part.repulsive>
0.7656

> <Gold.PLP.ligand.clash>
0.0000

> <Gold.PLP.ligand.torsion>
1.7519

> <Gold.PLP.Chemscore.Hbond>
2.0000

> <Gold.PLP.Chemscore.CHOScore>
0.0000

> <Gold.PLP.Chemscore.Metal>
0.0000

> <Gold.Chemscore.Hbonds>
donor molecule, donor type, donor heavy atom, donor atom, acceptor molecule, acceptor atom, score
      P1  H  3832  3841       L1    13  1.00
      P1  H  3762  3767       L1     1  1.00

> <Gold.PLP.Chemscore.Internal.Correction>
2.2242

