#       Name:                EN300-1198129_i001
#       Creating user name   fsindt
#       Creation time:       Mon Feb 27 17:31:51 2023


#       File generated by GOLD software.
#

@<TRIPOS>MOLECULE
EN300-1198129_i001|acide_1|mol2|127|dock10
    25    25     1
SMALL
USER_CHARGES


@<TRIPOS>ATOM
      1 O1           0.9667 -11.1475   7.7721 O.co2          1 <1>               -1.0000
      2 C2           0.7766 -11.6864   8.8536 C.2            1 <1>                0.0000
      3 O3           0.7605 -11.0157   9.8765 O.co2          1 <1>                0.0000
      4 C4           0.5610 -13.1423   8.9236 C.ar           1 <1>                0.0000
      5 C5           0.4826 -13.7823  10.1638 C.ar           1 <1>                0.0000
      6 C6           0.2808 -15.1446  10.2217 C.ar           1 <1>                0.0000
      7 C7           0.1559 -15.8811   9.0558 C.ar           1 <1>                0.0000
      8 C8           0.2320 -15.2581   7.8239 C.ar           1 <1>                0.0000
      9 C9           0.4278 -13.8915   7.7482 C.ar           1 <1>                0.0000
     10 F10          0.5021 -13.2829   6.5444 F              1 <1>                0.0000
     11 S11          0.1818 -15.9518  11.7847 S.o2           1 <1>                0.0000
     12 O12         -0.6527 -15.1059  12.5638 O.2            1 <1>                0.0000
     13 O13         -0.2120 -17.2801  11.4689 O.2            1 <1>                0.0000
     14 C14          1.8821 -15.9252  12.4162 C.3            1 <1>                0.0000
     15 C15          1.8701 -16.1827  13.9244 C.3            1 <1>                0.0000
     16 C16          1.7754 -17.6303  14.1742 C.1            1 <1>                0.0000
     17 C17          1.6998 -18.7848  14.3735 C.1            1 <1>                0.0000
     18 H18          0.5802 -13.2106  11.0749 H              1 <1>                0.0000
     19 H19         -0.0013 -16.9483   9.1090 H              1 <1>                0.0000
     20 H20          0.1337 -15.8395   6.9191 H              1 <1>                0.0000
     21 H21          2.4663 -16.7002  11.9200 H              1 <1>                0.0000
     22 H22          2.3284 -14.9508  12.2176 H              1 <1>                0.0000
     23 H23          2.7890 -15.7972  14.3661 H              1 <1>                0.0000
     24 H24          1.0129 -15.6800  14.3721 H              1 <1>                0.0000
     25 H25          1.6324 -19.8174  14.5518 H              1 <1>                0.0000
@<TRIPOS>BOND
    1    1    2 ar    
    2    2    3 ar    
    3    2    4 1     
    4    4    5 ar    
    5    4    9 ar    
    6    5    6 ar    
    7    5   18 1     
    8    6    7 ar    
    9    6   11 1     
   10    7    8 ar    
   11    7   19 1     
   12    8    9 ar    
   13    8   20 1     
   14    9   10 1     
   15   11   12 2     
   16   11   13 2     
   17   11   14 1     
   18   14   15 1     
   19   14   21 1     
   20   14   22 1     
   21   15   16 1     
   22   15   23 1     
   23   15   24 1     
   24   16   17 3     
   25   17   25 1     
@<TRIPOS>SUBSTRUCTURE
      1 ****           1
@<TRIPOS>COMMENT
> <Gold.Version>
2022.2.0

> <Gold.Id.Protein>
3pbl|protein|mol2

> <Gold.Protein.RotatedTorsions>
[ 1303 1298 1297 1294 ] final -107.81 input  179.99 | X-H torsion
[ 2461 2456 2455 2452 ] final -144.49 input   30.03 | X-H torsion
[ 2515 2510 2509 2506 ] final -117.58 input  -89.99 | X-H torsion
[ 3721 3712 3711 3710 ] final  178.91 input -179.91 | X-H torsion
[ 3841 3832 3831 3830 ] final   26.43 input -179.91 | X-H torsion
[ 3767 3762 3761 3758 ] final  162.65 input  -89.99 | X-H torsion
[ 2472 2467 2466 2463 ] final   64.94 input  -89.97 | X-H torsion

> <Gold.Protein.ActiveResidues>
 VAL82   VAL86   LEU89   PHE106  VAL107  ASP110  VAL111  MET112  CYS114  THR115 
 CYS181  SER182  ILE183  PHE188  VAL189  ILE190  SER192  SER193  SER196  TRP342 
 PHE345  PHE346  HIS349  VAL350  TYR365  THR369  GLY372  TYR373 

> <Gold.Protein.RotatedAtoms>
    4.0652   -8.5100    3.9905 H   0  0  0  0  0  0  0  0  0  0  0  0  # atno 1303 bound_to 1298
    0.8944   -9.2801    8.2701 H   0  0  0  0  0  0  0  0  0  0  0  0  # atno 2461 bound_to 2456
   -4.7233   -4.8309    7.6655 H   0  0  0  0  0  0  0  0  0  0  0  0  # atno 2472 bound_to 2467
    2.7265   -9.1900    4.9658 H   0  0  0  0  0  0  0  0  0  0  0  0  # atno 2515 bound_to 2510
   -3.3194  -16.6140   13.5318 H   0  0  0  0  0  0  0  0  0  0  0  0  # atno 3721 bound_to 3712
   -3.9687  -22.7470   11.4280 H   0  0  0  0  0  0  0  0  0  0  0  0  # atno 3767 bound_to 3762
    2.0209  -20.7547    9.6224 H   0  0  0  0  0  0  0  0  0  0  0  0  # atno 3841 bound_to 3832
    4.8321   -9.5923    4.9428 LP  0  0  0  0  0  0  0  0  0  0  0  0  # atno 4297 bound_to 1298
    3.4649  -10.0193    4.1584 LP  0  0  0  0  0  0  0  0  0  0  0  0  # atno 4298 bound_to 1298
    2.1536   -8.3582    7.7885 LP  0  0  0  0  0  0  0  0  0  0  0  0  # atno 4299 bound_to 2456
    0.6897   -8.1701    7.0897 LP  0  0  0  0  0  0  0  0  0  0  0  0  # atno 4300 bound_to 2456
    2.0458   -8.2046    6.0754 LP  0  0  0  0  0  0  0  0  0  0  0  0  # atno 4301 bound_to 2510
    2.5243   -7.6041    4.6342 LP  0  0  0  0  0  0  0  0  0  0  0  0  # atno 4302 bound_to 2510
   -2.7266  -18.0985   13.3814 LP  0  0  0  0  0  0  0  0  0  0  0  0  # atno 4306 bound_to 3712
   -2.9687  -17.4467   14.8590 LP  0  0  0  0  0  0  0  0  0  0  0  0  # atno 4307 bound_to 3712
    1.7730  -19.6551    8.4798 LP  0  0  0  0  0  0  0  0  0  0  0  0  # atno 4314 bound_to 3832
    3.1219  -20.5754    8.4685 LP  0  0  0  0  0  0  0  0  0  0  0  0  # atno 4315 bound_to 3832
   -4.8113  -23.1703   10.0948 LP  0  0  0  0  0  0  0  0  0  0  0  0  # atno 4318 bound_to 3762
   -5.3471  -21.9579   11.0485 LP  0  0  0  0  0  0  0  0  0  0  0  0  # atno 4319 bound_to 3762
   -3.6953   -5.1587    8.8911 LP  0  0  0  0  0  0  0  0  0  0  0  0  # atno 4320 bound_to 2467
   -5.2983   -5.4039    9.0823 LP  0  0  0  0  0  0  0  0  0  0  0  0  # atno 4321 bound_to 2467

> <Gold.Score>
     Score     S(PLP)   S(hbond)     S(cho)   S(metal)  DE(clash)   DE(tors)     intcor
     48.27     -46.60       0.83       0.00       0.00       0.00       1.53       2.23

> <Gold.PLP.Fitness>
48.2654

> <Gold.PLP.PLP>
-46.6042

> <Gold.PLP.part.hbond>
-1.3415

> <Gold.PLP.part.metal>
0.0000

> <Gold.PLP.part.buried>
-2.5054

> <Gold.PLP.part.nonpolar>
-43.8623

> <Gold.PLP.part.repulsive>
0.1702

> <Gold.PLP.ligand.clash>
0.0000

> <Gold.PLP.ligand.torsion>
1.5312

> <Gold.PLP.Chemscore.Hbond>
0.8320

> <Gold.PLP.Chemscore.CHOScore>
0.0000

> <Gold.PLP.Chemscore.Metal>
0.0000

> <Gold.Chemscore.Hbonds>
donor molecule, donor type, donor heavy atom, donor atom, acceptor molecule, acceptor atom, score
      P1  H  2456  2461       L1     1  0.83

> <Gold.PLP.Chemscore.Internal.Correction>
2.2277

