#       Name:                EN300-1198129_i001
#       Creating user name   fsindt
#       Creation time:       Mon Feb 27 17:31:54 2023


#       File generated by GOLD software.
#

@<TRIPOS>MOLECULE
EN300-1198129_i001|acide_1|mol2|127|dock13
    25    25     1
SMALL
USER_CHARGES


@<TRIPOS>ATOM
      1 O1           0.4109 -12.6830   7.4786 O.co2          1 <1>               -1.0000
      2 C2           0.7650 -13.5793   8.2319 C.2            1 <1>                0.0000
      3 O3           1.5782 -14.4109   7.8532 O.co2          1 <1>                0.0000
      4 C4           0.2164 -13.6538   9.5974 C.ar           1 <1>                0.0000
      5 C5           0.6115 -14.6816  10.4584 C.ar           1 <1>                0.0000
      6 C6           0.0942 -14.7450  11.7345 C.ar           1 <1>                0.0000
      7 C7          -0.8155 -13.7944  12.1660 C.ar           1 <1>                0.0000
      8 C8          -1.2131 -12.7736  11.3226 C.ar           1 <1>                0.0000
      9 C9          -0.6990 -12.6919  10.0417 C.ar           1 <1>                0.0000
     10 F10         -1.0876 -11.6943   9.2177 F              1 <1>                0.0000
     11 S11          0.5918 -16.0404  12.8202 S.o2           1 <1>                0.0000
     12 O12          1.9651 -16.2436  12.5170 O.2            1 <1>                0.0000
     13 O13          0.1834 -15.5959  14.1065 O.2            1 <1>                0.0000
     14 C14         -0.3936 -17.4714  12.2988 C.3            1 <1>                0.0000
     15 C15          0.0421 -18.7063  13.0901 C.3            1 <1>                0.0000
     16 C16         -0.1924 -19.9145  12.2826 C.1            1 <1>                0.0000
     17 C17         -0.3795 -20.8781  11.6386 C.1            1 <1>                0.0000
     18 H18          1.3203 -15.4248  10.1244 H              1 <1>                0.0000
     19 H19         -1.2171 -13.8510  13.1670 H              1 <1>                0.0000
     20 H20         -1.9229 -12.0361  11.6666 H              1 <1>                0.0000
     21 H21         -1.4490 -17.2736  12.4862 H              1 <1>                0.0000
     22 H22         -0.2409 -17.6495  11.2344 H              1 <1>                0.0000
     23 H23          1.1029 -18.6292  13.3288 H              1 <1>                0.0000
     24 H24         -0.5344 -18.7685  14.0130 H              1 <1>                0.0000
     25 H25         -0.5467 -21.7399  11.0626 H              1 <1>                0.0000
@<TRIPOS>BOND
    1    1    2 ar    
    2    2    3 ar    
    3    2    4 1     
    4    4    5 ar    
    5    4    9 ar    
    6    5    6 ar    
    7    5   18 1     
    8    6    7 ar    
    9    6   11 1     
   10    7    8 ar    
   11    7   19 1     
   12    8    9 ar    
   13    8   20 1     
   14    9   10 1     
   15   11   12 2     
   16   11   13 2     
   17   11   14 1     
   18   14   15 1     
   19   14   21 1     
   20   14   22 1     
   21   15   16 1     
   22   15   23 1     
   23   15   24 1     
   24   16   17 3     
   25   17   25 1     
@<TRIPOS>SUBSTRUCTURE
      1 ****           1
@<TRIPOS>COMMENT
> <Gold.Version>
2022.2.0

> <Gold.Id.Protein>
3pbl|protein|mol2

> <Gold.Protein.RotatedTorsions>
[ 1303 1298 1297 1294 ] final  -14.72 input  179.99 | X-H torsion
[ 2461 2456 2455 2452 ] final -150.24 input   30.03 | X-H torsion
[ 2515 2510 2509 2506 ] final  -83.44 input  -89.99 | X-H torsion
[ 3721 3712 3711 3710 ] final  158.38 input -179.91 | X-H torsion
[ 3841 3832 3831 3830 ] final   15.04 input -179.91 | X-H torsion
[ 3767 3762 3761 3758 ] final  -96.06 input  -89.99 | X-H torsion
[ 2472 2467 2466 2463 ] final   10.19 input  -89.97 | X-H torsion

> <Gold.Protein.ActiveResidues>
 VAL82   VAL86   LEU89   PHE106  VAL107  ASP110  VAL111  MET112  CYS114  THR115 
 CYS181  SER182  ILE183  PHE188  VAL189  ILE190  SER192  SER193  SER196  TRP342 
 PHE345  PHE346  HIS349  VAL350  TYR365  THR369  GLY372  TYR373 

> <Gold.Protein.RotatedAtoms>
    3.3355   -9.6664    3.9322 H   0  0  0  0  0  0  0  0  0  0  0  0  # atno 1303 bound_to 1298
    0.9809   -9.2876    8.3077 H   0  0  0  0  0  0  0  0  0  0  0  0  # atno 2461 bound_to 2456
   -3.9036   -4.8424    7.9478 H   0  0  0  0  0  0  0  0  0  0  0  0  # atno 2472 bound_to 2467
    2.8308   -8.8478    4.5436 H   0  0  0  0  0  0  0  0  0  0  0  0  # atno 2515 bound_to 2510
   -3.2480  -16.7777   13.2799 H   0  0  0  0  0  0  0  0  0  0  0  0  # atno 3721 bound_to 3712
   -5.1572  -21.9142   11.2850 H   0  0  0  0  0  0  0  0  0  0  0  0  # atno 3767 bound_to 3762
    1.8861  -20.6487    9.6111 H   0  0  0  0  0  0  0  0  0  0  0  0  # atno 3841 bound_to 3832
    4.4287   -8.4919    4.2355 LP  0  0  0  0  0  0  0  0  0  0  0  0  # atno 4297 bound_to 1298
    4.5982   -9.9629    4.9241 LP  0  0  0  0  0  0  0  0  0  0  0  0  # atno 4298 bound_to 1298
    2.1371   -8.2952    7.7199 LP  0  0  0  0  0  0  0  0  0  0  0  0  # atno 4299 bound_to 2456
    0.6196   -8.2256    7.1207 LP  0  0  0  0  0  0  0  0  0  0  0  0  # atno 4300 bound_to 2456
    2.1779   -8.7407    6.0363 LP  0  0  0  0  0  0  0  0  0  0  0  0  # atno 4301 bound_to 2510
    2.2878   -7.4104    5.0957 LP  0  0  0  0  0  0  0  0  0  0  0  0  # atno 4302 bound_to 2510
   -2.6383  -18.2042   13.6936 LP  0  0  0  0  0  0  0  0  0  0  0  0  # atno 4306 bound_to 3712
   -3.1395  -17.1520   14.8375 LP  0  0  0  0  0  0  0  0  0  0  0  0  # atno 4307 bound_to 3712
    1.9249  -19.6348    8.3675 LP  0  0  0  0  0  0  0  0  0  0  0  0  # atno 4314 bound_to 3832
    3.1257  -20.7181    8.5939 LP  0  0  0  0  0  0  0  0  0  0  0  0  # atno 4315 bound_to 3832
   -3.9091  -22.9655   11.2215 LP  0  0  0  0  0  0  0  0  0  0  0  0  # atno 4318 bound_to 3762
   -5.0612  -22.9951   10.0647 LP  0  0  0  0  0  0  0  0  0  0  0  0  # atno 4319 bound_to 3762
   -4.3371   -5.4175    9.4133 LP  0  0  0  0  0  0  0  0  0  0  0  0  # atno 4320 bound_to 2467
   -5.4760   -5.1336    8.2780 LP  0  0  0  0  0  0  0  0  0  0  0  0  # atno 4321 bound_to 2467

> <Gold.Score>
     Score     S(PLP)   S(hbond)     S(cho)   S(metal)  DE(clash)   DE(tors)     intcor
     44.93     -42.77       0.86       0.00       0.00       0.02       1.32       2.22

> <Gold.PLP.Fitness>
44.9307

> <Gold.PLP.PLP>
-42.7744

> <Gold.PLP.part.hbond>
-0.8926

> <Gold.PLP.part.metal>
0.0000

> <Gold.PLP.part.buried>
-6.2775

> <Gold.PLP.part.nonpolar>
-36.6311

> <Gold.PLP.part.repulsive>
0.3535

> <Gold.PLP.ligand.clash>
0.0184

> <Gold.PLP.ligand.torsion>
1.3166

> <Gold.PLP.Chemscore.Hbond>
0.8613

> <Gold.PLP.Chemscore.CHOScore>
0.0000

> <Gold.PLP.Chemscore.Metal>
0.0000

> <Gold.Chemscore.Hbonds>
donor molecule, donor type, donor heavy atom, donor atom, acceptor molecule, acceptor atom, score
      P1  H  2305  2313       L1    13  0.86

> <Gold.PLP.Chemscore.Internal.Correction>
2.2242

