#       Name:                EN300-1198129_i001
#       Creating user name   fsindt
#       Creation time:       Mon Feb 27 17:31:49 2023


#       File generated by GOLD software.
#

@<TRIPOS>MOLECULE
EN300-1198129_i001|acide_1|mol2|127|dock8
    25    25     1
SMALL
USER_CHARGES


@<TRIPOS>ATOM
      1 O1          -0.8502 -10.4934   8.8682 O.co2          1 <1>               -1.0000
      2 C2          -0.9555 -11.3120   9.7710 C.2            1 <1>                0.0000
      3 O3          -1.6705 -11.0716  10.7340 O.co2          1 <1>                0.0000
      4 C4          -0.2260 -12.5899   9.6957 C.ar           1 <1>                0.0000
      5 C5          -0.2975 -13.5032  10.7514 C.ar           1 <1>                0.0000
      6 C6           0.3876 -14.6968  10.6741 C.ar           1 <1>                0.0000
      7 C7           1.1464 -14.9939   9.5546 C.ar           1 <1>                0.0000
      8 C8           1.2241 -14.0977   8.5048 C.ar           1 <1>                0.0000
      9 C9           0.5380 -12.8987   8.5636 C.ar           1 <1>                0.0000
     10 F10          0.6139 -12.0231   7.5376 F              1 <1>                0.0000
     11 S11          0.2979 -15.8484  12.0046 S.o2           1 <1>                0.0000
     12 O12         -0.5199 -15.2037  12.9714 O.2            1 <1>                0.0000
     13 O13         -0.1122 -17.0623  11.3904 O.2            1 <1>                0.0000
     14 C14          2.0051 -15.9827  12.6028 C.3            1 <1>                0.0000
     15 C15          1.9988 -16.2160  14.1149 C.3            1 <1>                0.0000
     16 C16          1.8268 -17.6519  14.3892 C.1            1 <1>                0.0000
     17 C17          1.6896 -18.7972  14.6080 C.1            1 <1>                0.0000
     18 H18         -0.8881 -13.2741  11.6261 H              1 <1>                0.0000
     19 H19          1.6812 -15.9308   9.5015 H              1 <1>                0.0000
     20 H20          1.8181 -14.3366   7.6351 H              1 <1>                0.0000
     21 H21          2.4987 -16.8194  12.1082 H              1 <1>                0.0000
     22 H22          2.5420 -15.0608  12.3796 H              1 <1>                0.0000
     23 H23          2.9436 -15.8758  14.5389 H              1 <1>                0.0000
     24 H24          1.1771 -15.6591  14.5651 H              1 <1>                0.0000
     25 H25          1.5669 -19.8215  14.8036 H              1 <1>                0.0000
@<TRIPOS>BOND
    1    1    2 ar    
    2    2    3 ar    
    3    2    4 1     
    4    4    5 ar    
    5    4    9 ar    
    6    5    6 ar    
    7    5   18 1     
    8    6    7 ar    
    9    6   11 1     
   10    7    8 ar    
   11    7   19 1     
   12    8    9 ar    
   13    8   20 1     
   14    9   10 1     
   15   11   12 2     
   16   11   13 2     
   17   11   14 1     
   18   14   15 1     
   19   14   21 1     
   20   14   22 1     
   21   15   16 1     
   22   15   23 1     
   23   15   24 1     
   24   16   17 3     
   25   17   25 1     
@<TRIPOS>SUBSTRUCTURE
      1 ****           1
@<TRIPOS>COMMENT
> <Gold.Version>
2022.2.0

> <Gold.Id.Protein>
3pbl|protein|mol2

> <Gold.Protein.RotatedTorsions>
[ 1303 1298 1297 1294 ] final   11.38 input  179.99 | X-H torsion
[ 2461 2456 2455 2452 ] final -120.30 input   30.03 | X-H torsion
[ 2515 2510 2509 2506 ] final   70.59 input  -89.99 | X-H torsion
[ 3721 3712 3711 3710 ] final   70.89 input -179.91 | X-H torsion
[ 3841 3832 3831 3830 ] final   -9.44 input -179.91 | X-H torsion
[ 3767 3762 3761 3758 ] final -145.36 input  -89.99 | X-H torsion
[ 2472 2467 2466 2463 ] final  -98.34 input  -89.97 | X-H torsion

> <Gold.Protein.ActiveResidues>
 VAL82   VAL86   LEU89   PHE106  VAL107  ASP110  VAL111  MET112  CYS114  THR115 
 CYS181  SER182  ILE183  PHE188  VAL189  ILE190  SER192  SER193  SER196  TRP342 
 PHE345  PHE346  HIS349  VAL350  TYR365  THR369  GLY372  TYR373 

> <Gold.Protein.RotatedAtoms>
    3.4586  -10.0101    4.1511 H   0  0  0  0  0  0  0  0  0  0  0  0  # atno 1303 bound_to 1298
    0.5788   -9.1761    8.0560 H   0  0  0  0  0  0  0  0  0  0  0  0  # atno 2461 bound_to 2456
   -4.1613   -5.3790    9.3579 H   0  0  0  0  0  0  0  0  0  0  0  0  # atno 2472 bound_to 2467
    2.1019   -7.5340    5.6001 H   0  0  0  0  0  0  0  0  0  0  0  0  # atno 2515 bound_to 2510
   -2.6538  -17.8176   13.2615 H   0  0  0  0  0  0  0  0  0  0  0  0  # atno 3721 bound_to 3712
   -4.4968  -22.1484   11.6425 H   0  0  0  0  0  0  0  0  0  0  0  0  # atno 3767 bound_to 3762
    1.6638  -20.3766    9.5051 H   0  0  0  0  0  0  0  0  0  0  0  0  # atno 3841 bound_to 3832
    4.0766   -8.5066    3.9965 LP  0  0  0  0  0  0  0  0  0  0  0  0  # atno 4297 bound_to 1298
    4.8272   -9.6044    4.9441 LP  0  0  0  0  0  0  0  0  0  0  0  0  # atno 4298 bound_to 1298
    2.1223   -8.6422    8.0614 LP  0  0  0  0  0  0  0  0  0  0  0  0  # atno 4299 bound_to 2456
    1.0364   -7.9900    7.0308 LP  0  0  0  0  0  0  0  0  0  0  0  0  # atno 4300 bound_to 2456
    2.7981   -8.3300    4.3561 LP  0  0  0  0  0  0  0  0  0  0  0  0  # atno 4301 bound_to 2510
    2.3969   -9.1355    5.7188 LP  0  0  0  0  0  0  0  0  0  0  0  0  # atno 4302 bound_to 2510
   -2.8973  -17.5758   14.8300 LP  0  0  0  0  0  0  0  0  0  0  0  0  # atno 4306 bound_to 3712
   -3.5665  -16.5797   13.7224 LP  0  0  0  0  0  0  0  0  0  0  0  0  # atno 4307 bound_to 3712
    2.2875  -19.6920    8.1942 LP  0  0  0  0  0  0  0  0  0  0  0  0  # atno 4314 bound_to 3832
    3.0199  -20.9752    8.8897 LP  0  0  0  0  0  0  0  0  0  0  0  0  # atno 4315 bound_to 3832
   -4.1453  -23.3200   10.5604 LP  0  0  0  0  0  0  0  0  0  0  0  0  # atno 4318 bound_to 3762
   -5.4852  -22.4065   10.3684 LP  0  0  0  0  0  0  0  0  0  0  0  0  # atno 4319 bound_to 3762
   -5.5078   -5.1997    8.4516 LP  0  0  0  0  0  0  0  0  0  0  0  0  # atno 4320 bound_to 2467
   -4.0477   -4.8149    7.8297 LP  0  0  0  0  0  0  0  0  0  0  0  0  # atno 4321 bound_to 2467

> <Gold.Score>
     Score     S(PLP)   S(hbond)     S(cho)   S(metal)  DE(clash)   DE(tors)     intcor
     49.17     -47.36       0.99       0.00       0.00       0.00       1.69       2.23

> <Gold.PLP.Fitness>
49.1748

> <Gold.PLP.PLP>
-47.3613

> <Gold.PLP.part.hbond>
-1.0000

> <Gold.PLP.part.metal>
0.0000

> <Gold.PLP.part.buried>
-2.3655

> <Gold.PLP.part.nonpolar>
-44.6406

> <Gold.PLP.part.repulsive>
0.2177

> <Gold.PLP.ligand.clash>
0.0000

> <Gold.PLP.ligand.torsion>
1.6945

> <Gold.PLP.Chemscore.Hbond>
0.9913

> <Gold.PLP.Chemscore.CHOScore>
0.0000

> <Gold.PLP.Chemscore.Metal>
0.0000

> <Gold.Chemscore.Hbonds>
donor molecule, donor type, donor heavy atom, donor atom, acceptor molecule, acceptor atom, score
      P1  H  2456  2461       L1     1  0.99

> <Gold.PLP.Chemscore.Internal.Correction>
2.2289

