#       Name:                EN300-1198129_i001
#       Creating user name   fsindt
#       Creation time:       Mon Feb 27 17:31:47 2023


#       File generated by GOLD software.
#

@<TRIPOS>MOLECULE
EN300-1198129_i001|acide_1|mol2|127|dock6
    25    25     1
SMALL
USER_CHARGES


@<TRIPOS>ATOM
      1 O1           0.4532 -15.8943  14.3958 O.co2          1 <1>               -1.0000
      2 C2          -0.0436 -16.8317  13.7871 C.2            1 <1>                0.0000
      3 O3          -0.4290 -17.8204  14.3955 O.co2          1 <1>                0.0000
      4 C4          -0.1833 -16.7674  12.3216 C.ar           1 <1>                0.0000
      5 C5           0.0463 -15.5656  11.6458 C.ar           1 <1>                0.0000
      6 C6          -0.0862 -15.5129  10.2748 C.ar           1 <1>                0.0000
      7 C7          -0.4464 -16.6459   9.5651 C.ar           1 <1>                0.0000
      8 C8          -0.6760 -17.8397  10.2235 C.ar           1 <1>                0.0000
      9 C9          -0.5413 -17.9113  11.5978 C.ar           1 <1>                0.0000
     10 F10         -0.7656 -19.0780  12.2410 F              1 <1>                0.0000
     11 S11          0.2032 -13.9982   9.4225 S.o2           1 <1>                0.0000
     12 O12          1.5598 -13.6881   9.7098 O.2            1 <1>                0.0000
     13 O13         -0.2232 -14.2577   8.0921 O.2            1 <1>                0.0000
     14 C14         -0.9056 -12.8081  10.2255 C.3            1 <1>                0.0000
     15 C15         -1.4143 -11.8049   9.1883 C.3            1 <1>                0.0000
     16 C16         -2.7182 -11.2736   9.6178 C.1            1 <1>                0.0000
     17 C17         -3.7581 -10.8500   9.9605 C.1            1 <1>                0.0000
     18 H18          0.3268 -14.6801  12.1968 H              1 <1>                0.0000
     19 H19         -0.5491 -16.5967   8.4911 H              1 <1>                0.0000
     20 H20         -0.9566 -18.7190   9.6629 H              1 <1>                0.0000
     21 H21         -1.7514 -13.3378  10.6638 H              1 <1>                0.0000
     22 H22         -0.3638 -12.2778  11.0086 H              1 <1>                0.0000
     23 H23         -0.7013 -10.9857   9.0949 H              1 <1>                0.0000
     24 H24         -1.5243 -12.3025   8.2248 H              1 <1>                0.0000
     25 H25         -4.6882 -10.4711  10.2669 H              1 <1>                0.0000
@<TRIPOS>BOND
    1    1    2 ar    
    2    2    3 ar    
    3    2    4 1     
    4    4    5 ar    
    5    4    9 ar    
    6    5    6 ar    
    7    5   18 1     
    8    6    7 ar    
    9    6   11 1     
   10    7    8 ar    
   11    7   19 1     
   12    8    9 ar    
   13    8   20 1     
   14    9   10 1     
   15   11   12 2     
   16   11   13 2     
   17   11   14 1     
   18   14   15 1     
   19   14   21 1     
   20   14   22 1     
   21   15   16 1     
   22   15   23 1     
   23   15   24 1     
   24   16   17 3     
   25   17   25 1     
@<TRIPOS>SUBSTRUCTURE
      1 ****           1
@<TRIPOS>COMMENT
> <Gold.Version>
2022.2.0

> <Gold.Id.Protein>
3pbl|protein|mol2

> <Gold.Protein.RotatedTorsions>
[ 1303 1298 1297 1294 ] final   33.12 input  179.99 | X-H torsion
[ 2461 2456 2455 2452 ] final -156.68 input   30.03 | X-H torsion
[ 2515 2510 2509 2506 ] final   28.36 input  -89.99 | X-H torsion
[ 3721 3712 3711 3710 ] final    8.63 input -179.91 | X-H torsion
[ 3841 3832 3831 3830 ] final  -45.05 input -179.91 | X-H torsion
[ 3767 3762 3761 3758 ] final  -56.14 input  -89.99 | X-H torsion
[ 2472 2467 2466 2463 ] final   -7.17 input  -89.97 | X-H torsion

> <Gold.Protein.ActiveResidues>
 VAL82   VAL86   LEU89   PHE106  VAL107  ASP110  VAL111  MET112  CYS114  THR115 
 CYS181  SER182  ILE183  PHE188  VAL189  ILE190  SER192  SER193  SER196  TRP342 
 PHE345  PHE346  HIS349  VAL350  TYR365  THR369  GLY372  TYR373 

> <Gold.Protein.RotatedAtoms>
    3.6661  -10.1995    4.3688 H   0  0  0  0  0  0  0  0  0  0  0  0  # atno 1303 bound_to 1298
    1.0809   -9.2878    8.3428 H   0  0  0  0  0  0  0  0  0  0  0  0  # atno 2461 bound_to 2456
   -3.7378   -4.9045    8.1707 H   0  0  0  0  0  0  0  0  0  0  0  0  # atno 2472 bound_to 2467
    2.3433   -7.4290    4.9742 H   0  0  0  0  0  0  0  0  0  0  0  0  # atno 2515 bound_to 2510
   -2.4736  -17.9990   14.1198 H   0  0  0  0  0  0  0  0  0  0  0  0  # atno 3721 bound_to 3712
   -5.4796  -22.0908   10.7566 H   0  0  0  0  0  0  0  0  0  0  0  0  # atno 3767 bound_to 3762
    1.5656  -19.9603    9.1931 H   0  0  0  0  0  0  0  0  0  0  0  0  # atno 3841 bound_to 3832
    3.7872   -8.6550    3.8529 LP  0  0  0  0  0  0  0  0  0  0  0  0  # atno 4297 bound_to 1298
    4.9090   -9.2665    4.8698 LP  0  0  0  0  0  0  0  0  0  0  0  0  # atno 4298 bound_to 1298
    2.1081   -8.2283    7.6430 LP  0  0  0  0  0  0  0  0  0  0  0  0  # atno 4299 bound_to 2456
    0.5487   -8.2923    7.1625 LP  0  0  0  0  0  0  0  0  0  0  0  0  # atno 4300 bound_to 2456
    2.8177   -8.9523    4.6278 LP  0  0  0  0  0  0  0  0  0  0  0  0  # atno 4301 bound_to 2510
    2.1358   -8.6183    6.0734 LP  0  0  0  0  0  0  0  0  0  0  0  0  # atno 4302 bound_to 2510
   -3.3892  -16.7581   14.5666 LP  0  0  0  0  0  0  0  0  0  0  0  0  # atno 4306 bound_to 3712
   -3.2827  -17.1880   12.9949 LP  0  0  0  0  0  0  0  0  0  0  0  0  # atno 4307 bound_to 3712
    2.7881  -19.9930    8.1537 LP  0  0  0  0  0  0  0  0  0  0  0  0  # atno 4314 bound_to 3832
    2.6328  -21.1551    9.2904 LP  0  0  0  0  0  0  0  0  0  0  0  0  # atno 4315 bound_to 3832
   -4.1313  -22.4859   11.5888 LP  0  0  0  0  0  0  0  0  0  0  0  0  # atno 4318 bound_to 3762
   -4.5168  -23.2982   10.2256 LP  0  0  0  0  0  0  0  0  0  0  0  0  # atno 4319 bound_to 3762
   -4.6188   -5.4547    9.4307 LP  0  0  0  0  0  0  0  0  0  0  0  0  # atno 4320 bound_to 2467
   -5.3601   -5.0343    8.0377 LP  0  0  0  0  0  0  0  0  0  0  0  0  # atno 4321 bound_to 2467

> <Gold.Score>
     Score     S(PLP)   S(hbond)     S(cho)   S(metal)  DE(clash)   DE(tors)     intcor
     46.70     -42.17       1.94       0.00       0.00       0.00       1.77       2.24

> <Gold.PLP.Fitness>
46.7041

> <Gold.PLP.PLP>
-42.1737

> <Gold.PLP.part.hbond>
-2.0000

> <Gold.PLP.part.metal>
0.0000

> <Gold.PLP.part.buried>
-3.7528

> <Gold.PLP.part.nonpolar>
-37.2119

> <Gold.PLP.part.repulsive>
0.1283

> <Gold.PLP.ligand.clash>
0.0000

> <Gold.PLP.ligand.torsion>
1.7719

> <Gold.PLP.Chemscore.Hbond>
1.9440

> <Gold.PLP.Chemscore.CHOScore>
0.0000

> <Gold.PLP.Chemscore.Metal>
0.0000

> <Gold.Chemscore.Hbonds>
donor molecule, donor type, donor heavy atom, donor atom, acceptor molecule, acceptor atom, score
      P1  H  2305  2313       L1     1  1.00
      P1  H  3712  3721       L1     3  0.94

> <Gold.PLP.Chemscore.Internal.Correction>
2.2422

