#       Name:                EN300-1198129_i001
#       Creating user name   fsindt
#       Creation time:       Mon Feb 27 17:31:52 2023


#       File generated by GOLD software.
#

@<TRIPOS>MOLECULE
EN300-1198129_i001|acide_1|mol2|127|dock11
    25    25     1
SMALL
USER_CHARGES


@<TRIPOS>ATOM
      1 O1           0.0143 -16.1877  10.6382 O.co2          1 <1>               -1.0000
      2 C2          -0.1070 -15.9082   9.4535 C.2            1 <1>                0.0000
      3 O3          -0.3959 -16.7803   8.6460 O.co2          1 <1>                0.0000
      4 C4           0.0888 -14.5199   9.0003 C.ar           1 <1>                0.0000
      5 C5          -0.2536 -13.4529   9.8358 C.ar           1 <1>                0.0000
      6 C6          -0.0676 -12.1568   9.4051 C.ar           1 <1>                0.0000
      7 C7           0.4567 -11.9083   8.1479 C.ar           1 <1>                0.0000
      8 C8           0.7986 -12.9562   7.3134 C.ar           1 <1>                0.0000
      9 C9           0.6244 -14.2623   7.7324 C.ar           1 <1>                0.0000
     10 F10          0.9586 -15.2862   6.9169 F              1 <1>                0.0000
     11 S11         -0.4990 -10.8115  10.4579 S.o2           1 <1>                0.0000
     12 O12         -0.9885 -11.4332  11.6382 O.2            1 <1>                0.0000
     13 O13          0.6677 -10.0009  10.4867 O.2            1 <1>                0.0000
     14 C14         -1.8418  -9.9635   9.5814 C.3            1 <1>                0.0000
     15 C15         -3.0735  -9.8878  10.4860 C.3            1 <1>                0.0000
     16 C16         -4.1017 -10.8192   9.9938 C.1            1 <1>                0.0000
     17 C17         -4.9218 -11.5619   9.6012 C.1            1 <1>                0.0000
     18 H18         -0.6632 -13.6436  10.8167 H              1 <1>                0.0000
     19 H19          0.5988 -10.8901   7.8170 H              1 <1>                0.0000
     20 H20          1.2070 -12.7542   6.3343 H              1 <1>                0.0000
     21 H21         -1.5232  -8.9553   9.3166 H              1 <1>                0.0000
     22 H22         -2.0901 -10.5158   8.6751 H              1 <1>                0.0000
     23 H23         -2.7940 -10.1601  11.5037 H              1 <1>                0.0000
     24 H24         -3.4691  -8.8722  10.4771 H              1 <1>                0.0000
     25 H25         -5.6553 -12.2263   9.2502 H              1 <1>                0.0000
@<TRIPOS>BOND
    1    1    2 ar    
    2    2    3 ar    
    3    2    4 1     
    4    4    5 ar    
    5    4    9 ar    
    6    5    6 ar    
    7    5   18 1     
    8    6    7 ar    
    9    6   11 1     
   10    7    8 ar    
   11    7   19 1     
   12    8    9 ar    
   13    8   20 1     
   14    9   10 1     
   15   11   12 2     
   16   11   13 2     
   17   11   14 1     
   18   14   15 1     
   19   14   21 1     
   20   14   22 1     
   21   15   16 1     
   22   15   23 1     
   23   15   24 1     
   24   16   17 3     
   25   17   25 1     
@<TRIPOS>SUBSTRUCTURE
      1 ****           1
@<TRIPOS>COMMENT
> <Gold.Version>
2022.2.0

> <Gold.Id.Protein>
3pbl|protein|mol2

> <Gold.Protein.RotatedTorsions>
[ 1303 1298 1297 1294 ] final  174.89 input  179.99 | X-H torsion
[ 2461 2456 2455 2452 ] final -142.58 input   30.03 | X-H torsion
[ 2515 2510 2509 2506 ] final  -41.80 input  -89.99 | X-H torsion
[ 3721 3712 3711 3710 ] final   70.42 input -179.91 | X-H torsion
[ 3841 3832 3831 3830 ] final   39.40 input -179.91 | X-H torsion
[ 3767 3762 3761 3758 ] final -169.54 input  -89.99 | X-H torsion
[ 2472 2467 2466 2463 ] final    4.46 input  -89.97 | X-H torsion

> <Gold.Protein.ActiveResidues>
 VAL82   VAL86   LEU89   PHE106  VAL107  ASP110  VAL111  MET112  CYS114  THR115 
 CYS181  SER182  ILE183  PHE188  VAL189  ILE190  SER192  SER193  SER196  TRP342 
 PHE345  PHE346  HIS349  VAL350  TYR365  THR369  GLY372  TYR373 

> <Gold.Protein.RotatedAtoms>
    4.8782   -8.9434    4.7237 H   0  0  0  0  0  0  0  0  0  0  0  0  # atno 1303 bound_to 1298
    0.8665   -9.2761    8.2563 H   0  0  0  0  0  0  0  0  0  0  0  0  # atno 2461 bound_to 2456
   -3.8413   -4.8602    8.0162 H   0  0  0  0  0  0  0  0  0  0  0  0  # atno 2472 bound_to 2467
    2.7723   -8.2076    4.3551 H   0  0  0  0  0  0  0  0  0  0  0  0  # atno 2515 bound_to 2510
   -2.6509  -17.8219   13.2663 H   0  0  0  0  0  0  0  0  0  0  0  0  # atno 3721 bound_to 3712
   -4.1984  -22.4063   11.6190 H   0  0  0  0  0  0  0  0  0  0  0  0  # atno 3767 bound_to 3762
    2.1898  -20.8518    9.6048 H   0  0  0  0  0  0  0  0  0  0  0  0  # atno 3841 bound_to 3832
    3.9389  -10.2719    4.5858 LP  0  0  0  0  0  0  0  0  0  0  0  0  # atno 4297 bound_to 1298
    3.5447   -8.9062    3.7820 LP  0  0  0  0  0  0  0  0  0  0  0  0  # atno 4298 bound_to 1298
    2.1570   -8.3796    7.8112 LP  0  0  0  0  0  0  0  0  0  0  0  0  # atno 4299 bound_to 2456
    0.7142   -8.1526    7.0808 LP  0  0  0  0  0  0  0  0  0  0  0  0  # atno 4300 bound_to 2456
    2.4504   -9.1892    5.6195 LP  0  0  0  0  0  0  0  0  0  0  0  0  # atno 4301 bound_to 2510
    2.0738   -7.6024    5.7011 LP  0  0  0  0  0  0  0  0  0  0  0  0  # atno 4302 bound_to 2510
   -2.9009  -17.5692   14.8320 LP  0  0  0  0  0  0  0  0  0  0  0  0  # atno 4306 bound_to 3712
   -3.5662  -16.5814   13.7149 LP  0  0  0  0  0  0  0  0  0  0  0  0  # atno 4307 bound_to 3712
    1.6235  -19.7138    8.6248 LP  0  0  0  0  0  0  0  0  0  0  0  0  # atno 4314 bound_to 3832
    3.0763  -20.4046    8.3438 LP  0  0  0  0  0  0  0  0  0  0  0  0  # atno 4315 bound_to 3832
   -4.4284  -23.3199   10.2851 LP  0  0  0  0  0  0  0  0  0  0  0  0  # atno 4318 bound_to 3762
   -5.5003  -22.1487   10.6673 LP  0  0  0  0  0  0  0  0  0  0  0  0  # atno 4319 bound_to 3762
   -4.4290   -5.4329    9.4280 LP  0  0  0  0  0  0  0  0  0  0  0  0  # atno 4320 bound_to 2467
   -5.4465   -5.1004    8.1948 LP  0  0  0  0  0  0  0  0  0  0  0  0  # atno 4321 bound_to 2467

> <Gold.Score>
     Score     S(PLP)   S(hbond)     S(cho)   S(metal)  DE(clash)   DE(tors)     intcor
     54.90     -55.94       0.20       0.00       0.00       0.00       1.93       2.23

> <Gold.PLP.Fitness>
54.8985

> <Gold.PLP.PLP>
-55.9406

> <Gold.PLP.part.hbond>
-1.0000

> <Gold.PLP.part.metal>
0.0000

> <Gold.PLP.part.buried>
-3.1775

> <Gold.PLP.part.nonpolar>
-53.0448

> <Gold.PLP.part.repulsive>
0.2501

> <Gold.PLP.ligand.clash>
0.0000

> <Gold.PLP.ligand.torsion>
1.9299

> <Gold.PLP.Chemscore.Hbond>
0.1973

> <Gold.PLP.Chemscore.CHOScore>
0.0000

> <Gold.PLP.Chemscore.Metal>
0.0000

> <Gold.Chemscore.Hbonds>
donor molecule, donor type, donor heavy atom, donor atom, acceptor molecule, acceptor atom, score
      P1  H  2456  2461       L1    13  0.20

> <Gold.PLP.Chemscore.Internal.Correction>
2.2258

