#       Name:                EN300-1198129_i001
#       Creating user name   fsindt
#       Creation time:       Mon Feb 27 17:31:57 2023


#       File generated by GOLD software.
#

@<TRIPOS>MOLECULE
EN300-1198129_i001|acide_1|mol2|127|dock16
    25    25     1
SMALL
USER_CHARGES


@<TRIPOS>ATOM
      1 O1          -0.0771 -15.5271  14.2733 O.co2          1 <1>               -1.0000
      2 C2          -0.3578 -15.7728  13.1084 C.2            1 <1>                0.0000
      3 O3          -1.3034 -16.5039  12.8483 O.co2          1 <1>                0.0000
      4 C4           0.4393 -15.1832  12.0183 C.ar           1 <1>                0.0000
      5 C5          -0.1358 -14.2472  11.1540 C.ar           1 <1>                0.0000
      6 C6           0.6160 -13.6999  10.1365 C.ar           1 <1>                0.0000
      7 C7           1.9383 -14.0742   9.9675 C.ar           1 <1>                0.0000
      8 C8           2.5170 -14.9992  10.8166 C.ar           1 <1>                0.0000
      9 C9           1.7788 -15.5532  11.8462 C.ar           1 <1>                0.0000
     10 F10          2.3445 -16.4569  12.6759 F              1 <1>                0.0000
     11 S11         -0.1085 -12.5200   9.0468 S.o2           1 <1>                0.0000
     12 O12          0.7172 -11.3707   9.1757 O.2            1 <1>                0.0000
     13 O13         -0.2183 -13.2080   7.8083 O.2            1 <1>                0.0000
     14 C14         -1.7516 -12.2053   9.7480 C.3            1 <1>                0.0000
     15 C15         -1.8209 -10.7645  10.2581 C.3            1 <1>                0.0000
     16 C16         -3.2119 -10.2873  10.1927 C.1            1 <1>                0.0000
     17 C17         -4.3213  -9.9066  10.1405 C.1            1 <1>                0.0000
     18 H18         -1.1671 -13.9537  11.2830 H              1 <1>                0.0000
     19 H19          2.5208 -13.6416   9.1675 H              1 <1>                0.0000
     20 H20          3.5489 -15.2860  10.6783 H              1 <1>                0.0000
     21 H21         -2.5096 -12.3554   8.9793 H              1 <1>                0.0000
     22 H22         -1.9316 -12.8925  10.5747 H              1 <1>                0.0000
     23 H23         -1.4723 -10.7273  11.2902 H              1 <1>                0.0000
     24 H24         -1.1892 -10.1286   9.6379 H              1 <1>                0.0000
     25 H25         -5.3135  -9.5662  10.0940 H              1 <1>                0.0000
@<TRIPOS>BOND
    1    1    2 ar    
    2    2    3 ar    
    3    2    4 1     
    4    4    5 ar    
    5    4    9 ar    
    6    5    6 ar    
    7    5   18 1     
    8    6    7 ar    
    9    6   11 1     
   10    7    8 ar    
   11    7   19 1     
   12    8    9 ar    
   13    8   20 1     
   14    9   10 1     
   15   11   12 2     
   16   11   13 2     
   17   11   14 1     
   18   14   15 1     
   19   14   21 1     
   20   14   22 1     
   21   15   16 1     
   22   15   23 1     
   23   15   24 1     
   24   16   17 3     
   25   17   25 1     
@<TRIPOS>SUBSTRUCTURE
      1 ****           1
@<TRIPOS>COMMENT
> <Gold.Version>
2022.2.0

> <Gold.Id.Protein>
3pbl|protein|mol2

> <Gold.Protein.RotatedTorsions>
[ 1303 1298 1297 1294 ] final   93.11 input  179.99 | X-H torsion
[ 2461 2456 2455 2452 ] final -158.12 input   30.03 | X-H torsion
[ 2515 2510 2509 2506 ] final  -83.30 input  -89.99 | X-H torsion
[ 3721 3712 3711 3710 ] final  111.69 input -179.91 | X-H torsion
[ 3841 3832 3831 3830 ] final   65.71 input -179.91 | X-H torsion
[ 3767 3762 3761 3758 ] final  140.54 input  -89.99 | X-H torsion
[ 2472 2467 2466 2463 ] final  159.61 input  -89.97 | X-H torsion

> <Gold.Protein.ActiveResidues>
 VAL82   VAL86   LEU89   PHE106  VAL107  ASP110  VAL111  MET112  CYS114  THR115 
 CYS181  SER182  ILE183  PHE188  VAL189  ILE190  SER192  SER193  SER196  TRP342 
 PHE345  PHE346  HIS349  VAL350  TYR365  THR369  GLY372  TYR373 

> <Gold.Protein.RotatedAtoms>
    4.4541  -10.0923    4.8748 H   0  0  0  0  0  0  0  0  0  0  0  0  # atno 1303 bound_to 1298
    1.1035   -9.2866    8.3496 H   0  0  0  0  0  0  0  0  0  0  0  0  # atno 2461 bound_to 2456
   -5.4824   -5.2973    8.7279 H   0  0  0  0  0  0  0  0  0  0  0  0  # atno 2472 bound_to 2467
    2.8310   -8.8460    4.5423 H   0  0  0  0  0  0  0  0  0  0  0  0  # atno 2515 bound_to 2510
   -2.9466  -17.3423   13.0315 H   0  0  0  0  0  0  0  0  0  0  0  0  # atno 3721 bound_to 3712
   -3.9066  -23.0015   11.1787 H   0  0  0  0  0  0  0  0  0  0  0  0  # atno 3767 bound_to 3762
    2.5474  -20.9536    9.4746 H   0  0  0  0  0  0  0  0  0  0  0  0  # atno 3841 bound_to 3832
    3.3326   -9.4810    3.8576 LP  0  0  0  0  0  0  0  0  0  0  0  0  # atno 4297 bound_to 1298
    4.5753   -8.5478    4.3590 LP  0  0  0  0  0  0  0  0  0  0  0  0  # atno 4298 bound_to 1298
    2.1001   -8.2140    7.6259 LP  0  0  0  0  0  0  0  0  0  0  0  0  # atno 4299 bound_to 2456
    0.5341   -8.3077    7.1728 LP  0  0  0  0  0  0  0  0  0  0  0  0  # atno 4300 bound_to 2456
    2.1786   -8.7427    6.0355 LP  0  0  0  0  0  0  0  0  0  0  0  0  # atno 4301 bound_to 2510
    2.2869   -7.4102    5.0977 LP  0  0  0  0  0  0  0  0  0  0  0  0  # atno 4302 bound_to 2510
   -2.6553  -18.0590   14.4383 LP  0  0  0  0  0  0  0  0  0  0  0  0  # atno 4306 bound_to 3712
   -3.4705  -16.6453   14.3797 LP  0  0  0  0  0  0  0  0  0  0  0  0  # atno 4307 bound_to 3712
    1.4264  -19.9345    8.9446 LP  0  0  0  0  0  0  0  0  0  0  0  0  # atno 4314 bound_to 3832
    2.8604  -20.0661    8.1745 LP  0  0  0  0  0  0  0  0  0  0  0  0  # atno 4315 bound_to 3832
   -5.1033  -22.9586   10.0682 LP  0  0  0  0  0  0  0  0  0  0  0  0  # atno 4318 bound_to 3762
   -5.1172  -21.9151   11.3242 LP  0  0  0  0  0  0  0  0  0  0  0  0  # atno 4319 bound_to 3762
   -4.3129   -4.7985    7.7033 LP  0  0  0  0  0  0  0  0  0  0  0  0  # atno 4320 bound_to 2467
   -3.9217   -5.2978    9.2080 LP  0  0  0  0  0  0  0  0  0  0  0  0  # atno 4321 bound_to 2467

> <Gold.Score>
     Score     S(PLP)   S(hbond)     S(cho)   S(metal)  DE(clash)   DE(tors)     intcor
     52.45     -49.73       2.00       0.00       0.00       0.00       2.76       2.22

> <Gold.PLP.Fitness>
52.4465

> <Gold.PLP.PLP>
-49.7318

> <Gold.PLP.part.hbond>
-2.1748

> <Gold.PLP.part.metal>
0.0000

> <Gold.PLP.part.buried>
-0.4504

> <Gold.PLP.part.nonpolar>
-48.3889

> <Gold.PLP.part.repulsive>
0.1817

> <Gold.PLP.ligand.clash>
0.0000

> <Gold.PLP.ligand.torsion>
2.7559

> <Gold.PLP.Chemscore.Hbond>
2.0008

> <Gold.PLP.Chemscore.CHOScore>
0.0000

> <Gold.PLP.Chemscore.Metal>
0.0000

> <Gold.Chemscore.Hbonds>
donor molecule, donor type, donor heavy atom, donor atom, acceptor molecule, acceptor atom, score
      P1  H  2456  2461       L1    12  0.57
      P1  H  2305  2313       L1     1  1.00
      P1  H  3712  3721       L1     3  0.43

> <Gold.PLP.Chemscore.Internal.Correction>
2.2242

