#       Name:                EN300-1198129_i001
#       Creating user name   fsindt
#       Creation time:       Mon Feb 27 17:31:53 2023


#       File generated by GOLD software.
#

@<TRIPOS>MOLECULE
EN300-1198129_i001|acide_1|mol2|127|dock12
    25    25     1
SMALL
USER_CHARGES


@<TRIPOS>ATOM
      1 O1           0.7712 -11.0745   7.7366 O.co2          1 <1>               -1.0000
      2 C2           0.7269 -12.2553   8.0528 C.2            1 <1>                0.0000
      3 O3           1.2169 -13.1034   7.3201 O.co2          1 <1>                0.0000
      4 C4           0.0886 -12.6554   9.3192 C.ar           1 <1>                0.0000
      5 C5           0.4942 -13.8226   9.9726 C.ar           1 <1>                0.0000
      6 C6          -0.1074 -14.1907  11.1569 C.ar           1 <1>                0.0000
      7 C7          -1.1120 -13.4086  11.7011 C.ar           1 <1>                0.0000
      8 C8          -1.5209 -12.2522  11.0632 C.ar           1 <1>                0.0000
      9 C9          -0.9235 -11.8653   9.8777 C.ar           1 <1>                0.0000
     10 F10         -1.3232 -10.7353   9.2545 F              1 <1>                0.0000
     11 S11          0.4035 -15.6620  11.9808 S.o2           1 <1>                0.0000
     12 O12         -0.0859 -15.5093  13.3062 O.2            1 <1>                0.0000
     13 O13         -0.0623 -16.7119  11.1443 O.2            1 <1>                0.0000
     14 C14          2.2157 -15.5870  11.9589 C.3            1 <1>                0.0000
     15 C15          2.7865 -16.8582  12.5907 C.3            1 <1>                0.0000
     16 C16          2.1001 -17.1232  13.8657 C.1            1 <1>                0.0000
     17 C17          1.5528 -17.3345  14.8826 C.1            1 <1>                0.0000
     18 H18          1.2771 -14.4350   9.5502 H              1 <1>                0.0000
     19 H19         -1.5793 -13.7038  12.6290 H              1 <1>                0.0000
     20 H20         -2.3051 -11.6475  11.4940 H              1 <1>                0.0000
     21 H21          2.5636 -15.5054  10.9291 H              1 <1>                0.0000
     22 H22          2.5504 -14.7179  12.5253 H              1 <1>                0.0000
     23 H23          2.6346 -17.6997  11.9147 H              1 <1>                0.0000
     24 H24          3.8530 -16.7263  12.7728 H              1 <1>                0.0000
     25 H25          1.0633 -17.5236  15.7921 H              1 <1>                0.0000
@<TRIPOS>BOND
    1    1    2 ar    
    2    2    3 ar    
    3    2    4 1     
    4    4    5 ar    
    5    4    9 ar    
    6    5    6 ar    
    7    5   18 1     
    8    6    7 ar    
    9    6   11 1     
   10    7    8 ar    
   11    7   19 1     
   12    8    9 ar    
   13    8   20 1     
   14    9   10 1     
   15   11   12 2     
   16   11   13 2     
   17   11   14 1     
   18   14   15 1     
   19   14   21 1     
   20   14   22 1     
   21   15   16 1     
   22   15   23 1     
   23   15   24 1     
   24   16   17 3     
   25   17   25 1     
@<TRIPOS>SUBSTRUCTURE
      1 ****           1
@<TRIPOS>COMMENT
> <Gold.Version>
2022.2.0

> <Gold.Id.Protein>
3pbl|protein|mol2

> <Gold.Protein.RotatedTorsions>
[ 1303 1298 1297 1294 ] final  118.41 input  179.99 | X-H torsion
[ 2461 2456 2455 2452 ] final -150.54 input   30.03 | X-H torsion
[ 2515 2510 2509 2506 ] final  -77.94 input  -89.99 | X-H torsion
[ 3721 3712 3711 3710 ] final  -37.55 input -179.91 | X-H torsion
[ 3841 3832 3831 3830 ] final   28.83 input -179.91 | X-H torsion
[ 3767 3762 3761 3758 ] final  -50.33 input  -89.99 | X-H torsion
[ 2472 2467 2466 2463 ] final   89.01 input  -89.97 | X-H torsion

> <Gold.Protein.ActiveResidues>
 VAL82   VAL86   LEU89   PHE106  VAL107  ASP110  VAL111  MET112  CYS114  THR115 
 CYS181  SER182  ILE183  PHE188  VAL189  ILE190  SER192  SER193  SER196  TRP342 
 PHE345  PHE346  HIS349  VAL350  TYR365  THR369  GLY372  TYR373 

> <Gold.Protein.RotatedAtoms>
    4.7287   -9.7932    4.9495 H   0  0  0  0  0  0  0  0  0  0  0  0  # atno 1303 bound_to 1298
    0.9854   -9.2878    8.3095 H   0  0  0  0  0  0  0  0  0  0  0  0  # atno 2461 bound_to 2456
   -5.0876   -4.9148    7.7871 H   0  0  0  0  0  0  0  0  0  0  0  0  # atno 2472 bound_to 2467
    2.8351   -8.7719    4.4948 H   0  0  0  0  0  0  0  0  0  0  0  0  # atno 2515 bound_to 2510
   -2.6468  -17.6140   14.6520 H   0  0  0  0  0  0  0  0  0  0  0  0  # atno 3721 bound_to 3712
   -5.4982  -22.1410   10.6773 H   0  0  0  0  0  0  0  0  0  0  0  0  # atno 3767 bound_to 3762
    2.0512  -20.7747    9.6216 H   0  0  0  0  0  0  0  0  0  0  0  0  # atno 3841 bound_to 3832
    3.3783   -9.8518    4.0333 LP  0  0  0  0  0  0  0  0  0  0  0  0  # atno 4297 bound_to 1298
    4.2549   -8.4761    4.1086 LP  0  0  0  0  0  0  0  0  0  0  0  0  # atno 4298 bound_to 1298
    2.1360   -8.2920    7.7163 LP  0  0  0  0  0  0  0  0  0  0  0  0  # atno 4299 bound_to 2456
    0.6162   -8.2286    7.1225 LP  0  0  0  0  0  0  0  0  0  0  0  0  # atno 4300 bound_to 2456
    2.2091   -8.8184    6.0020 LP  0  0  0  0  0  0  0  0  0  0  0  0  # atno 4301 bound_to 2510
    2.2524   -7.4087    5.1788 LP  0  0  0  0  0  0  0  0  0  0  0  0  # atno 4302 bound_to 2510
   -3.5658  -16.5589   13.8645 LP  0  0  0  0  0  0  0  0  0  0  0  0  # atno 4306 bound_to 3712
   -2.9061  -17.8317   13.0825 LP  0  0  0  0  0  0  0  0  0  0  0  0  # atno 4307 bound_to 3712
    1.7432  -19.6632    8.5055 LP  0  0  0  0  0  0  0  0  0  0  0  0  # atno 4314 bound_to 3832
    3.1168  -20.5442    8.4437 LP  0  0  0  0  0  0  0  0  0  0  0  0  # atno 4315 bound_to 3832
   -4.1906  -22.4160   11.6161 LP  0  0  0  0  0  0  0  0  0  0  0  0  # atno 4318 bound_to 3762
   -4.4389  -23.3178   10.2775 LP  0  0  0  0  0  0  0  0  0  0  0  0  # atno 4319 bound_to 3762
   -3.6362   -5.0212    8.5276 LP  0  0  0  0  0  0  0  0  0  0  0  0  # atno 4320 bound_to 2467
   -4.9932   -5.4576    9.3243 LP  0  0  0  0  0  0  0  0  0  0  0  0  # atno 4321 bound_to 2467

> <Gold.Score>
     Score     S(PLP)   S(hbond)     S(cho)   S(metal)  DE(clash)   DE(tors)     intcor
     49.63     -48.05       0.82       0.00       0.00       0.00       1.55       2.23

> <Gold.PLP.Fitness>
49.6285

> <Gold.PLP.PLP>
-48.0471

> <Gold.PLP.part.hbond>
-1.0000

> <Gold.PLP.part.metal>
0.0000

> <Gold.PLP.part.buried>
-3.1519

> <Gold.PLP.part.nonpolar>
-45.1435

> <Gold.PLP.part.repulsive>
0.2373

> <Gold.PLP.ligand.clash>
0.0000

> <Gold.PLP.ligand.torsion>
1.5462

> <Gold.PLP.Chemscore.Hbond>
0.8160

> <Gold.PLP.Chemscore.CHOScore>
0.0000

> <Gold.PLP.Chemscore.Metal>
0.0000

> <Gold.Chemscore.Hbonds>
donor molecule, donor type, donor heavy atom, donor atom, acceptor molecule, acceptor atom, score
      P1  H  2456  2461       L1     1  0.82

> <Gold.PLP.Chemscore.Internal.Correction>
2.2258

