#       Name:                EN300-1198129_i001
#       Creating user name   fsindt
#       Creation time:       Mon Feb 27 17:31:48 2023


#       File generated by GOLD software.
#

@<TRIPOS>MOLECULE
EN300-1198129_i001|acide_1|mol2|127|dock7
    25    25     1
SMALL
USER_CHARGES


@<TRIPOS>ATOM
      1 O1           1.6241 -14.4527   7.7864 O.co2          1 <1>               -1.0000
      2 C2           0.8597 -13.5631   8.1336 C.2            1 <1>                0.0000
      3 O3           0.5948 -12.6497   7.3643 O.co2          1 <1>                0.0000
      4 C4           0.2533 -13.5951   9.4761 C.ar           1 <1>                0.0000
      5 C5           0.6607 -14.5534  10.4086 C.ar           1 <1>                0.0000
      6 C6           0.0890 -14.5773  11.6626 C.ar           1 <1>                0.0000
      7 C7          -0.8873 -13.6558  12.0016 C.ar           1 <1>                0.0000
      8 C8          -1.2976 -12.7038  11.0869 C.ar           1 <1>                0.0000
      9 C9          -0.7299 -12.6619   9.8268 C.ar           1 <1>                0.0000
     10 F10         -1.1310 -11.7315   8.9332 F              1 <1>                0.0000
     11 S11          0.6021 -15.7851  12.8384 S.o2           1 <1>                0.0000
     12 O12          1.9980 -15.9242  12.6115 O.2            1 <1>                0.0000
     13 O13          0.1062 -15.2999  14.0785 O.2            1 <1>                0.0000
     14 C14         -0.2759 -17.2951  12.3487 C.3            1 <1>                0.0000
     15 C15         -0.0963 -18.3628  13.4297 C.3            1 <1>                0.0000
     16 C16          1.1813 -18.1445  14.1276 C.1            1 <1>                0.0000
     17 C17          2.2002 -17.9703  14.6841 C.1            1 <1>                0.0000
     18 H18          1.4215 -15.2739  10.1469 H              1 <1>                0.0000
     19 H19         -1.3312 -13.6813  12.9858 H              1 <1>                0.0000
     20 H20         -2.0596 -11.9885  11.3588 H              1 <1>                0.0000
     21 H21         -1.3366 -17.0755  12.2276 H              1 <1>                0.0000
     22 H22          0.1292 -17.6613  11.4054 H              1 <1>                0.0000
     23 H23         -0.9165 -18.2975  14.1446 H              1 <1>                0.0000
     24 H24         -0.0941 -19.3503  12.9683 H              1 <1>                0.0000
     25 H25          3.1115 -17.8146  15.1819 H              1 <1>                0.0000
@<TRIPOS>BOND
    1    1    2 ar    
    2    2    3 ar    
    3    2    4 1     
    4    4    5 ar    
    5    4    9 ar    
    6    5    6 ar    
    7    5   18 1     
    8    6    7 ar    
    9    6   11 1     
   10    7    8 ar    
   11    7   19 1     
   12    8    9 ar    
   13    8   20 1     
   14    9   10 1     
   15   11   12 2     
   16   11   13 2     
   17   11   14 1     
   18   14   15 1     
   19   14   21 1     
   20   14   22 1     
   21   15   16 1     
   22   15   23 1     
   23   15   24 1     
   24   16   17 3     
   25   17   25 1     
@<TRIPOS>SUBSTRUCTURE
      1 ****           1
@<TRIPOS>COMMENT
> <Gold.Version>
2022.2.0

> <Gold.Id.Protein>
3pbl|protein|mol2

> <Gold.Protein.RotatedTorsions>
[ 1303 1298 1297 1294 ] final  107.34 input  179.99 | X-H torsion
[ 2461 2456 2455 2452 ] final  -44.70 input   30.03 | X-H torsion
[ 2515 2510 2509 2506 ] final  -75.28 input  -89.99 | X-H torsion
[ 3721 3712 3711 3710 ] final   56.37 input -179.91 | X-H torsion
[ 3841 3832 3831 3830 ] final   27.94 input -179.91 | X-H torsion
[ 3767 3762 3761 3758 ] final -136.50 input  -89.99 | X-H torsion
[ 2472 2467 2466 2463 ] final   44.78 input  -89.97 | X-H torsion

> <Gold.Protein.ActiveResidues>
 VAL82   VAL86   LEU89   PHE106  VAL107  ASP110  VAL111  MET112  CYS114  THR115 
 CYS181  SER182  ILE183  PHE188  VAL189  ILE190  SER192  SER193  SER196  TRP342 
 PHE345  PHE346  HIS349  VAL350  TYR365  THR369  GLY372  TYR373 

> <Gold.Protein.RotatedAtoms>
    4.6202   -9.9379    4.9303 H   0  0  0  0  0  0  0  0  0  0  0  0  # atno 1303 bound_to 1298
    0.4726   -8.3805    7.2241 H   0  0  0  0  0  0  0  0  0  0  0  0  # atno 2461 bound_to 2456
   -4.3950   -4.8005    7.6815 H   0  0  0  0  0  0  0  0  0  0  0  0  # atno 2472 bound_to 2467
    2.8358   -8.7336    4.4735 H   0  0  0  0  0  0  0  0  0  0  0  0  # atno 2515 bound_to 2510
   -2.5728  -17.9330   13.4290 H   0  0  0  0  0  0  0  0  0  0  0  0  # atno 3721 bound_to 3712
   -4.6184  -22.0729   11.6160 H   0  0  0  0  0  0  0  0  0  0  0  0  # atno 3767 bound_to 3762
    2.0399  -20.7674    9.6221 H   0  0  0  0  0  0  0  0  0  0  0  0  # atno 3841 bound_to 3832
    3.3396   -9.6968    3.9462 LP  0  0  0  0  0  0  0  0  0  0  0  0  # atno 4297 bound_to 1298
    4.4022   -8.4863    4.2149 LP  0  0  0  0  0  0  0  0  0  0  0  0  # atno 4298 bound_to 1298
    1.2081   -9.2758    8.3752 LP  0  0  0  0  0  0  0  0  0  0  0  0  # atno 4299 bound_to 2456
    2.0568   -8.1519    7.5487 LP  0  0  0  0  0  0  0  0  0  0  0  0  # atno 4300 bound_to 2456
    2.2249   -8.8544    5.9828 LP  0  0  0  0  0  0  0  0  0  0  0  0  # atno 4301 bound_to 2510
    2.2358   -7.4109    5.2194 LP  0  0  0  0  0  0  0  0  0  0  0  0  # atno 4302 bound_to 2510
   -3.0139  -17.3668   14.8652 LP  0  0  0  0  0  0  0  0  0  0  0  0  # atno 4306 bound_to 3712
   -3.5434  -16.6556   13.4939 LP  0  0  0  0  0  0  0  0  0  0  0  0  # atno 4307 bound_to 3712
    1.7541  -19.6601    8.4959 LP  0  0  0  0  0  0  0  0  0  0  0  0  # atno 4314 bound_to 3832
    3.1188  -20.5557    8.4528 LP  0  0  0  0  0  0  0  0  0  0  0  0  # atno 4315 bound_to 3832
   -4.0642  -23.2888   10.6773 LP  0  0  0  0  0  0  0  0  0  0  0  0  # atno 4318 bound_to 3762
   -5.4447  -22.5132   10.2780 LP  0  0  0  0  0  0  0  0  0  0  0  0  # atno 4319 bound_to 3762
   -3.8634   -5.2712    9.1519 LP  0  0  0  0  0  0  0  0  0  0  0  0  # atno 4320 bound_to 2467
   -5.4585   -5.3218    8.8056 LP  0  0  0  0  0  0  0  0  0  0  0  0  # atno 4321 bound_to 2467

> <Gold.Score>
     Score     S(PLP)   S(hbond)     S(cho)   S(metal)  DE(clash)   DE(tors)     intcor
     45.54     -43.20       0.99       0.00       0.00       0.00       1.43       2.23

> <Gold.PLP.Fitness>
45.5373

> <Gold.PLP.PLP>
-43.1981

> <Gold.PLP.part.hbond>
-1.0000

> <Gold.PLP.part.metal>
0.0000

> <Gold.PLP.part.buried>
-5.8712

> <Gold.PLP.part.nonpolar>
-38.0492

> <Gold.PLP.part.repulsive>
0.3856

> <Gold.PLP.ligand.clash>
0.0000

> <Gold.PLP.ligand.torsion>
1.4317

> <Gold.PLP.Chemscore.Hbond>
0.9913

> <Gold.PLP.Chemscore.CHOScore>
0.0000

> <Gold.PLP.Chemscore.Metal>
0.0000

> <Gold.Chemscore.Hbonds>
donor molecule, donor type, donor heavy atom, donor atom, acceptor molecule, acceptor atom, score
      P1  H  2305  2313       L1    13  0.99

> <Gold.PLP.Chemscore.Internal.Correction>
2.2289

