#       Name:                EN300-1198129_i001
#       Creating user name   fsindt
#       Creation time:       Mon Feb 27 17:31:46 2023


#       File generated by GOLD software.
#

@<TRIPOS>MOLECULE
EN300-1198129_i001|acide_1|mol2|127|dock5
    25    25     1
SMALL
USER_CHARGES


@<TRIPOS>ATOM
      1 O1           1.6006 -14.8350   7.9491 O.co2          1 <1>               -1.0000
      2 C2           0.8176 -13.9663   8.3075 C.2            1 <1>                0.0000
      3 O3           0.4690 -13.0955   7.5224 O.co2          1 <1>                0.0000
      4 C4           0.2897 -13.9724   9.6832 C.ar           1 <1>                0.0000
      5 C5           0.6481 -14.9926  10.5690 C.ar           1 <1>                0.0000
      6 C6           0.1503 -14.9918  11.8544 C.ar           1 <1>                0.0000
      7 C7          -0.7035 -13.9844  12.2708 C.ar           1 <1>                0.0000
      8 C8          -1.0645 -12.9707  11.4028 C.ar           1 <1>                0.0000
      9 C9          -0.5692 -12.9531  10.1120 C.ar           1 <1>                0.0000
     10 F10         -0.9220 -11.9623   9.2640 F              1 <1>                0.0000
     11 S11          0.6018 -16.2775  12.9713 S.o2           1 <1>                0.0000
     12 O12          1.9179 -16.6389  12.5761 O.2            1 <1>                0.0000
     13 O13          0.3475 -15.7297  14.2575 O.2            1 <1>                0.0000
     14 C14         -0.5628 -17.6205  12.6099 C.3            1 <1>                0.0000
     15 C15          0.1115 -18.6491  11.6998 C.3            1 <1>                0.0000
     16 C16         -0.5044 -18.6005  10.3637 C.1            1 <1>                0.0000
     17 C17         -0.9957 -18.5619   9.2981 C.1            1 <1>                0.0000
     18 H18          1.3134 -15.7799  10.2468 H              1 <1>                0.0000
     19 H19         -1.0901 -13.9909  13.2793 H              1 <1>                0.0000
     20 H20         -1.7309 -12.1886  11.7351 H              1 <1>                0.0000
     21 H21         -0.8634 -18.1011  13.5409 H              1 <1>                0.0000
     22 H22         -1.4422 -17.2144  12.1102 H              1 <1>                0.0000
     23 H23          1.1742 -18.4208  11.6183 H              1 <1>                0.0000
     24 H24         -0.0147 -19.6460  12.1220 H              1 <1>                0.0000
     25 H25         -1.4350 -18.5272   8.3450 H              1 <1>                0.0000
@<TRIPOS>BOND
    1    1    2 ar    
    2    2    3 ar    
    3    2    4 1     
    4    4    5 ar    
    5    4    9 ar    
    6    5    6 ar    
    7    5   18 1     
    8    6    7 ar    
    9    6   11 1     
   10    7    8 ar    
   11    7   19 1     
   12    8    9 ar    
   13    8   20 1     
   14    9   10 1     
   15   11   12 2     
   16   11   13 2     
   17   11   14 1     
   18   14   15 1     
   19   14   21 1     
   20   14   22 1     
   21   15   16 1     
   22   15   23 1     
   23   15   24 1     
   24   16   17 3     
   25   17   25 1     
@<TRIPOS>SUBSTRUCTURE
      1 ****           1
@<TRIPOS>COMMENT
> <Gold.Version>
2022.2.0

> <Gold.Id.Protein>
3pbl|protein|mol2

> <Gold.Protein.RotatedTorsions>
[ 1303 1298 1297 1294 ] final  -82.85 input  179.99 | X-H torsion
[ 2461 2456 2455 2452 ] final   19.86 input   30.03 | X-H torsion
[ 2515 2510 2509 2506 ] final   71.12 input  -89.99 | X-H torsion
[ 3721 3712 3711 3710 ] final  116.04 input -179.91 | X-H torsion
[ 3841 3832 3831 3830 ] final -163.98 input -179.91 | X-H torsion
[ 3767 3762 3761 3758 ] final  132.07 input  -89.99 | X-H torsion
[ 2472 2467 2466 2463 ] final   32.39 input  -89.97 | X-H torsion

> <Gold.Protein.ActiveResidues>
 VAL82   VAL86   LEU89   PHE106  VAL107  ASP110  VAL111  MET112  CYS114  THR115 
 CYS181  SER182  ILE183  PHE188  VAL189  ILE190  SER192  SER193  SER196  TRP342 
 PHE345  PHE346  HIS349  VAL350  TYR365  THR369  GLY372  TYR373 

> <Gold.Protein.RotatedAtoms>
    3.7372   -8.6948    3.8343 H   0  0  0  0  0  0  0  0  0  0  0  0  # atno 1303 bound_to 1298
    1.3563   -7.9211    7.0737 H   0  0  0  0  0  0  0  0  0  0  0  0  # atno 2461 bound_to 2456
   -4.2016   -4.8019    7.7444 H   0  0  0  0  0  0  0  0  0  0  0  0  # atno 2472 bound_to 2467
    2.0997   -7.5383    5.6073 H   0  0  0  0  0  0  0  0  0  0  0  0  # atno 2515 bound_to 2510
   -2.9793  -17.2852   13.0316 H   0  0  0  0  0  0  0  0  0  0  0  0  # atno 3721 bound_to 3712
   -3.9142  -23.0862   11.0683 H   0  0  0  0  0  0  0  0  0  0  0  0  # atno 3767 bound_to 3762
    2.7974  -19.8782    8.3569 H   0  0  0  0  0  0  0  0  0  0  0  0  # atno 3841 bound_to 3832
    4.9120   -9.2041    4.8477 LP  0  0  0  0  0  0  0  0  0  0  0  0  # atno 4297 bound_to 1298
    3.7131  -10.2227    4.4098 LP  0  0  0  0  0  0  0  0  0  0  0  0  # atno 4298 bound_to 1298
    0.4039   -9.0111    7.8301 LP  0  0  0  0  0  0  0  0  0  0  0  0  # atno 4299 bound_to 2456
    1.9777   -8.8757    8.2442 LP  0  0  0  0  0  0  0  0  0  0  0  0  # atno 4300 bound_to 2456
    2.7965   -8.3215    4.3556 LP  0  0  0  0  0  0  0  0  0  0  0  0  # atno 4301 bound_to 2510
    2.4006   -9.1397    5.7122 LP  0  0  0  0  0  0  0  0  0  0  0  0  # atno 4302 bound_to 2510
   -2.6406  -18.0942   14.3764 LP  0  0  0  0  0  0  0  0  0  0  0  0  # atno 4306 bound_to 3712
   -3.4474  -16.6760   14.4414 LP  0  0  0  0  0  0  0  0  0  0  0  0  # atno 4307 bound_to 3712
    2.6067  -21.1569    9.3081 LP  0  0  0  0  0  0  0  0  0  0  0  0  # atno 4314 bound_to 3832
    1.3912  -20.0861    9.1020 LP  0  0  0  0  0  0  0  0  0  0  0  0  # atno 4315 bound_to 3832
   -5.2019  -22.8625   10.0892 LP  0  0  0  0  0  0  0  0  0  0  0  0  # atno 4318 bound_to 3762
   -5.0109  -21.9265   11.4137 LP  0  0  0  0  0  0  0  0  0  0  0  0  # atno 4319 bound_to 3762
   -4.0116   -5.3325    9.2770 LP  0  0  0  0  0  0  0  0  0  0  0  0  # atno 4320 bound_to 2467
   -5.5036   -5.2590    8.6175 LP  0  0  0  0  0  0  0  0  0  0  0  0  # atno 4321 bound_to 2467

> <Gold.Score>
     Score     S(PLP)   S(hbond)     S(cho)   S(metal)  DE(clash)   DE(tors)     intcor
     47.28     -45.65       1.00       0.00       0.00       0.00       1.80       2.24

> <Gold.PLP.Fitness>
47.2834

> <Gold.PLP.PLP>
-45.6482

> <Gold.PLP.part.hbond>
-1.0000

> <Gold.PLP.part.metal>
0.0000

> <Gold.PLP.part.buried>
-4.9847

> <Gold.PLP.part.nonpolar>
-41.5708

> <Gold.PLP.part.repulsive>
0.3872

> <Gold.PLP.ligand.clash>
0.0000

> <Gold.PLP.ligand.torsion>
1.8035

> <Gold.PLP.Chemscore.Hbond>
1.0000

> <Gold.PLP.Chemscore.CHOScore>
0.0000

> <Gold.PLP.Chemscore.Metal>
0.0000

> <Gold.Chemscore.Hbonds>
donor molecule, donor type, donor heavy atom, donor atom, acceptor molecule, acceptor atom, score
      P1  H  2305  2313       L1    13  1.00

> <Gold.PLP.Chemscore.Internal.Correction>
2.2422

