#       Name:                EN300-1198129_i001
#       Creating user name   fsindt
#       Creation time:       Mon Feb 27 17:31:46 2023


#       File generated by GOLD software.
#

@<TRIPOS>MOLECULE
EN300-1198129_i001|acide_1|mol2|127|dock4
    25    25     1
SMALL
USER_CHARGES


@<TRIPOS>ATOM
      1 O1           1.4475 -15.0053   8.0558 O.co2          1 <1>               -1.0000
      2 C2           0.7029 -14.0806   8.3503 C.2            1 <1>                0.0000
      3 O3           0.4162 -13.2360   7.5132 O.co2          1 <1>                0.0000
      4 C4           0.1466 -13.9874   9.7115 C.ar           1 <1>                0.0000
      5 C5           0.3643 -15.0168  10.6317 C.ar           1 <1>                0.0000
      6 C6          -0.1592 -14.9228  11.9034 C.ar           1 <1>                0.0000
      7 C7          -0.9000 -13.8127  12.2721 C.ar           1 <1>                0.0000
      8 C8          -1.1214 -12.7888  11.3699 C.ar           1 <1>                0.0000
      9 C9          -0.5981 -12.8644  10.0923 C.ar           1 <1>                0.0000
     10 F10         -0.8145 -11.8638   9.2108 F              1 <1>                0.0000
     11 S11          0.1149 -16.2202  13.0636 S.o2           1 <1>                0.0000
     12 O12         -0.0732 -15.6034  14.3299 O.2            1 <1>                0.0000
     13 O13         -0.7385 -17.2684  12.6253 O.2            1 <1>                0.0000
     14 C14          1.8550 -16.6762  12.8299 C.3            1 <1>                0.0000
     15 C15          2.4623 -17.0773  14.1758 C.3            1 <1>                0.0000
     16 C16          1.7470 -18.2491  14.7071 C.1            1 <1>                0.0000
     17 C17          1.1766 -19.1836  15.1309 C.1            1 <1>                0.0000
     18 H18          0.9412 -15.8842  10.3468 H              1 <1>                0.0000
     19 H19         -1.3076 -13.7464  13.2701 H              1 <1>                0.0000
     20 H20         -1.7002 -11.9262  11.6650 H              1 <1>                0.0000
     21 H21          1.9209 -17.5152  12.1372 H              1 <1>                0.0000
     22 H22          2.4022 -15.8257  12.4235 H              1 <1>                0.0000
     23 H23          3.5150 -17.3252  14.0399 H              1 <1>                0.0000
     24 H24          2.3718 -16.2478  14.8770 H              1 <1>                0.0000
     25 H25          0.6665 -20.0195  15.5099 H              1 <1>                0.0000
@<TRIPOS>BOND
    1    1    2 ar    
    2    2    3 ar    
    3    2    4 1     
    4    4    5 ar    
    5    4    9 ar    
    6    5    6 ar    
    7    5   18 1     
    8    6    7 ar    
    9    6   11 1     
   10    7    8 ar    
   11    7   19 1     
   12    8    9 ar    
   13    8   20 1     
   14    9   10 1     
   15   11   12 2     
   16   11   13 2     
   17   11   14 1     
   18   14   15 1     
   19   14   21 1     
   20   14   22 1     
   21   15   16 1     
   22   15   23 1     
   23   15   24 1     
   24   16   17 3     
   25   17   25 1     
@<TRIPOS>SUBSTRUCTURE
      1 ****           1
@<TRIPOS>COMMENT
> <Gold.Version>
2022.2.0

> <Gold.Id.Protein>
3pbl|protein|mol2

> <Gold.Protein.RotatedTorsions>
[ 1303 1298 1297 1294 ] final -113.84 input  179.99 | X-H torsion
[ 2461 2456 2455 2452 ] final   70.71 input   30.03 | X-H torsion
[ 2515 2510 2509 2506 ] final   66.42 input  -89.99 | X-H torsion
[ 3721 3712 3711 3710 ] final   57.99 input -179.91 | X-H torsion
[ 3841 3832 3831 3830 ] final  177.87 input -179.91 | X-H torsion
[ 3767 3762 3761 3758 ] final  167.39 input  -89.99 | X-H torsion
[ 2472 2467 2466 2463 ] final  -37.04 input  -89.97 | X-H torsion

> <Gold.Protein.ActiveResidues>
 VAL82   VAL86   LEU89   PHE106  VAL107  ASP110  VAL111  MET112  CYS114  THR115 
 CYS181  SER182  ILE183  PHE188  VAL189  ILE190  SER192  SER193  SER196  TRP342 
 PHE345  PHE346  HIS349  VAL350  TYR365  THR369  GLY372  TYR373 

> <Gold.Protein.RotatedAtoms>
    4.1484   -8.4889    4.0402 H   0  0  0  0  0  0  0  0  0  0  0  0  # atno 1303 bound_to 1298
    2.0205   -8.1117    7.4960 H   0  0  0  0  0  0  0  0  0  0  0  0  # atno 2461 bound_to 2456
   -3.6355   -5.0555    8.6210 H   0  0  0  0  0  0  0  0  0  0  0  0  # atno 2472 bound_to 2467
    2.1196   -7.5024    5.5419 H   0  0  0  0  0  0  0  0  0  0  0  0  # atno 2515 bound_to 2510
   -2.5809  -17.9221   13.4087 H   0  0  0  0  0  0  0  0  0  0  0  0  # atno 3721 bound_to 3712
   -3.9968  -22.6887   11.4716 H   0  0  0  0  0  0  0  0  0  0  0  0  # atno 3767 bound_to 3762
    2.9757  -20.0744    8.4222 H   0  0  0  0  0  0  0  0  0  0  0  0  # atno 3841 bound_to 3832
    4.7917   -9.6827    4.9498 LP  0  0  0  0  0  0  0  0  0  0  0  0  # atno 4297 bound_to 1298
    3.4221   -9.9501    4.1018 LP  0  0  0  0  0  0  0  0  0  0  0  0  # atno 4298 bound_to 1298
    0.4361   -8.4332    7.2640 LP  0  0  0  0  0  0  0  0  0  0  0  0  # atno 4299 bound_to 2456
    1.2815   -9.2630    8.3881 LP  0  0  0  0  0  0  0  0  0  0  0  0  # atno 4300 bound_to 2456
    2.8095   -8.3972    4.3634 LP  0  0  0  0  0  0  0  0  0  0  0  0  # atno 4301 bound_to 2510
    2.3678   -9.0999    5.7697 LP  0  0  0  0  0  0  0  0  0  0  0  0  # atno 4302 bound_to 2510
   -3.0006  -17.3902   14.8643 LP  0  0  0  0  0  0  0  0  0  0  0  0  # atno 4306 bound_to 3712
   -3.5474  -16.6447   13.5182 LP  0  0  0  0  0  0  0  0  0  0  0  0  # atno 4307 bound_to 3712
    2.3412  -21.1315    9.4498 LP  0  0  0  0  0  0  0  0  0  0  0  0  # atno 4314 bound_to 3832
    1.4507  -19.8848    8.8850 LP  0  0  0  0  0  0  0  0  0  0  0  0  # atno 4315 bound_to 3832
   -4.7452  -23.2060   10.1155 LP  0  0  0  0  0  0  0  0  0  0  0  0  # atno 4318 bound_to 3762
   -5.3851  -21.9803   10.9843 LP  0  0  0  0  0  0  0  0  0  0  0  0  # atno 4319 bound_to 3762
   -5.0790   -5.4492    9.2750 LP  0  0  0  0  0  0  0  0  0  0  0  0  # atno 4320 bound_to 2467
   -5.0022   -4.8887    7.7432 LP  0  0  0  0  0  0  0  0  0  0  0  0  # atno 4321 bound_to 2467

> <Gold.Score>
     Score     S(PLP)   S(hbond)     S(cho)   S(metal)  DE(clash)   DE(tors)     intcor
     52.42     -48.18       1.75       0.00       0.00       0.00       1.62       2.24

> <Gold.PLP.Fitness>
52.4163

> <Gold.PLP.PLP>
-48.1825

> <Gold.PLP.part.hbond>
-2.0000

> <Gold.PLP.part.metal>
0.0000

> <Gold.PLP.part.buried>
-5.2592

> <Gold.PLP.part.nonpolar>
-42.0343

> <Gold.PLP.part.repulsive>
0.3904

> <Gold.PLP.ligand.clash>
0.0000

> <Gold.PLP.ligand.torsion>
1.6223

> <Gold.PLP.Chemscore.Hbond>
1.7454

> <Gold.PLP.Chemscore.CHOScore>
0.0000

> <Gold.PLP.Chemscore.Metal>
0.0000

> <Gold.Chemscore.Hbonds>
donor molecule, donor type, donor heavy atom, donor atom, acceptor molecule, acceptor atom, score
      P1  H  2305  2313       L1    12  1.00
      P1  H  3712  3721       L1    13  0.75

> <Gold.PLP.Chemscore.Internal.Correction>
2.2422

