#       Name:                EN300-1198129_i001
#       Creating user name   fsindt
#       Creation time:       Mon Feb 27 17:31:56 2023


#       File generated by GOLD software.
#

@<TRIPOS>MOLECULE
EN300-1198129_i001|acide_1|mol2|127|dock15
    25    25     1
SMALL
USER_CHARGES


@<TRIPOS>ATOM
      1 O1           0.8088 -12.7742   7.0874 O.co2          1 <1>               -1.0000
      2 C2           0.3164 -11.9759   7.8726 C.2            1 <1>                0.0000
      3 O3           0.1996 -10.8001   7.5564 O.co2          1 <1>                0.0000
      4 C4          -0.1417 -12.4319   9.1967 C.ar           1 <1>                0.0000
      5 C5           0.2971 -13.6561   9.7090 C.ar           1 <1>                0.0000
      6 C6          -0.1356 -14.0763  10.9484 C.ar           1 <1>                0.0000
      7 C7          -1.0035 -13.2901  11.6873 C.ar           1 <1>                0.0000
      8 C8          -1.4438 -12.0775  11.1901 C.ar           1 <1>                0.0000
      9 C9          -1.0144 -11.6384   9.9513 C.ar           1 <1>                0.0000
     10 F10         -1.4447 -10.4534   9.4656 F              1 <1>                0.0000
     11 S11          0.4172 -15.6194  11.5946 S.o2           1 <1>                0.0000
     12 O12         -0.0812 -16.5826  10.6763 O.2            1 <1>                0.0000
     13 O13          1.8142 -15.4405  11.7825 O.2            1 <1>                0.0000
     14 C14         -0.4262 -15.7687  13.1937 C.3            1 <1>                0.0000
     15 C15          0.6048 -15.7012  14.3222 C.3            1 <1>                0.0000
     16 C16          1.5506 -16.8214  14.1905 C.1            1 <1>                0.0000
     17 C17          2.3049 -17.7148  14.0854 C.1            1 <1>                0.0000
     18 H18          0.9735 -14.2718   9.1347 H              1 <1>                0.0000
     19 H19         -1.3388 -13.6263  12.6574 H              1 <1>                0.0000
     20 H20         -2.1206 -11.4701  11.7724 H              1 <1>                0.0000
     21 H21         -1.1407 -14.9531  13.3052 H              1 <1>                0.0000
     22 H22         -0.9528 -16.7218  13.2393 H              1 <1>                0.0000
     23 H23          1.1481 -14.7581  14.2621 H              1 <1>                0.0000
     24 H24          0.0958 -15.7666  15.2838 H              1 <1>                0.0000
     25 H25          2.9795 -18.5140  13.9913 H              1 <1>                0.0000
@<TRIPOS>BOND
    1    1    2 ar    
    2    2    3 ar    
    3    2    4 1     
    4    4    5 ar    
    5    4    9 ar    
    6    5    6 ar    
    7    5   18 1     
    8    6    7 ar    
    9    6   11 1     
   10    7    8 ar    
   11    7   19 1     
   12    8    9 ar    
   13    8   20 1     
   14    9   10 1     
   15   11   12 2     
   16   11   13 2     
   17   11   14 1     
   18   14   15 1     
   19   14   21 1     
   20   14   22 1     
   21   15   16 1     
   22   15   23 1     
   23   15   24 1     
   24   16   17 3     
   25   17   25 1     
@<TRIPOS>SUBSTRUCTURE
      1 ****           1
@<TRIPOS>COMMENT
> <Gold.Version>
2022.2.0

> <Gold.Id.Protein>
3pbl|protein|mol2

> <Gold.Protein.RotatedTorsions>
[ 1303 1298 1297 1294 ] final -173.84 input  179.99 | X-H torsion
[ 2461 2456 2455 2452 ] final -124.05 input   30.03 | X-H torsion
[ 2515 2510 2509 2506 ] final  104.46 input  -89.99 | X-H torsion
[ 3721 3712 3711 3710 ] final  -12.57 input -179.91 | X-H torsion
[ 3841 3832 3831 3830 ] final -128.60 input -179.91 | X-H torsion
[ 3767 3762 3761 3758 ] final -166.41 input  -89.99 | X-H torsion
[ 2472 2467 2466 2463 ] final   55.48 input  -89.97 | X-H torsion

> <Gold.Protein.ActiveResidues>
 VAL82   VAL86   LEU89   PHE106  VAL107  ASP110  VAL111  MET112  CYS114  THR115 
 CYS181  SER182  ILE183  PHE188  VAL189  ILE190  SER192  SER193  SER196  TRP342 
 PHE345  PHE346  HIS349  VAL350  TYR365  THR369  GLY372  TYR373 

> <Gold.Protein.RotatedAtoms>
    4.8191   -8.7975    4.6260 H   0  0  0  0  0  0  0  0  0  0  0  0  # atno 1303 bound_to 1298
    0.6213   -9.1995    8.0942 H   0  0  0  0  0  0  0  0  0  0  0  0  # atno 2461 bound_to 2456
   -4.5692   -4.8117    7.6594 H   0  0  0  0  0  0  0  0  0  0  0  0  # atno 2472 bound_to 2467
    2.0289   -7.9287    5.9748 H   0  0  0  0  0  0  0  0  0  0  0  0  # atno 2515 bound_to 2510
   -2.5232  -17.8680   14.4061 H   0  0  0  0  0  0  0  0  0  0  0  0  # atno 3721 bound_to 3712
   -4.2331  -22.3696   11.6299 H   0  0  0  0  0  0  0  0  0  0  0  0  # atno 3767 bound_to 3762
    2.3412  -19.6216    8.4096 H   0  0  0  0  0  0  0  0  0  0  0  0  # atno 3841 bound_to 3832
    4.0930  -10.2588    4.6878 LP  0  0  0  0  0  0  0  0  0  0  0  0  # atno 4297 bound_to 1298
    3.4498   -9.0652    3.7777 LP  0  0  0  0  0  0  0  0  0  0  0  0  # atno 4298 bound_to 1298
    2.1377   -8.5974    8.0220 LP  0  0  0  0  0  0  0  0  0  0  0  0  # atno 4299 bound_to 2456
    0.9786   -8.0115    7.0321 LP  0  0  0  0  0  0  0  0  0  0  0  0  # atno 4300 bound_to 2456
    2.6410   -7.8152    4.4654 LP  0  0  0  0  0  0  0  0  0  0  0  0  # atno 4301 bound_to 2510
    2.6270   -9.2555    5.2347 LP  0  0  0  0  0  0  0  0  0  0  0  0  # atno 4302 bound_to 2510
   -3.5039  -16.6039   14.2713 LP  0  0  0  0  0  0  0  0  0  0  0  0  # atno 4306 bound_to 3712
   -3.1108  -17.4935   12.9596 LP  0  0  0  0  0  0  0  0  0  0  0  0  # atno 4307 bound_to 3712
    3.0038  -20.9931    8.9156 LP  0  0  0  0  0  0  0  0  0  0  0  0  # atno 4314 bound_to 3832
    1.5210  -20.5462    9.4336 LP  0  0  0  0  0  0  0  0  0  0  0  0  # atno 4315 bound_to 3832
   -4.3877  -23.3270   10.3160 LP  0  0  0  0  0  0  0  0  0  0  0  0  # atno 4318 bound_to 3762
   -5.5064  -22.1783   10.6254 LP  0  0  0  0  0  0  0  0  0  0  0  0  # atno 4319 bound_to 3762
   -3.7617   -5.2127    9.0208 LP  0  0  0  0  0  0  0  0  0  0  0  0  # atno 4320 bound_to 2467
   -5.3860   -5.3691    8.9588 LP  0  0  0  0  0  0  0  0  0  0  0  0  # atno 4321 bound_to 2467

> <Gold.Score>
     Score     S(PLP)   S(hbond)     S(cho)   S(metal)  DE(clash)   DE(tors)     intcor
     50.84     -48.65       0.96       0.00       0.00       0.00       1.46       2.22

> <Gold.PLP.Fitness>
50.8364

> <Gold.PLP.PLP>
-48.6531

> <Gold.PLP.part.hbond>
-1.0000

> <Gold.PLP.part.metal>
0.0000

> <Gold.PLP.part.buried>
-2.9181

> <Gold.PLP.part.nonpolar>
-46.7090

> <Gold.PLP.part.repulsive>
0.6354

> <Gold.PLP.ligand.clash>
0.0000

> <Gold.PLP.ligand.torsion>
1.4604

> <Gold.PLP.Chemscore.Hbond>
0.9600

> <Gold.PLP.Chemscore.CHOScore>
0.0000

> <Gold.PLP.Chemscore.Metal>
0.0000

> <Gold.Chemscore.Hbonds>
donor molecule, donor type, donor heavy atom, donor atom, acceptor molecule, acceptor atom, score
      P1  H  2456  2461       L1     3  0.96

> <Gold.PLP.Chemscore.Internal.Correction>
2.2242

