#       Name:                plp ligand
#       Creating user name   fsindt
#       Creation time:       Mon Feb 27 17:31:42 2023


#       File generated by GOLD software.
#

@<TRIPOS>MOLECULE
plp ligand
    25    25     1
SMALL
USER_CHARGES


@<TRIPOS>ATOM
      1 O1           3.4779  -2.4219  -1.0256 ACCEPTOR       1 <1>               -1.0000
      2 C2           3.8303  -1.4131  -0.4303 NONPOLAR       1 <1>                0.0000
      3 O3           4.9737  -1.3218  -0.0054 ACCEPTOR       1 <1>                0.0000
      4 C4           2.8793  -0.3055  -0.2304 NONPOLAR       1 <1>                0.0000
      5 C5           1.5735  -0.4035  -0.7194 NONPOLAR       1 <1>                0.0000
      6 C6           0.6893   0.6366  -0.5287 NONPOLAR       1 <1>                0.0000
      7 C7           1.0902   1.7779   0.1450 NONPOLAR       1 <1>                0.0000
      8 C8           2.3794   1.8853   0.6327 NONPOLAR       1 <1>                0.0000
      9 C9           3.2770   0.8486   0.4555 NONPOLAR       1 <1>                0.0000
     10 F10          4.5367   0.9537   0.9322 NONPOLAR       1 <1>                0.0000
     11 S11         -0.9568   0.5136  -1.1449 NONPOLAR       1 <1>                0.0000
     12 O12         -1.3578   1.8621  -1.3448 ACCEPTOR       1 <1>                0.0000
     13 O13         -0.8557  -0.3902  -2.2367 ACCEPTOR       1 <1>                0.0000
     14 C14         -1.8947  -0.2343   0.2158 NONPOLAR       1 <1>                0.0000
     15 C15         -3.3579  -0.3954  -0.2014 NONPOLAR       1 <1>                0.0000
     16 C16         -4.1190  -1.0023   0.9028 NONPOLAR       1 <1>                0.0000
     17 C17         -4.7260  -1.4864   1.7834 NONPOLAR       1 <1>                0.0000
     18 H18          1.2581  -1.2922  -1.2458                1 <1>                0.0000
     19 H19          0.3920   2.5891   0.2899                1 <1>                0.0000
     20 H20          2.6845   2.7787   1.1571                1 <1>                0.0000
     21 H21         -1.4747  -1.2119   0.4524                1 <1>                0.0000
     22 H22         -1.8360   0.4085   1.0941                1 <1>                0.0000
     23 H23         -3.7780   0.5822  -0.4379                1 <1>                0.0000
     24 H24         -3.4167  -1.0383  -1.0796                1 <1>                0.0000
     25 H25         -5.2690  -1.9193   2.5710                1 <1>                0.0000
@<TRIPOS>BOND
    1    1    2 ar    
    2    2    3 ar    
    3    2    4 1     
    4    4    5 ar    
    5    4    9 ar    
    6    5    6 ar    
    7    5   18 1     
    8    6    7 ar    
    9    6   11 1     
   10    7    8 ar    
   11    7   19 1     
   12    8    9 ar    
   13    8   20 1     
   14    9   10 1     
   15   11   12 2     
   16   11   13 2     
   17   11   14 1     
   18   14   15 1     
   19   14   21 1     
   20   14   22 1     
   21   15   16 1     
   22   15   23 1     
   23   15   24 1     
   24   16   17 3     
   25   17   25 1     
@<TRIPOS>SUBSTRUCTURE
      1 ****           1
@<TRIPOS>SET
DONOR_HYDROGENS      STATIC     ATOMS    <user>   **** ""
0
ATOM$RED        STATIC     ATOMS    COLORGROUP SYSTEM
0
