#       Name:                EN300-07587_i001
#       Creating user name   aseyller
#       Creation time:       Fri Apr 21 16:29:25 2023


#       File generated by GOLD software.
#

@<TRIPOS>MOLECULE
EN300-07587_i001|benzaldehydes|mol2|24|dock6
    21    21     1
SMALL
USER_CHARGES


@<TRIPOS>ATOM
      1 C1          30.0237  40.6317  36.0984 C.3            1 <1>                0.0000
      2 C2          29.7176  39.6346  37.2177 C.3            1 <1>                0.0000
      3 O3          30.3677  38.3927  36.9402 O.3            1 <1>                0.0000
      4 C4          29.9856  37.3170  37.6794 C.ar           1 <1>                0.0000
      5 C5          28.7276  37.2818  38.2471 C.ar           1 <1>                0.0000
      6 C6          28.3369  36.1726  39.0073 C.ar           1 <1>                0.0000
      7 C7          26.9998  36.1292  39.6132 C.2            1 <1>                0.0000
      8 O8          26.1986  37.0088  39.3778 O.2            1 <1>                0.0000
      9 C9          29.2245  35.1049  39.1878 C.ar           1 <1>                0.0000
     10 C10         30.4781  35.1482  38.6179 C.ar           1 <1>                0.0000
     11 Cl11        31.5777  33.8239  38.8423 Cl             1 <1>                0.0000
     12 C12         30.8624  36.2478  37.8589 C.ar           1 <1>                0.0000
     13 O13         32.0989  36.2850  37.2991 O.co2          1 <1>               -1.0000
     14 H14         29.5279  41.5791  36.3101 H              1 <1>                0.0000
     15 H15         31.1003  40.7908  36.0377 H              1 <1>                0.0000
     16 H16         29.6609  40.2358  35.1499 H              1 <1>                0.0000
     17 H17         30.0804  40.0306  38.1663 H              1 <1>                0.0000
     18 H18         28.6410  39.4755  37.2783 H              1 <1>                0.0000
     19 H19         28.0465  38.1078  38.1053 H              1 <1>                0.0000
     20 H20         26.7299  35.3140  40.2682 H              1 <1>                0.0000
     21 H21         28.9268  34.2480  39.7738 H              1 <1>                0.0000
@<TRIPOS>BOND
    1    1    2 1     
    2    1   14 1     
    3    1   15 1     
    4    1   16 1     
    5    2    3 1     
    6    2   17 1     
    7    2   18 1     
    8    3    4 1     
    9    4    5 ar    
   10    4   12 ar    
   11    5    6 ar    
   12    5   19 1     
   13    6    7 1     
   14    6    9 ar    
   15    7    8 2     
   16    7   20 1     
   17    9   10 ar    
   18    9   21 1     
   19   10   11 1     
   20   10   12 ar    
   21   12   13 ar    
@<TRIPOS>SUBSTRUCTURE
      1 ****           1
@<TRIPOS>COMMENT
> <Gold.Version>
2022.2.0

> <Gold.Id.Protein>
1qkm|1qkm_protein|mol2

> <Gold.Protein.RotatedTorsions>
[  496  491  490  487 ] final -156.38 input  -89.99 | X-H torsion

> <Gold.Protein.ActiveResidues>
 MET295  LEU298  THR299  LEU301  ALA302  GLU305  TRP335  MET336  LEU339  MET340 
 GLY342  LEU343  ARG346  PHE356  ILE373  ILE376  PHE377  LEU380  LYS471  GLY472 
 MET473  HIS475  LEU476  LEU477  ASN478  MET479  VAL484  VAL487 

> <Gold.Protein.RotatedAtoms>
   37.2609   33.8200   40.7354 H   0  0  0  0  0  0  0  0  0  0  0  0  # atno 496  bound_to 491 

> <Gold.Score>
     Score     S(PLP)   S(hbond)     S(cho)   S(metal)  DE(clash)   DE(tors)     intcor
     39.45     -39.56       0.00       0.00       0.00       0.00       0.40       0.69

> <Gold.PLP.Fitness>
39.4499

> <Gold.PLP.PLP>
-39.5564

> <Gold.PLP.part.hbond>
0.0000

> <Gold.PLP.part.metal>
0.0000

> <Gold.PLP.part.buried>
-4.1205

> <Gold.PLP.part.nonpolar>
-35.5823

> <Gold.PLP.part.repulsive>
0.0623

> <Gold.PLP.ligand.clash>
0.0000

> <Gold.PLP.ligand.torsion>
0.3987

> <Gold.PLP.Chemscore.Hbond>
0.0000

> <Gold.PLP.Chemscore.CHOScore>
0.0000

> <Gold.PLP.Chemscore.Metal>
0.0000

> <Gold.PLP.Chemscore.Internal.Correction>
0.6909

