#       Name:                EN300-07587_i001
#       Creating user name   aseyller
#       Creation time:       Fri Apr 21 16:29:24 2023


#       File generated by GOLD software.
#

@<TRIPOS>MOLECULE
EN300-07587_i001|benzaldehydes|mol2|24|dock5
    21    21     1
SMALL
USER_CHARGES


@<TRIPOS>ATOM
      1 C1          25.8014  36.7174  39.8279 C.3            1 <1>                0.0000
      2 C2          26.8321  36.9615  38.7239 C.3            1 <1>                0.0000
      3 O3          28.1255  36.5641  39.1835 O.3            1 <1>                0.0000
      4 C4          29.1916  36.9374  38.4260 C.ar           1 <1>                0.0000
      5 C5          29.1387  38.1024  37.6872 C.ar           1 <1>                0.0000
      6 C6          30.2382  38.4843  36.9086 C.ar           1 <1>                0.0000
      7 C7          30.1880  39.7228  36.1209 C.2            1 <1>                0.0000
      8 O8          29.4055  40.6001  36.4195 O.2            1 <1>                0.0000
      9 C9          31.3856  37.6824  36.8836 C.ar           1 <1>                0.0000
     10 C10         31.4299  36.5213  37.6240 C.ar           1 <1>                0.0000
     11 Cl11        32.8531  35.5278  37.5922 Cl             1 <1>                0.0000
     12 C12         30.3396  36.1464  38.4005 C.ar           1 <1>                0.0000
     13 O13         30.3888  35.0013  39.1286 O.co2          1 <1>               -1.0000
     14 H14         24.8148  37.0206  39.4774 H              1 <1>                0.0000
     15 H15         25.7865  35.6580  40.0834 H              1 <1>                0.0000
     16 H16         26.0685  37.3000  40.7096 H              1 <1>                0.0000
     17 H17         26.5650  36.3790  37.8422 H              1 <1>                0.0000
     18 H18         26.8471  38.0211  38.4685 H              1 <1>                0.0000
     19 H19         28.2514  38.7177  37.7093 H              1 <1>                0.0000
     20 H20         30.8479  39.8525  35.2759 H              1 <1>                0.0000
     21 H21         32.2354  37.9736  36.2840 H              1 <1>                0.0000
@<TRIPOS>BOND
    1    1    2 1     
    2    1   14 1     
    3    1   15 1     
    4    1   16 1     
    5    2    3 1     
    6    2   17 1     
    7    2   18 1     
    8    3    4 1     
    9    4    5 ar    
   10    4   12 ar    
   11    5    6 ar    
   12    5   19 1     
   13    6    7 1     
   14    6    9 ar    
   15    7    8 2     
   16    7   20 1     
   17    9   10 ar    
   18    9   21 1     
   19   10   11 1     
   20   10   12 ar    
   21   12   13 ar    
@<TRIPOS>SUBSTRUCTURE
      1 ****           1
@<TRIPOS>COMMENT
> <Gold.Version>
2022.2.0

> <Gold.Id.Protein>
1qkm|1qkm_protein|mol2

> <Gold.Protein.RotatedTorsions>
[  496  491  490  487 ] final  106.61 input  -89.99 | X-H torsion

> <Gold.Protein.ActiveResidues>
 MET295  LEU298  THR299  LEU301  ALA302  GLU305  TRP335  MET336  LEU339  MET340 
 GLY342  LEU343  ARG346  PHE356  ILE373  ILE376  PHE377  LEU380  LYS471  GLY472 
 MET473  HIS475  LEU476  LEU477  ASN478  MET479  VAL484  VAL487 

> <Gold.Protein.RotatedAtoms>
   36.9702   32.9485   41.8089 H   0  0  0  0  0  0  0  0  0  0  0  0  # atno 496  bound_to 491 

> <Gold.Score>
     Score     S(PLP)   S(hbond)     S(cho)   S(metal)  DE(clash)   DE(tors)     intcor
     39.67     -40.00       0.00       0.00       0.00       0.00       0.51       0.69

> <Gold.PLP.Fitness>
39.6680

> <Gold.PLP.PLP>
-39.9982

> <Gold.PLP.part.hbond>
0.0000

> <Gold.PLP.part.metal>
0.0000

> <Gold.PLP.part.buried>
-3.2532

> <Gold.PLP.part.nonpolar>
-37.6414

> <Gold.PLP.part.repulsive>
0.0931

> <Gold.PLP.ligand.clash>
0.0000

> <Gold.PLP.ligand.torsion>
0.5105

> <Gold.PLP.Chemscore.Hbond>
0.0000

> <Gold.PLP.Chemscore.CHOScore>
0.0000

> <Gold.PLP.Chemscore.Metal>
0.0000

> <Gold.PLP.Chemscore.Internal.Correction>
0.6909

