#       Name:                EN300-07587_i001
#       Creating user name   aseyller
#       Creation time:       Fri Apr 21 16:29:28 2023


#       File generated by GOLD software.
#

@<TRIPOS>MOLECULE
EN300-07587_i001|benzaldehydes|mol2|24|dock12
    21    21     1
SMALL
USER_CHARGES


@<TRIPOS>ATOM
      1 C1          31.5063  38.6634  34.9057 C.3            1 <1>                0.0000
      2 C2          30.8486  39.4319  36.0536 C.3            1 <1>                0.0000
      3 O3          29.4884  39.0151  36.1883 O.3            1 <1>                0.0000
      4 C4          29.2283  38.0423  37.1023 C.ar           1 <1>                0.0000
      5 C5          30.2239  37.1612  37.4743 C.ar           1 <1>                0.0000
      6 C6          29.9530  36.1608  38.4160 C.ar           1 <1>                0.0000
      7 C7          31.0083  35.2210  38.8161 C.2            1 <1>                0.0000
      8 O8          32.1042  35.2843  38.3003 O.2            1 <1>                0.0000
      9 C9          28.6736  36.0595  38.9754 C.ar           1 <1>                0.0000
     10 C10         27.6857  36.9428  38.5984 C.ar           1 <1>                0.0000
     11 Cl11        26.0997  36.8162  39.2926 Cl             1 <1>                0.0000
     12 C12         27.9578  37.9387  37.6674 C.ar           1 <1>                0.0000
     13 O13         26.9807  38.8070  37.2999 O.co2          1 <1>               -1.0000
     14 H14         32.5438  38.9813  34.8030 H              1 <1>                0.0000
     15 H15         31.4730  37.5948  35.1177 H              1 <1>                0.0000
     16 H16         30.9706  38.8667  33.9785 H              1 <1>                0.0000
     17 H17         31.3844  39.2287  36.9809 H              1 <1>                0.0000
     18 H18         30.8819  40.5006  35.8415 H              1 <1>                0.0000
     19 H19         31.2093  37.2431  37.0399 H              1 <1>                0.0000
     20 H20         30.8085  34.4736  39.5696 H              1 <1>                0.0000
     21 H21         28.4608  35.2890  39.7016 H              1 <1>                0.0000
@<TRIPOS>BOND
    1    1    2 1     
    2    1   14 1     
    3    1   15 1     
    4    1   16 1     
    5    2    3 1     
    6    2   17 1     
    7    2   18 1     
    8    3    4 1     
    9    4    5 ar    
   10    4   12 ar    
   11    5    6 ar    
   12    5   19 1     
   13    6    7 1     
   14    6    9 ar    
   15    7    8 2     
   16    7   20 1     
   17    9   10 ar    
   18    9   21 1     
   19   10   11 1     
   20   10   12 ar    
   21   12   13 ar    
@<TRIPOS>SUBSTRUCTURE
      1 ****           1
@<TRIPOS>COMMENT
> <Gold.Version>
2022.2.0

> <Gold.Id.Protein>
1qkm|1qkm_protein|mol2

> <Gold.Protein.RotatedTorsions>
[  496  491  490  487 ] final  -77.13 input  -89.99 | X-H torsion

> <Gold.Protein.ActiveResidues>
 MET295  LEU298  THR299  LEU301  ALA302  GLU305  TRP335  MET336  LEU339  MET340 
 GLY342  LEU343  ARG346  PHE356  ILE373  ILE376  PHE377  LEU380  LYS471  GLY472 
 MET473  HIS475  LEU476  LEU477  ASN478  MET479  VAL484  VAL487 

> <Gold.Protein.RotatedAtoms>
   36.6402   34.7166   41.2436 H   0  0  0  0  0  0  0  0  0  0  0  0  # atno 496  bound_to 491 

> <Gold.Score>
     Score     S(PLP)   S(hbond)     S(cho)   S(metal)  DE(clash)   DE(tors)     intcor
     38.14     -38.62       0.00       0.00       0.00       0.00       0.59       0.69

> <Gold.PLP.Fitness>
38.1418

> <Gold.PLP.PLP>
-38.6218

> <Gold.PLP.part.hbond>
0.0000

> <Gold.PLP.part.metal>
0.0000

> <Gold.PLP.part.buried>
-3.5430

> <Gold.PLP.part.nonpolar>
-35.4220

> <Gold.PLP.part.repulsive>
0.0648

> <Gold.PLP.ligand.clash>
0.0000

> <Gold.PLP.ligand.torsion>
0.5854

> <Gold.PLP.Chemscore.Hbond>
0.0000

> <Gold.PLP.Chemscore.CHOScore>
0.0000

> <Gold.PLP.Chemscore.Metal>
0.0000

> <Gold.PLP.Chemscore.Internal.Correction>
0.6907

