#       Name:                EN300-07587_i001
#       Creating user name   aseyller
#       Creation time:       Fri Apr 21 16:29:31 2023


#       File generated by GOLD software.
#

@<TRIPOS>MOLECULE
EN300-07587_i001|benzaldehydes|mol2|24|dock15
    21    21     1
SMALL
USER_CHARGES


@<TRIPOS>ATOM
      1 C1          28.7737  36.7036  41.6565 C.3            1 <1>                0.0000
      2 C2          28.6361  35.7119  40.4996 C.3            1 <1>                0.0000
      3 O3          28.3102  36.4196  39.3017 O.3            1 <1>                0.0000
      4 C4          29.3481  36.8202  38.5194 C.ar           1 <1>                0.0000
      5 C5          30.5506  36.1438  38.5692 C.ar           1 <1>                0.0000
      6 C6          31.6172  36.5584  37.7621 C.ar           1 <1>                0.0000
      7 C7          32.8986  35.8426  37.8103 C.2            1 <1>                0.0000
      8 O8          33.6015  35.7903  36.8232 O.2            1 <1>                0.0000
      9 C9          31.4583  37.6570  36.9088 C.ar           1 <1>                0.0000
     10 C10         30.2549  38.3263  36.8654 C.ar           1 <1>                0.0000
     11 Cl11        30.0591  39.6883  35.8070 Cl             1 <1>                0.0000
     12 C12         29.1953  37.9101  37.6633 C.ar           1 <1>                0.0000
     13 O13         28.0113  38.5731  37.6162 O.co2          1 <1>               -1.0000
     14 H14         29.0223  36.1637  42.5702 H              1 <1>                0.0000
     15 H15         29.5647  37.4184  41.4302 H              1 <1>                0.0000
     16 H16         27.8320  37.2350  41.7934 H              1 <1>                0.0000
     17 H17         29.5779  35.1803  40.3628 H              1 <1>                0.0000
     18 H18         27.8450  34.9970  40.7259 H              1 <1>                0.0000
     19 H19         30.6686  35.2971  39.2291 H              1 <1>                0.0000
     20 H20         33.2152  35.3629  38.7246 H              1 <1>                0.0000
     21 H21         32.2789  37.9799  36.2852 H              1 <1>                0.0000
@<TRIPOS>BOND
    1    1    2 1     
    2    1   14 1     
    3    1   15 1     
    4    1   16 1     
    5    2    3 1     
    6    2   17 1     
    7    2   18 1     
    8    3    4 1     
    9    4    5 ar    
   10    4   12 ar    
   11    5    6 ar    
   12    5   19 1     
   13    6    7 1     
   14    6    9 ar    
   15    7    8 2     
   16    7   20 1     
   17    9   10 ar    
   18    9   21 1     
   19   10   11 1     
   20   10   12 ar    
   21   12   13 ar    
@<TRIPOS>SUBSTRUCTURE
      1 ****           1
@<TRIPOS>COMMENT
> <Gold.Version>
2022.2.0

> <Gold.Id.Protein>
1qkm|1qkm_protein|mol2

> <Gold.Protein.RotatedTorsions>
[  496  491  490  487 ] final  163.28 input  -89.99 | X-H torsion

> <Gold.Protein.ActiveResidues>
 MET295  LEU298  THR299  LEU301  ALA302  GLU305  TRP335  MET336  LEU339  MET340 
 GLY342  LEU343  ARG346  PHE356  ILE373  ILE376  PHE377  LEU380  LYS471  GLY472 
 MET473  HIS475  LEU476  LEU477  ASN478  MET479  VAL484  VAL487 

> <Gold.Protein.RotatedAtoms>
   37.3045   33.2429   41.0323 H   0  0  0  0  0  0  0  0  0  0  0  0  # atno 496  bound_to 491 

> <Gold.Score>
     Score     S(PLP)   S(hbond)     S(cho)   S(metal)  DE(clash)   DE(tors)     intcor
     37.93     -38.73       0.00       0.00       0.00       0.00       0.75       0.69

> <Gold.PLP.Fitness>
37.9322

> <Gold.PLP.PLP>
-38.7322

> <Gold.PLP.part.hbond>
0.0000

> <Gold.PLP.part.metal>
0.0000

> <Gold.PLP.part.buried>
-1.5954

> <Gold.PLP.part.nonpolar>
-37.7358

> <Gold.PLP.part.repulsive>
0.0150

> <Gold.PLP.ligand.clash>
0.0000

> <Gold.PLP.ligand.torsion>
0.7453

> <Gold.PLP.Chemscore.Hbond>
0.0000

> <Gold.PLP.Chemscore.CHOScore>
0.0000

> <Gold.PLP.Chemscore.Metal>
0.0000

> <Gold.PLP.Chemscore.Internal.Correction>
0.6907

