#       Name:                EN300-07587_i001
#       Creating user name   aseyller
#       Creation time:       Fri Apr 21 16:29:30 2023


#       File generated by GOLD software.
#

@<TRIPOS>MOLECULE
EN300-07587_i001|benzaldehydes|mol2|24|dock14
    21    21     1
SMALL
USER_CHARGES


@<TRIPOS>ATOM
      1 C1          25.9484  36.7043  39.3047 C.3            1 <1>                0.0000
      2 C2          27.2964  36.0916  38.9197 C.3            1 <1>                0.0000
      3 O3          28.2742  37.1270  38.8025 O.3            1 <1>                0.0000
      4 C4          29.5237  36.7555  38.4148 C.ar           1 <1>                0.0000
      5 C5          30.0007  35.5002  38.7352 C.ar           1 <1>                0.0000
      6 C6          31.2875  35.1204  38.3343 C.ar           1 <1>                0.0000
      7 C7          31.8002  33.7862  38.6717 C.2            1 <1>                0.0000
      8 O8          31.2712  32.7981  38.2080 O.2            1 <1>                0.0000
      9 C9          32.0837  36.0160  37.6103 C.ar           1 <1>                0.0000
     10 C10         31.5999  37.2669  37.2948 C.ar           1 <1>                0.0000
     11 Cl11        32.5880  38.3766  36.3971 Cl             1 <1>                0.0000
     12 C12         30.3202  37.6404  37.6890 C.ar           1 <1>                0.0000
     13 O13         29.8482  38.8742  37.3750 O.co2          1 <1>               -1.0000
     14 H14         25.2025  35.9144  39.3941 H              1 <1>                0.0000
     15 H15         26.0441  37.2232  40.2583 H              1 <1>                0.0000
     16 H16         25.6379  37.4116  38.5357 H              1 <1>                0.0000
     17 H17         27.6068  35.3841  39.6887 H              1 <1>                0.0000
     18 H18         27.2007  35.5726  37.9660 H              1 <1>                0.0000
     19 H19         29.3830  34.8128  39.2941 H              1 <1>                0.0000
     20 H20         32.6482  33.6848  39.3327 H              1 <1>                0.0000
     21 H21         33.0768  35.7268  37.2997 H              1 <1>                0.0000
@<TRIPOS>BOND
    1    1    2 1     
    2    1   14 1     
    3    1   15 1     
    4    1   16 1     
    5    2    3 1     
    6    2   17 1     
    7    2   18 1     
    8    3    4 1     
    9    4    5 ar    
   10    4   12 ar    
   11    5    6 ar    
   12    5   19 1     
   13    6    7 1     
   14    6    9 ar    
   15    7    8 2     
   16    7   20 1     
   17    9   10 ar    
   18    9   21 1     
   19   10   11 1     
   20   10   12 ar    
   21   12   13 ar    
@<TRIPOS>SUBSTRUCTURE
      1 ****           1
@<TRIPOS>COMMENT
> <Gold.Version>
2022.2.0

> <Gold.Id.Protein>
1qkm|1qkm_protein|mol2

> <Gold.Protein.RotatedTorsions>
[  496  491  490  487 ] final  150.24 input  -89.99 | X-H torsion

> <Gold.Protein.ActiveResidues>
 MET295  LEU298  THR299  LEU301  ALA302  GLU305  TRP335  MET336  LEU339  MET340 
 GLY342  LEU343  ARG346  PHE356  ILE373  ILE376  PHE377  LEU380  LYS471  GLY472 
 MET473  HIS475  LEU476  LEU477  ASN478  MET479  VAL484  VAL487 

> <Gold.Protein.RotatedAtoms>
   37.2637   33.1063   41.1922 H   0  0  0  0  0  0  0  0  0  0  0  0  # atno 496  bound_to 491 

> <Gold.Score>
     Score     S(PLP)   S(hbond)     S(cho)   S(metal)  DE(clash)   DE(tors)     intcor
     39.02     -40.30       0.00       0.00       0.00       0.00       0.99       0.69

> <Gold.PLP.Fitness>
39.0173

> <Gold.PLP.PLP>
-40.3039

> <Gold.PLP.part.hbond>
0.0000

> <Gold.PLP.part.metal>
0.0000

> <Gold.PLP.part.buried>
-4.1325

> <Gold.PLP.part.nonpolar>
-36.7240

> <Gold.PLP.part.repulsive>
0.0229

> <Gold.PLP.ligand.clash>
0.0000

> <Gold.PLP.ligand.torsion>
0.9886

> <Gold.PLP.Chemscore.Hbond>
0.0000

> <Gold.PLP.Chemscore.CHOScore>
0.0000

> <Gold.PLP.Chemscore.Metal>
0.0000

> <Gold.PLP.Chemscore.Internal.Correction>
0.6907

