#       Name:                EN300-07587_i001
#       Creating user name   aseyller
#       Creation time:       Fri Apr 21 16:29:27 2023


#       File generated by GOLD software.
#

@<TRIPOS>MOLECULE
EN300-07587_i001|benzaldehydes|mol2|24|dock9
    21    21     1
SMALL
USER_CHARGES


@<TRIPOS>ATOM
      1 C1          26.8655  36.2669  40.1084 C.3            1 <1>                0.0000
      2 C2          28.1798  36.0598  40.8637 C.3            1 <1>                0.0000
      3 O3          29.1031  35.3575  40.0293 O.3            1 <1>                0.0000
      4 C4          29.8101  36.0960  39.1324 C.ar           1 <1>                0.0000
      5 C5          29.3123  37.3053  38.6899 C.ar           1 <1>                0.0000
      6 C6          30.0428  38.0636  37.7667 C.ar           1 <1>                0.0000
      7 C7          29.5187  39.3510  37.2927 C.2            1 <1>                0.0000
      8 O8          30.1932  40.0499  36.5662 O.2            1 <1>                0.0000
      9 C9          31.2743  37.5912  37.2973 C.ar           1 <1>                0.0000
     10 C10         31.7636  36.3832  37.7441 C.ar           1 <1>                0.0000
     11 Cl11        33.2907  35.7985  37.1613 Cl             1 <1>                0.0000
     12 C12         31.0397  35.6342  38.6646 C.ar           1 <1>                0.0000
     13 O13         31.5269  34.4447  39.1020 O.co2          1 <1>               -1.0000
     14 H14         26.1612  36.8027  40.7450 H              1 <1>                0.0000
     15 H15         27.0530  36.8474  39.2052 H              1 <1>                0.0000
     16 H16         26.4457  35.2983  39.8372 H              1 <1>                0.0000
     17 H17         28.5995  37.0285  41.1351 H              1 <1>                0.0000
     18 H18         27.9922  35.4792  41.7670 H              1 <1>                0.0000
     19 H19         28.3617  37.6655  39.0546 H              1 <1>                0.0000
     20 H20         28.5327  39.6755  37.5909 H              1 <1>                0.0000
     21 H21         31.8403  38.1731  36.5849 H              1 <1>                0.0000
@<TRIPOS>BOND
    1    1    2 1     
    2    1   14 1     
    3    1   15 1     
    4    1   16 1     
    5    2    3 1     
    6    2   17 1     
    7    2   18 1     
    8    3    4 1     
    9    4    5 ar    
   10    4   12 ar    
   11    5    6 ar    
   12    5   19 1     
   13    6    7 1     
   14    6    9 ar    
   15    7    8 2     
   16    7   20 1     
   17    9   10 ar    
   18    9   21 1     
   19   10   11 1     
   20   10   12 ar    
   21   12   13 ar    
@<TRIPOS>SUBSTRUCTURE
      1 ****           1
@<TRIPOS>COMMENT
> <Gold.Version>
2022.2.0

> <Gold.Id.Protein>
1qkm|1qkm_protein|mol2

> <Gold.Protein.RotatedTorsions>
[  496  491  490  487 ] final  122.94 input  -89.99 | X-H torsion

> <Gold.Protein.ActiveResidues>
 MET295  LEU298  THR299  LEU301  ALA302  GLU305  TRP335  MET336  LEU339  MET340 
 GLY342  LEU343  ARG346  PHE356  ILE373  ILE376  PHE377  LEU380  LYS471  GLY472 
 MET473  HIS475  LEU476  LEU477  ASN478  MET479  VAL484  VAL487 

> <Gold.Protein.RotatedAtoms>
   37.1029   32.9486   41.5762 H   0  0  0  0  0  0  0  0  0  0  0  0  # atno 496  bound_to 491 

> <Gold.Score>
     Score     S(PLP)   S(hbond)     S(cho)   S(metal)  DE(clash)   DE(tors)     intcor
     40.31     -40.58       0.00       0.00       0.00       0.02       0.47       0.69

> <Gold.PLP.Fitness>
40.3101

> <Gold.PLP.PLP>
-40.5769

> <Gold.PLP.part.hbond>
0.0000

> <Gold.PLP.part.metal>
0.0000

> <Gold.PLP.part.buried>
-4.3663

> <Gold.PLP.part.nonpolar>
-37.1556

> <Gold.PLP.part.repulsive>
0.7369

> <Gold.PLP.ligand.clash>
0.0184

> <Gold.PLP.ligand.torsion>
0.4696

> <Gold.PLP.Chemscore.Hbond>
0.0000

> <Gold.PLP.Chemscore.CHOScore>
0.0000

> <Gold.PLP.Chemscore.Metal>
0.0000

> <Gold.PLP.Chemscore.Internal.Correction>
0.6909

