#       Name:                EN300-07587_i001
#       Creating user name   aseyller
#       Creation time:       Fri Apr 21 16:29:32 2023


#       File generated by GOLD software.
#

@<TRIPOS>MOLECULE
EN300-07587_i001|benzaldehydes|mol2|24|dock16
    21    21     1
SMALL
USER_CHARGES


@<TRIPOS>ATOM
      1 C1          27.2177  38.5012  37.6008 C.3            1 <1>                0.0000
      2 C2          28.7156  38.5597  37.2946 C.3            1 <1>                0.0000
      3 O3          29.4228  37.7248  38.2137 O.3            1 <1>                0.0000
      4 C4          30.4107  36.9421  37.7028 C.ar           1 <1>                0.0000
      5 C5          31.1157  37.3588  36.5914 C.ar           1 <1>                0.0000
      6 C6          32.1325  36.5509  36.0679 C.ar           1 <1>                0.0000
      7 C7          32.8864  36.9891  34.8861 C.2            1 <1>                0.0000
      8 O8          32.7010  38.0952  34.4245 O.2            1 <1>                0.0000
      9 C9          32.4289  35.3244  36.6746 C.ar           1 <1>                0.0000
     10 C10         31.7203  34.9161  37.7835 C.ar           1 <1>                0.0000
     11 Cl11        32.0887  33.3951  38.5349 Cl             1 <1>                0.0000
     12 C12         30.7147  35.7218  38.3051 C.ar           1 <1>                0.0000
     13 O13         30.0199  35.3148  39.3983 O.co2          1 <1>               -1.0000
     14 H14         26.6784  39.1381  36.8997 H              1 <1>                0.0000
     15 H15         26.8666  37.4740  37.5028 H              1 <1>                0.0000
     16 H16         27.0411  38.8500  38.6183 H              1 <1>                0.0000
     17 H17         28.8923  38.2109  36.2770 H              1 <1>                0.0000
     18 H18         29.0668  39.5869  37.3927 H              1 <1>                0.0000
     19 H19         30.8834  38.3056  36.1266 H              1 <1>                0.0000
     20 H20         33.6058  36.3264  34.4283 H              1 <1>                0.0000
     21 H21         33.2123  34.6984  36.2735 H              1 <1>                0.0000
@<TRIPOS>BOND
    1    1    2 1     
    2    1   14 1     
    3    1   15 1     
    4    1   16 1     
    5    2    3 1     
    6    2   17 1     
    7    2   18 1     
    8    3    4 1     
    9    4    5 ar    
   10    4   12 ar    
   11    5    6 ar    
   12    5   19 1     
   13    6    7 1     
   14    6    9 ar    
   15    7    8 2     
   16    7   20 1     
   17    9   10 ar    
   18    9   21 1     
   19   10   11 1     
   20   10   12 ar    
   21   12   13 ar    
@<TRIPOS>SUBSTRUCTURE
      1 ****           1
@<TRIPOS>COMMENT
> <Gold.Version>
2022.2.0

> <Gold.Id.Protein>
1qkm|1qkm_protein|mol2

> <Gold.Protein.RotatedTorsions>
[  496  491  490  487 ] final -130.21 input  -89.99 | X-H torsion

> <Gold.Protein.ActiveResidues>
 MET295  LEU298  THR299  LEU301  ALA302  GLU305  TRP335  MET336  LEU339  MET340 
 GLY342  LEU343  ARG346  PHE356  ILE373  ILE376  PHE377  LEU380  LYS471  GLY472 
 MET473  HIS475  LEU476  LEU477  ASN478  MET479  VAL484  VAL487 

> <Gold.Protein.RotatedAtoms>
   37.1063   34.2178   40.7491 H   0  0  0  0  0  0  0  0  0  0  0  0  # atno 496  bound_to 491 

> <Gold.Score>
     Score     S(PLP)   S(hbond)     S(cho)   S(metal)  DE(clash)   DE(tors)     intcor
     39.55     -40.24       0.00       0.00       0.00       0.00       0.69       0.69

> <Gold.PLP.Fitness>
39.5507

> <Gold.PLP.PLP>
-40.2374

> <Gold.PLP.part.hbond>
0.0000

> <Gold.PLP.part.metal>
0.0000

> <Gold.PLP.part.buried>
-4.2494

> <Gold.PLP.part.nonpolar>
-35.9595

> <Gold.PLP.part.repulsive>
0.2470

> <Gold.PLP.ligand.clash>
0.0000

> <Gold.PLP.ligand.torsion>
0.6887

> <Gold.PLP.Chemscore.Hbond>
0.0000

> <Gold.PLP.Chemscore.CHOScore>
0.0000

> <Gold.PLP.Chemscore.Metal>
0.0000

> <Gold.PLP.Chemscore.Internal.Correction>
0.6907

