#       Name:                EN300-07587_i001
#       Creating user name   aseyller
#       Creation time:       Fri Apr 21 16:29:32 2023


#       File generated by GOLD software.
#

@<TRIPOS>MOLECULE
EN300-07587_i001|benzaldehydes|mol2|24|dock17
    21    21     1
SMALL
USER_CHARGES


@<TRIPOS>ATOM
      1 C1          28.7955  36.1469  40.9545 C.3            1 <1>                0.0000
      2 C2          28.9990  36.6087  39.5101 C.3            1 <1>                0.0000
      3 O3          30.3386  36.3229  39.1029 O.3            1 <1>                0.0000
      4 C4          30.8042  36.9794  38.0066 C.ar           1 <1>                0.0000
      5 C5          30.2529  38.1916  37.6427 C.ar           1 <1>                0.0000
      6 C6          30.7347  38.8653  36.5136 C.ar           1 <1>                0.0000
      7 C7          30.1525  40.1555  36.1218 C.2            1 <1>                0.0000
      8 O8          29.1648  40.5723  36.6890 O.2            1 <1>                0.0000
      9 C9          31.7732  38.3058  35.7596 C.ar           1 <1>                0.0000
     10 C10         32.3177  37.0955  36.1299 C.ar           1 <1>                0.0000
     11 Cl11        33.6054  36.4026  35.1942 Cl             1 <1>                0.0000
     12 C12         31.8418  36.4305  37.2541 C.ar           1 <1>                0.0000
     13 O13         32.3824  35.2383  37.6147 O.co2          1 <1>               -1.0000
     14 H14         27.7736  36.3649  41.2650 H              1 <1>                0.0000
     15 H15         28.9745  35.0739  41.0216 H              1 <1>                0.0000
     16 H16         29.4932  36.6731  41.6059 H              1 <1>                0.0000
     17 H17         28.3012  36.0824  38.8587 H              1 <1>                0.0000
     18 H18         28.8200  37.6818  39.4430 H              1 <1>                0.0000
     19 H19         29.4517  38.6192  38.2272 H              1 <1>                0.0000
     20 H20         30.6040  40.7330  35.3288 H              1 <1>                0.0000
     21 H21         32.1472  38.8223  34.8879 H              1 <1>                0.0000
@<TRIPOS>BOND
    1    1    2 1     
    2    1   14 1     
    3    1   15 1     
    4    1   16 1     
    5    2    3 1     
    6    2   17 1     
    7    2   18 1     
    8    3    4 1     
    9    4    5 ar    
   10    4   12 ar    
   11    5    6 ar    
   12    5   19 1     
   13    6    7 1     
   14    6    9 ar    
   15    7    8 2     
   16    7   20 1     
   17    9   10 ar    
   18    9   21 1     
   19   10   11 1     
   20   10   12 ar    
   21   12   13 ar    
@<TRIPOS>SUBSTRUCTURE
      1 ****           1
@<TRIPOS>COMMENT
> <Gold.Version>
2022.2.0

> <Gold.Id.Protein>
1qkm|1qkm_protein|mol2

> <Gold.Protein.RotatedTorsions>
[  496  491  490  487 ] final  -87.00 input  -89.99 | X-H torsion

> <Gold.Protein.ActiveResidues>
 MET295  LEU298  THR299  LEU301  ALA302  GLU305  TRP335  MET336  LEU339  MET340 
 GLY342  LEU343  ARG346  PHE356  ILE373  ILE376  PHE377  LEU380  LYS471  GLY472 
 MET473  HIS475  LEU476  LEU477  ASN478  MET479  VAL484  VAL487 

> <Gold.Protein.RotatedAtoms>
   36.7297   34.6718   41.1157 H   0  0  0  0  0  0  0  0  0  0  0  0  # atno 496  bound_to 491 

> <Gold.Score>
     Score     S(PLP)   S(hbond)     S(cho)   S(metal)  DE(clash)   DE(tors)     intcor
     38.66     -38.84       0.00       0.00       0.00       0.00       0.43       0.69

> <Gold.PLP.Fitness>
38.6622

> <Gold.PLP.PLP>
-38.8380

> <Gold.PLP.part.hbond>
0.0000

> <Gold.PLP.part.metal>
0.0000

> <Gold.PLP.part.buried>
-2.9211

> <Gold.PLP.part.nonpolar>
-35.5194

> <Gold.PLP.part.repulsive>
0.1036

> <Gold.PLP.ligand.clash>
0.0000

> <Gold.PLP.ligand.torsion>
0.4333

> <Gold.PLP.Chemscore.Hbond>
0.0000

> <Gold.PLP.Chemscore.CHOScore>
0.0000

> <Gold.PLP.Chemscore.Metal>
0.0000

> <Gold.PLP.Chemscore.Internal.Correction>
0.6907

