#       Name:                EN300-07587_i001
#       Creating user name   aseyller
#       Creation time:       Fri Apr 21 16:29:33 2023


#       File generated by GOLD software.
#

@<TRIPOS>MOLECULE
EN300-07587_i001|benzaldehydes|mol2|24|dock18
    21    21     1
SMALL
USER_CHARGES


@<TRIPOS>ATOM
      1 C1          32.2955  35.8373  36.2078 C.3            1 <1>                0.0000
      2 C2          32.6408  36.1501  37.6651 C.3            1 <1>                0.0000
      3 O3          31.4877  35.9419  38.4831 O.3            1 <1>                0.0000
      4 C4          30.3868  36.6886  38.2001 C.ar           1 <1>                0.0000
      5 C5          30.5235  37.9033  37.5585 C.ar           1 <1>                0.0000
      6 C6          29.3880  38.6696  37.2681 C.ar           1 <1>                0.0000
      7 C7          29.5270  39.9624  36.5853 C.2            1 <1>                0.0000
      8 O8          30.6052  40.3040  36.1473 O.2            1 <1>                0.0000
      9 C9          28.1198  38.1996  37.6301 C.ar           1 <1>                0.0000
     10 C10         27.9925  36.9862  38.2702 C.ar           1 <1>                0.0000
     11 Cl11        26.4196  36.4045  38.7186 Cl             1 <1>                0.0000
     12 C12         29.1203  36.2242  38.5530 C.ar           1 <1>                0.0000
     13 O13         28.9890  35.0289  39.1835 O.co2          1 <1>               -1.0000
     14 H14         33.1751  35.9961  35.5838 H              1 <1>                0.0000
     15 H15         31.9742  34.7991  36.1252 H              1 <1>                0.0000
     16 H16         31.4913  36.4940  35.8759 H              1 <1>                0.0000
     17 H17         33.4451  35.4934  37.9969 H              1 <1>                0.0000
     18 H18         32.9621  37.1884  37.7476 H              1 <1>                0.0000
     19 H19         31.5038  38.2619  37.2814 H              1 <1>                0.0000
     20 H20         28.6692  40.6088  36.4731 H              1 <1>                0.0000
     21 H21         27.2418  38.7881  37.4081 H              1 <1>                0.0000
@<TRIPOS>BOND
    1    1    2 1     
    2    1   14 1     
    3    1   15 1     
    4    1   16 1     
    5    2    3 1     
    6    2   17 1     
    7    2   18 1     
    8    3    4 1     
    9    4    5 ar    
   10    4   12 ar    
   11    5    6 ar    
   12    5   19 1     
   13    6    7 1     
   14    6    9 ar    
   15    7    8 2     
   16    7   20 1     
   17    9   10 ar    
   18    9   21 1     
   19   10   11 1     
   20   10   12 ar    
   21   12   13 ar    
@<TRIPOS>SUBSTRUCTURE
      1 ****           1
@<TRIPOS>COMMENT
> <Gold.Version>
2022.2.0

> <Gold.Id.Protein>
1qkm|1qkm_protein|mol2

> <Gold.Protein.RotatedTorsions>
[  496  491  490  487 ] final   22.77 input  -89.99 | X-H torsion

> <Gold.Protein.ActiveResidues>
 MET295  LEU298  THR299  LEU301  ALA302  GLU305  TRP335  MET336  LEU339  MET340 
 GLY342  LEU343  ARG346  PHE356  ILE373  ILE376  PHE377  LEU380  LYS471  GLY472 
 MET473  HIS475  LEU476  LEU477  ASN478  MET479  VAL484  VAL487 

> <Gold.Protein.RotatedAtoms>
   36.3131   33.8687   42.3656 H   0  0  0  0  0  0  0  0  0  0  0  0  # atno 496  bound_to 491 

> <Gold.Score>
     Score     S(PLP)   S(hbond)     S(cho)   S(metal)  DE(clash)   DE(tors)     intcor
     39.36     -39.39       0.00       0.00       0.00       0.00       0.36       0.69

> <Gold.PLP.Fitness>
39.3620

> <Gold.PLP.PLP>
-39.3949

> <Gold.PLP.part.hbond>
0.0000

> <Gold.PLP.part.metal>
0.0000

> <Gold.PLP.part.buried>
-3.4561

> <Gold.PLP.part.nonpolar>
-35.9869

> <Gold.PLP.part.repulsive>
0.1182

> <Gold.PLP.ligand.clash>
0.0000

> <Gold.PLP.ligand.torsion>
0.3618

> <Gold.PLP.Chemscore.Hbond>
0.0000

> <Gold.PLP.Chemscore.CHOScore>
0.0000

> <Gold.PLP.Chemscore.Metal>
0.0000

> <Gold.PLP.Chemscore.Internal.Correction>
0.6907

