#       Name:                EN300-07587_i001
#       Creating user name   aseyller
#       Creation time:       Fri Apr 21 16:29:28 2023


#       File generated by GOLD software.
#

@<TRIPOS>MOLECULE
EN300-07587_i001|benzaldehydes|mol2|24|dock11
    21    21     1
SMALL
USER_CHARGES


@<TRIPOS>ATOM
      1 C1          26.2655  36.7586  41.1980 C.3            1 <1>                0.0000
      2 C2          27.6526  36.3585  40.6914 C.3            1 <1>                0.0000
      3 O3          27.8475  36.8795  39.3751 O.3            1 <1>                0.0000
      4 C4          29.0424  36.6209  38.7794 C.ar           1 <1>                0.0000
      5 C5          29.7778  35.5159  39.1590 C.ar           1 <1>                0.0000
      6 C6          31.0075  35.2522  38.5434 C.ar           1 <1>                0.0000
      7 C7          31.7940  34.0779  38.9426 C.2            1 <1>                0.0000
      8 O8          31.8290  33.0995  38.2266 O.2            1 <1>                0.0000
      9 C9          31.4850  36.1109  37.5460 C.ar           1 <1>                0.0000
     10 C10         30.7448  37.2116  37.1733 C.ar           1 <1>                0.0000
     11 Cl11        31.3378  38.2756  35.9364 Cl             1 <1>                0.0000
     12 C12         29.5216  37.4689  37.7816 C.ar           1 <1>                0.0000
     13 O13         28.7960  38.5548  37.4101 O.co2          1 <1>               -1.0000
     14 H14         26.1168  36.3612  42.2021 H              1 <1>                0.0000
     15 H15         26.1869  37.8455  41.2222 H              1 <1>                0.0000
     16 H16         25.5044  36.3541  40.5309 H              1 <1>                0.0000
     17 H17         28.4137  36.7630  41.3587 H              1 <1>                0.0000
     18 H18         27.7310  35.2716  40.6673 H              1 <1>                0.0000
     19 H19         29.4055  34.8564  39.9290 H              1 <1>                0.0000
     20 H20         32.3413  34.0855  39.8736 H              1 <1>                0.0000
     21 H21         32.4332  35.9109  37.0693 H              1 <1>                0.0000
@<TRIPOS>BOND
    1    1    2 1     
    2    1   14 1     
    3    1   15 1     
    4    1   16 1     
    5    2    3 1     
    6    2   17 1     
    7    2   18 1     
    8    3    4 1     
    9    4    5 ar    
   10    4   12 ar    
   11    5    6 ar    
   12    5   19 1     
   13    6    7 1     
   14    6    9 ar    
   15    7    8 2     
   16    7   20 1     
   17    9   10 ar    
   18    9   21 1     
   19   10   11 1     
   20   10   12 ar    
   21   12   13 ar    
@<TRIPOS>SUBSTRUCTURE
      1 ****           1
@<TRIPOS>COMMENT
> <Gold.Version>
2022.2.0

> <Gold.Id.Protein>
1qkm|1qkm_protein|mol2

> <Gold.Protein.RotatedTorsions>
[  496  491  490  487 ] final   27.73 input  -89.99 | X-H torsion

> <Gold.Protein.ActiveResidues>
 MET295  LEU298  THR299  LEU301  ALA302  GLU305  TRP335  MET336  LEU339  MET340 
 GLY342  LEU343  ARG346  PHE356  ILE373  ILE376  PHE377  LEU380  LYS471  GLY472 
 MET473  HIS475  LEU476  LEU477  ASN478  MET479  VAL484  VAL487 

> <Gold.Protein.RotatedAtoms>
   36.3351   33.7909   42.3773 H   0  0  0  0  0  0  0  0  0  0  0  0  # atno 496  bound_to 491 

> <Gold.Score>
     Score     S(PLP)   S(hbond)     S(cho)   S(metal)  DE(clash)   DE(tors)     intcor
     37.19     -38.61       0.00       0.00       0.00       0.00       1.05       0.69

> <Gold.PLP.Fitness>
37.1933

> <Gold.PLP.PLP>
-38.6099

> <Gold.PLP.part.hbond>
0.0000

> <Gold.PLP.part.metal>
0.0000

> <Gold.PLP.part.buried>
-3.8087

> <Gold.PLP.part.nonpolar>
-35.4905

> <Gold.PLP.part.repulsive>
0.0341

> <Gold.PLP.ligand.clash>
0.0000

> <Gold.PLP.ligand.torsion>
1.0536

> <Gold.PLP.Chemscore.Hbond>
0.0000

> <Gold.PLP.Chemscore.CHOScore>
0.0000

> <Gold.PLP.Chemscore.Metal>
0.0000

> <Gold.PLP.Chemscore.Internal.Correction>
0.6907

