#       Name:                EN300-07587_i001
#       Creating user name   aseyller
#       Creation time:       Fri Apr 21 16:29:25 2023


#       File generated by GOLD software.
#

@<TRIPOS>MOLECULE
EN300-07587_i001|benzaldehydes|mol2|24|dock7
    21    21     1
SMALL
USER_CHARGES


@<TRIPOS>ATOM
      1 C1          26.3971  37.5918  38.7516 C.3            1 <1>                0.0000
      2 C2          27.7038  36.8671  38.4228 C.3            1 <1>                0.0000
      3 O3          28.6287  37.7911  37.8458 O.3            1 <1>                0.0000
      4 C4          29.7847  37.2772  37.3465 C.ar           1 <1>                0.0000
      5 C5          30.3290  36.1365  37.9019 C.ar           1 <1>                0.0000
      6 C6          31.5192  35.6097  37.3854 C.ar           1 <1>                0.0000
      7 C7          32.1027  34.3961  37.9716 C.2            1 <1>                0.0000
      8 O8          31.3798  33.5247  38.4064 O.2            1 <1>                0.0000
      9 C9          32.1510  36.2427  36.3082 C.ar           1 <1>                0.0000
     10 C10         31.6010  37.3809  35.7600 C.ar           1 <1>                0.0000
     11 Cl11        32.3852  38.1650  34.4245 Cl             1 <1>                0.0000
     12 C12         30.4165  37.8996  36.2705 C.ar           1 <1>                0.0000
     13 O13         29.8786  39.0211  35.7262 O.co2          1 <1>               -1.0000
     14 H14         25.6916  36.8869  39.1917 H              1 <1>                0.0000
     15 H15         26.5959  38.3965  39.4592 H              1 <1>                0.0000
     16 H16         25.9726  38.0079  37.8380 H              1 <1>                0.0000
     17 H17         28.1283  36.4509  39.3364 H              1 <1>                0.0000
     18 H18         27.5050  36.0624  37.7150 H              1 <1>                0.0000
     19 H19         29.8383  35.6517  38.7328 H              1 <1>                0.0000
     20 H20         33.1755  34.2796  38.0153 H              1 <1>                0.0000
     21 H21         33.0692  35.8395  35.9074 H              1 <1>                0.0000
@<TRIPOS>BOND
    1    1    2 1     
    2    1   14 1     
    3    1   15 1     
    4    1   16 1     
    5    2    3 1     
    6    2   17 1     
    7    2   18 1     
    8    3    4 1     
    9    4    5 ar    
   10    4   12 ar    
   11    5    6 ar    
   12    5   19 1     
   13    6    7 1     
   14    6    9 ar    
   15    7    8 2     
   16    7   20 1     
   17    9   10 ar    
   18    9   21 1     
   19   10   11 1     
   20   10   12 ar    
   21   12   13 ar    
@<TRIPOS>SUBSTRUCTURE
      1 ****           1
@<TRIPOS>COMMENT
> <Gold.Version>
2022.2.0

> <Gold.Id.Protein>
1qkm|1qkm_protein|mol2

> <Gold.Protein.RotatedTorsions>
[  496  491  490  487 ] final  174.31 input  -89.99 | X-H torsion

> <Gold.Protein.ActiveResidues>
 MET295  LEU298  THR299  LEU301  ALA302  GLU305  TRP335  MET336  LEU339  MET340 
 GLY342  LEU343  ARG346  PHE356  ILE373  ILE376  PHE377  LEU380  LYS471  GLY472 
 MET473  HIS475  LEU476  LEU477  ASN478  MET479  VAL484  VAL487 

> <Gold.Protein.RotatedAtoms>
   37.3184   33.3826   40.9177 H   0  0  0  0  0  0  0  0  0  0  0  0  # atno 496  bound_to 491 

> <Gold.Score>
     Score     S(PLP)   S(hbond)     S(cho)   S(metal)  DE(clash)   DE(tors)     intcor
     38.10     -38.66       0.00       0.00       0.00       0.00       0.63       0.69

> <Gold.PLP.Fitness>
38.0972

> <Gold.PLP.PLP>
-38.6606

> <Gold.PLP.part.hbond>
0.0000

> <Gold.PLP.part.metal>
0.0000

> <Gold.PLP.part.buried>
-4.2281

> <Gold.PLP.part.nonpolar>
-34.4696

> <Gold.PLP.part.repulsive>
0.0516

> <Gold.PLP.ligand.clash>
0.0000

> <Gold.PLP.ligand.torsion>
0.6272

> <Gold.PLP.Chemscore.Hbond>
0.0000

> <Gold.PLP.Chemscore.CHOScore>
0.0000

> <Gold.PLP.Chemscore.Metal>
0.0000

> <Gold.PLP.Chemscore.Internal.Correction>
0.6909

