#       Name:                EN300-07587_i001
#       Creating user name   aseyller
#       Creation time:       Fri Apr 21 16:29:21 2023


#       File generated by GOLD software.
#

@<TRIPOS>MOLECULE
EN300-07587_i001
    21    21     1
SMALL
USER_CHARGES


@<TRIPOS>ATOM
      1 C1           3.6014  -0.6838   0.0006 C.3            1 <1>                0.0000
      2 C2           2.2079  -0.0521   0.0005 C.3            1 <1>                0.0000
      3 O3           1.2178  -1.0825   0.0013 O.3            1 <1>                0.0000
      4 C4          -0.0838  -0.6882   0.0013 C.ar           1 <1>                0.0000
      5 C5          -0.3973   0.6563   0.0007 C.ar           1 <1>                0.0000
      6 C6          -1.7384   1.0591   0.0003 C.ar           1 <1>                0.0000
      7 C7          -2.0781   2.4879  -0.0009 C.2            1 <1>                0.0000
      8 O8          -3.2403   2.8349  -0.0012 O.2            1 <1>                0.0000
      9 C9          -2.7545   0.0959   0.0005 C.ar           1 <1>                0.0000
     10 C10         -2.4328  -1.2438   0.0012 C.ar           1 <1>                0.0000
     11 Cl11        -3.6935  -2.4372   0.0015 Cl             1 <1>                0.0000
     12 C12         -1.1009  -1.6420  -0.0038 C.ar           1 <1>                0.0000
     13 O13         -0.7895  -2.9636  -0.0036 O.co2          1 <1>               -1.0000
     14 H14          4.3566   0.1022  -0.0000 H              1 <1>                0.0000
     15 H15          3.7204  -1.3013   0.8908 H              1 <1>                0.0000
     16 H16          3.7200  -1.3022  -0.8891 H              1 <1>                0.0000
     17 H17          2.0893   0.5664   0.8902 H              1 <1>                0.0000
     18 H18          2.0889   0.5654  -0.8898 H              1 <1>                0.0000
     19 H19          0.3899   1.3957   0.0008 H              1 <1>                0.0000
     20 H20         -1.2931   3.2296  -0.0014 H              1 <1>                0.0000
     21 H21         -3.7900   0.4028   0.0006 H              1 <1>                0.0000
@<TRIPOS>BOND
    1    1    2 1     
    2    1   14 1     
    3    1   15 1     
    4    1   16 1     
    5    2    3 1     
    6    2   17 1     
    7    2   18 1     
    8    3    4 1     
    9    4    5 ar    
   10    4   12 ar    
   11    5    6 ar    
   12    5   19 1     
   13    6    7 1     
   14    6    9 ar    
   15    7    8 2     
   16    7   20 1     
   17    9   10 ar    
   18    9   21 1     
   19   10   11 1     
   20   10   12 ar    
   21   12   13 ar    
@<TRIPOS>SUBSTRUCTURE
      1 ****           1
