#       Name:                EN300-07587_i001
#       Creating user name   aseyller
#       Creation time:       Fri Apr 21 16:29:22 2023


#       File generated by GOLD software.
#

@<TRIPOS>MOLECULE
EN300-07587_i001|benzaldehydes|mol2|24|dock2
    21    21     1
SMALL
USER_CHARGES


@<TRIPOS>ATOM
      1 C1          28.5007  35.8075  41.9519 C.3            1 <1>                0.0000
      2 C2          29.0919  36.7116  40.8685 C.3            1 <1>                0.0000
      3 O3          29.7091  35.9073  39.8614 O.3            1 <1>                0.0000
      4 C4          30.2527  36.5584  38.7983 C.ar           1 <1>                0.0000
      5 C5          29.7199  37.7614  38.3802 C.ar           1 <1>                0.0000
      6 C6          30.2821  38.4295  37.2855 C.ar           1 <1>                0.0000
      7 C7          29.7200  39.7099  36.8364 C.2            1 <1>                0.0000
      8 O8          30.3645  40.4320  36.1054 O.2            1 <1>                0.0000
      9 C9          31.3818  37.8738  36.6207 C.ar           1 <1>                0.0000
     10 C10         31.9073  36.6728  37.0445 C.ar           1 <1>                0.0000
     11 Cl11        33.2709  35.9847  36.2195 Cl             1 <1>                0.0000
     12 C12         31.3513  36.0134  38.1348 C.ar           1 <1>                0.0000
     13 O13         31.8734  34.8303  38.5486 O.co2          1 <1>               -1.0000
     14 H14         28.0299  36.4210  42.7201 H              1 <1>                0.0000
     15 H15         27.7561  35.1470  41.5077 H              1 <1>                0.0000
     16 H16         29.2948  35.2104  42.4001 H              1 <1>                0.0000
     17 H17         28.2978  37.3088  40.4204 H              1 <1>                0.0000
     18 H18         29.8366  37.3720  41.3128 H              1 <1>                0.0000
     19 H19         28.8713  38.1861  38.8959 H              1 <1>                0.0000
     20 H20         28.7328  40.0084  37.1569 H              1 <1>                0.0000
     21 H21         31.8179  38.3861  35.7758 H              1 <1>                0.0000
@<TRIPOS>BOND
    1    1    2 1     
    2    1   14 1     
    3    1   15 1     
    4    1   16 1     
    5    2    3 1     
    6    2   17 1     
    7    2   18 1     
    8    3    4 1     
    9    4    5 ar    
   10    4   12 ar    
   11    5    6 ar    
   12    5   19 1     
   13    6    7 1     
   14    6    9 ar    
   15    7    8 2     
   16    7   20 1     
   17    9   10 ar    
   18    9   21 1     
   19   10   11 1     
   20   10   12 ar    
   21   12   13 ar    
@<TRIPOS>SUBSTRUCTURE
      1 ****           1
@<TRIPOS>COMMENT
> <Gold.Version>
2022.2.0

> <Gold.Id.Protein>
1qkm|1qkm_protein|mol2

> <Gold.Protein.RotatedTorsions>
[  496  491  490  487 ] final  127.06 input  -89.99 | X-H torsion

> <Gold.Protein.ActiveResidues>
 MET295  LEU298  THR299  LEU301  ALA302  GLU305  TRP335  MET336  LEU339  MET340 
 GLY342  LEU343  ARG346  PHE356  ILE373  ILE376  PHE377  LEU380  LYS471  GLY472 
 MET473  HIS475  LEU476  LEU477  ASN478  MET479  VAL484  VAL487 

> <Gold.Protein.RotatedAtoms>
   37.1328   32.9601   41.5163 H   0  0  0  0  0  0  0  0  0  0  0  0  # atno 496  bound_to 491 

> <Gold.Score>
     Score     S(PLP)   S(hbond)     S(cho)   S(metal)  DE(clash)   DE(tors)     intcor
     40.99     -41.17       0.00       0.00       0.00       0.00       0.44       0.69

> <Gold.PLP.Fitness>
40.9897

> <Gold.PLP.PLP>
-41.1731

> <Gold.PLP.part.hbond>
0.0000

> <Gold.PLP.part.metal>
0.0000

> <Gold.PLP.part.buried>
-3.8792

> <Gold.PLP.part.nonpolar>
-38.1423

> <Gold.PLP.part.repulsive>
0.1769

> <Gold.PLP.ligand.clash>
0.0000

> <Gold.PLP.ligand.torsion>
0.4376

> <Gold.PLP.Chemscore.Hbond>
0.0000

> <Gold.PLP.Chemscore.CHOScore>
0.0000

> <Gold.PLP.Chemscore.Metal>
0.0000

> <Gold.PLP.Chemscore.Internal.Correction>
0.6917

