#       Name:                EN300-07587_i001
#       Creating user name   aseyller
#       Creation time:       Fri Apr 21 16:29:26 2023


#       File generated by GOLD software.
#

@<TRIPOS>MOLECULE
EN300-07587_i001|benzaldehydes|mol2|24|dock8
    21    21     1
SMALL
USER_CHARGES


@<TRIPOS>ATOM
      1 C1          27.8520  36.4711  41.1877 C.3            1 <1>                0.0000
      2 C2          27.1504  35.7364  40.0436 C.3            1 <1>                0.0000
      3 O3          27.1929  36.5413  38.8636 O.3            1 <1>                0.0000
      4 C4          28.4224  36.8756  38.3881 C.ar           1 <1>                0.0000
      5 C5          29.5146  36.0843  38.6829 C.ar           1 <1>                0.0000
      6 C6          30.7792  36.4310  38.1915 C.ar           1 <1>                0.0000
      7 C7          31.9447  35.5928  38.5012 C.2            1 <1>                0.0000
      8 O8          31.7875  34.4497  38.8749 O.2            1 <1>                0.0000
      9 C9          30.9292  37.5786  37.4037 C.ar           1 <1>                0.0000
     10 C10         29.8339  38.3628  37.1144 C.ar           1 <1>                0.0000
     11 Cl11        30.0211  39.7855  36.1375 Cl             1 <1>                0.0000
     12 C12         28.5783  38.0143  37.5985 C.ar           1 <1>                0.0000
     13 O13         27.5022  38.7904  37.3100 O.co2          1 <1>               -1.0000
     14 H14         27.8195  35.8571  42.0877 H              1 <1>                0.0000
     15 H15         28.8899  36.6615  40.9149 H              1 <1>                0.0000
     16 H16         27.3461  37.4181  41.3755 H              1 <1>                0.0000
     17 H17         27.6562  34.7893  39.8558 H              1 <1>                0.0000
     18 H18         26.1124  35.5461  40.3164 H              1 <1>                0.0000
     19 H19         29.3941  35.2001  39.2912 H              1 <1>                0.0000
     20 H20         32.9418  35.9943  38.3962 H              1 <1>                0.0000
     21 H21         31.9031  37.8494  37.0232 H              1 <1>                0.0000
@<TRIPOS>BOND
    1    1    2 1     
    2    1   14 1     
    3    1   15 1     
    4    1   16 1     
    5    2    3 1     
    6    2   17 1     
    7    2   18 1     
    8    3    4 1     
    9    4    5 ar    
   10    4   12 ar    
   11    5    6 ar    
   12    5   19 1     
   13    6    7 1     
   14    6    9 ar    
   15    7    8 2     
   16    7   20 1     
   17    9   10 ar    
   18    9   21 1     
   19   10   11 1     
   20   10   12 ar    
   21   12   13 ar    
@<TRIPOS>SUBSTRUCTURE
      1 ****           1
@<TRIPOS>COMMENT
> <Gold.Version>
2022.2.0

> <Gold.Id.Protein>
1qkm|1qkm_protein|mol2

> <Gold.Protein.RotatedTorsions>
[  496  491  490  487 ] final   70.22 input  -89.99 | X-H torsion

> <Gold.Protein.ActiveResidues>
 MET295  LEU298  THR299  LEU301  ALA302  GLU305  TRP335  MET336  LEU339  MET340 
 GLY342  LEU343  ARG346  PHE356  ILE373  ILE376  PHE377  LEU380  LYS471  GLY472 
 MET473  HIS475  LEU476  LEU477  ASN478  MET479  VAL484  VAL487 

> <Gold.Protein.RotatedAtoms>
   36.6394   33.1973   42.2279 H   0  0  0  0  0  0  0  0  0  0  0  0  # atno 496  bound_to 491 

> <Gold.Score>
     Score     S(PLP)   S(hbond)     S(cho)   S(metal)  DE(clash)   DE(tors)     intcor
     38.64     -38.79       0.00       0.00       0.00       0.00       0.42       0.69

> <Gold.PLP.Fitness>
38.6407

> <Gold.PLP.PLP>
-38.7940

> <Gold.PLP.part.hbond>
0.0000

> <Gold.PLP.part.metal>
0.0000

> <Gold.PLP.part.buried>
-3.2884

> <Gold.PLP.part.nonpolar>
-35.6978

> <Gold.PLP.part.repulsive>
0.1052

> <Gold.PLP.ligand.clash>
0.0017

> <Gold.PLP.ligand.torsion>
0.4212

> <Gold.PLP.Chemscore.Hbond>
0.0000

> <Gold.PLP.Chemscore.CHOScore>
0.0000

> <Gold.PLP.Chemscore.Metal>
0.0000

> <Gold.PLP.Chemscore.Internal.Correction>
0.6909

