#       Name:                EN300-07587_i001
#       Creating user name   aseyller
#       Creation time:       Fri Apr 21 16:29:27 2023


#       File generated by GOLD software.
#

@<TRIPOS>MOLECULE
EN300-07587_i001|benzaldehydes|mol2|24|dock10
    21    21     1
SMALL
USER_CHARGES


@<TRIPOS>ATOM
      1 C1          27.4904  35.8003  39.8843 C.3            1 <1>                0.0000
      2 C2          28.7659  36.3407  40.5339 C.3            1 <1>                0.0000
      3 O3          29.3389  37.3454  39.6947 O.3            1 <1>                0.0000
      4 C4          30.1389  36.9202  38.6803 C.ar           1 <1>                0.0000
      5 C5          30.7750  35.6981  38.7694 C.ar           1 <1>                0.0000
      6 C6          31.5977  35.2629  37.7231 C.ar           1 <1>                0.0000
      7 C7          32.2766  33.9636  37.8119 C.2            1 <1>                0.0000
      8 O8          31.8063  33.0792  38.4957 O.2            1 <1>                0.0000
      9 C9          31.7707  36.0696  36.5920 C.ar           1 <1>                0.0000
     10 C10         31.1322  37.2878  36.5113 C.ar           1 <1>                0.0000
     11 Cl11        31.3475  38.2873  35.1083 Cl             1 <1>                0.0000
     12 C12         30.3116  37.7160  37.5485 C.ar           1 <1>                0.0000
     13 O13         29.6843  38.9173  37.4636 O.co2          1 <1>               -1.0000
     14 H14         27.0533  35.0339  40.5245 H              1 <1>                0.0000
     15 H15         26.7770  36.6137  39.7524 H              1 <1>                0.0000
     16 H16         27.7322  35.3680  38.9134 H              1 <1>                0.0000
     17 H17         28.5241  36.7730  41.5049 H              1 <1>                0.0000
     18 H18         29.4793  35.5272  40.6658 H              1 <1>                0.0000
     19 H19         30.6387  35.0794  39.6440 H              1 <1>                0.0000
     20 H20         33.1945  33.7957  37.2682 H              1 <1>                0.0000
     21 H21         32.4047  35.7374  35.7832 H              1 <1>                0.0000
@<TRIPOS>BOND
    1    1    2 1     
    2    1   14 1     
    3    1   15 1     
    4    1   16 1     
    5    2    3 1     
    6    2   17 1     
    7    2   18 1     
    8    3    4 1     
    9    4    5 ar    
   10    4   12 ar    
   11    5    6 ar    
   12    5   19 1     
   13    6    7 1     
   14    6    9 ar    
   15    7    8 2     
   16    7   20 1     
   17    9   10 ar    
   18    9   21 1     
   19   10   11 1     
   20   10   12 ar    
   21   12   13 ar    
@<TRIPOS>SUBSTRUCTURE
      1 ****           1
@<TRIPOS>COMMENT
> <Gold.Version>
2022.2.0

> <Gold.Id.Protein>
1qkm|1qkm_protein|mol2

> <Gold.Protein.RotatedTorsions>
[  496  491  490  487 ] final -105.81 input  -89.99 | X-H torsion

> <Gold.Protein.ActiveResidues>
 MET295  LEU298  THR299  LEU301  ALA302  GLU305  TRP335  MET336  LEU339  MET340 
 GLY342  LEU343  ARG346  PHE356  ILE373  ILE376  PHE377  LEU380  LYS471  GLY472 
 MET473  HIS475  LEU476  LEU477  ASN478  MET479  VAL484  VAL487 

> <Gold.Protein.RotatedAtoms>
   36.9027   34.5200   40.9106 H   0  0  0  0  0  0  0  0  0  0  0  0  # atno 496  bound_to 491 

> <Gold.Score>
     Score     S(PLP)   S(hbond)     S(cho)   S(metal)  DE(clash)   DE(tors)     intcor
     38.08     -38.63       0.00       0.00       0.00       0.00       0.62       0.69

> <Gold.PLP.Fitness>
38.0819

> <Gold.PLP.PLP>
-38.6272

> <Gold.PLP.part.hbond>
0.0000

> <Gold.PLP.part.metal>
0.0000

> <Gold.PLP.part.buried>
-3.3523

> <Gold.PLP.part.nonpolar>
-35.6246

> <Gold.PLP.part.repulsive>
0.1065

> <Gold.PLP.ligand.clash>
0.0000

> <Gold.PLP.ligand.torsion>
0.6181

> <Gold.PLP.Chemscore.Hbond>
0.0000

> <Gold.PLP.Chemscore.CHOScore>
0.0000

> <Gold.PLP.Chemscore.Metal>
0.0000

> <Gold.PLP.Chemscore.Internal.Correction>
0.6909

