#       Name:                EN300-07587_i001
#       Creating user name   aseyller
#       Creation time:       Fri Apr 21 16:29:34 2023


#       File generated by GOLD software.
#

@<TRIPOS>MOLECULE
EN300-07587_i001|benzaldehydes|mol2|24|dock20
    21    21     1
SMALL
USER_CHARGES


@<TRIPOS>ATOM
      1 C1          29.4929  40.4592  36.5100 C.3            1 <1>                0.0000
      2 C2          28.6488  39.2386  36.8822 C.3            1 <1>                0.0000
      3 O3          29.3151  38.4917  37.9020 O.3            1 <1>                0.0000
      4 C4          30.2734  37.6148  37.4989 C.ar           1 <1>                0.0000
      5 C5          31.0020  37.8675  36.3538 C.ar           1 <1>                0.0000
      6 C6          31.9882  36.9630  35.9416 C.ar           1 <1>                0.0000
      7 C7          32.7669  37.2267  34.7247 C.2            1 <1>                0.0000
      8 O8          32.4663  38.1525  34.0011 O.2            1 <1>                0.0000
      9 C9          32.2301  35.8067  36.6931 C.ar           1 <1>                0.0000
     10 C10         31.4983  35.5621  37.8345 C.ar           1 <1>                0.0000
     11 Cl11        31.7991  34.1281  38.7655 Cl             1 <1>                0.0000
     12 C12         30.5232  36.4638  38.2453 C.ar           1 <1>                0.0000
     13 O13         29.8053  36.2181  39.3713 O.co2          1 <1>               -1.0000
     14 H14         28.9846  41.0289  35.7321 H              1 <1>                0.0000
     15 H15         29.6305  41.0878  37.3896 H              1 <1>                0.0000
     16 H16         30.4650  40.1302  36.1428 H              1 <1>                0.0000
     17 H17         27.6765  39.5676  37.2494 H              1 <1>                0.0000
     18 H18         28.5112  38.6099  36.0025 H              1 <1>                0.0000
     19 H19         30.8117  38.7607  35.7772 H              1 <1>                0.0000
     20 H20         33.6073  36.5963  34.4742 H              1 <1>                0.0000
     21 H21         32.9897  35.1065  36.3780 H              1 <1>                0.0000
@<TRIPOS>BOND
    1    1    2 1     
    2    1   14 1     
    3    1   15 1     
    4    1   16 1     
    5    2    3 1     
    6    2   17 1     
    7    2   18 1     
    8    3    4 1     
    9    4    5 ar    
   10    4   12 ar    
   11    5    6 ar    
   12    5   19 1     
   13    6    7 1     
   14    6    9 ar    
   15    7    8 2     
   16    7   20 1     
   17    9   10 ar    
   18    9   21 1     
   19   10   11 1     
   20   10   12 ar    
   21   12   13 ar    
@<TRIPOS>SUBSTRUCTURE
      1 ****           1
@<TRIPOS>COMMENT
> <Gold.Version>
2022.2.0

> <Gold.Id.Protein>
1qkm|1qkm_protein|mol2

> <Gold.Protein.RotatedTorsions>
[  496  491  490  487 ] final  -83.65 input  -89.99 | X-H torsion

> <Gold.Protein.ActiveResidues>
 MET295  LEU298  THR299  LEU301  ALA302  GLU305  TRP335  MET336  LEU339  MET340 
 GLY342  LEU343  ARG346  PHE356  ILE373  ILE376  PHE377  LEU380  LYS471  GLY472 
 MET473  HIS475  LEU476  LEU477  ASN478  MET479  VAL484  VAL487 

> <Gold.Protein.RotatedAtoms>
   36.6990   34.6899   41.1578 H   0  0  0  0  0  0  0  0  0  0  0  0  # atno 496  bound_to 491 

> <Gold.Score>
     Score     S(PLP)   S(hbond)     S(cho)   S(metal)  DE(clash)   DE(tors)     intcor
     39.30     -39.63       0.00       0.00       0.00       0.00       0.51       0.69

> <Gold.PLP.Fitness>
39.2982

> <Gold.PLP.PLP>
-39.6304

> <Gold.PLP.part.hbond>
0.0000

> <Gold.PLP.part.metal>
0.0000

> <Gold.PLP.part.buried>
-2.8549

> <Gold.PLP.part.nonpolar>
-37.0693

> <Gold.PLP.part.repulsive>
0.2431

> <Gold.PLP.ligand.clash>
0.0000

> <Gold.PLP.ligand.torsion>
0.5114

> <Gold.PLP.Chemscore.Hbond>
0.0000

> <Gold.PLP.Chemscore.CHOScore>
0.0000

> <Gold.PLP.Chemscore.Metal>
0.0000

> <Gold.PLP.Chemscore.Internal.Correction>
0.6907

