#       Name:                EN300-07587_i001
#       Creating user name   aseyller
#       Creation time:       Fri Apr 21 16:29:24 2023


#       File generated by GOLD software.
#

@<TRIPOS>MOLECULE
EN300-07587_i001|benzaldehydes|mol2|24|dock4
    21    21     1
SMALL
USER_CHARGES


@<TRIPOS>ATOM
      1 C1          32.0702  34.0532  37.9362 C.3            1 <1>                0.0000
      2 C2          31.9516  35.5587  38.1817 C.3            1 <1>                0.0000
      3 O3          30.8490  35.8138  39.0541 O.3            1 <1>                0.0000
      4 C4          29.8485  36.5985  38.5716 C.ar           1 <1>                0.0000
      5 C5          30.1286  37.5788  37.6407 C.ar           1 <1>                0.0000
      6 C6          29.0962  38.3849  37.1455 C.ar           1 <1>                0.0000
      7 C7          29.3879  39.4289  36.1546 C.2            1 <1>                0.0000
      8 O8          30.5271  39.6058  35.7776 O.2            1 <1>                0.0000
      9 C9          27.7850  38.1924  37.5972 C.ar           1 <1>                0.0000
     10 C10         27.5143  37.2119  38.5265 C.ar           1 <1>                0.0000
     11 Cl11        25.8882  36.9741  39.0859 Cl             1 <1>                0.0000
     12 C12         28.5395  36.4089  39.0131 C.ar           1 <1>                0.0000
     13 O13         28.2670  35.4438  39.9285 O.co2          1 <1>               -1.0000
     14 H14         32.9113  33.8587  37.2708 H              1 <1>                0.0000
     15 H15         32.2318  33.5419  38.8851 H              1 <1>                0.0000
     16 H16         31.1518  33.6865  37.4777 H              1 <1>                0.0000
     17 H17         32.8700  35.9255  38.6402 H              1 <1>                0.0000
     18 H18         31.7899  36.0700  37.2327 H              1 <1>                0.0000
     19 H19         31.1415  37.7238  37.2953 H              1 <1>                0.0000
     20 H20         28.5881  40.0391  35.7617 H              1 <1>                0.0000
     21 H21         26.9863  38.8125  37.2178 H              1 <1>                0.0000
@<TRIPOS>BOND
    1    1    2 1     
    2    1   14 1     
    3    1   15 1     
    4    1   16 1     
    5    2    3 1     
    6    2   17 1     
    7    2   18 1     
    8    3    4 1     
    9    4    5 ar    
   10    4   12 ar    
   11    5    6 ar    
   12    5   19 1     
   13    6    7 1     
   14    6    9 ar    
   15    7    8 2     
   16    7   20 1     
   17    9   10 ar    
   18    9   21 1     
   19   10   11 1     
   20   10   12 ar    
   21   12   13 ar    
@<TRIPOS>SUBSTRUCTURE
      1 ****           1
@<TRIPOS>COMMENT
> <Gold.Version>
2022.2.0

> <Gold.Id.Protein>
1qkm|1qkm_protein|mol2

> <Gold.Protein.RotatedTorsions>
[  496  491  490  487 ] final   69.69 input  -89.99 | X-H torsion

> <Gold.Protein.ActiveResidues>
 MET295  LEU298  THR299  LEU301  ALA302  GLU305  TRP335  MET336  LEU339  MET340 
 GLY342  LEU343  ARG346  PHE356  ILE373  ILE376  PHE377  LEU380  LYS471  GLY472 
 MET473  HIS475  LEU476  LEU477  ASN478  MET479  VAL484  VAL487 

> <Gold.Protein.RotatedAtoms>
   36.6346   33.2032   42.2324 H   0  0  0  0  0  0  0  0  0  0  0  0  # atno 496  bound_to 491 

> <Gold.Score>
     Score     S(PLP)   S(hbond)     S(cho)   S(metal)  DE(clash)   DE(tors)     intcor
     41.37     -42.18       0.00       0.00       0.00       0.00       0.75       0.69

> <Gold.PLP.Fitness>
41.3705

> <Gold.PLP.PLP>
-42.1800

> <Gold.PLP.part.hbond>
0.0000

> <Gold.PLP.part.metal>
0.0000

> <Gold.PLP.part.buried>
-3.6844

> <Gold.PLP.part.nonpolar>
-38.3965

> <Gold.PLP.part.repulsive>
0.1593

> <Gold.PLP.ligand.clash>
0.0000

> <Gold.PLP.ligand.torsion>
0.7502

> <Gold.PLP.Chemscore.Hbond>
0.0000

> <Gold.PLP.Chemscore.CHOScore>
0.0000

> <Gold.PLP.Chemscore.Metal>
0.0000

> <Gold.PLP.Chemscore.Internal.Correction>
0.6909

