#       Name:                EN300-07587_i001
#       Creating user name   aseyller
#       Creation time:       Fri Apr 21 16:29:23 2023


#       File generated by GOLD software.
#

@<TRIPOS>MOLECULE
EN300-07587_i001|benzaldehydes|mol2|24|dock3
    21    21     1
SMALL
USER_CHARGES


@<TRIPOS>ATOM
      1 C1          30.3381  40.5936  35.9870 C.3            1 <1>                0.0000
      2 C2          29.8703  39.4671  36.9106 C.3            1 <1>                0.0000
      3 O3          30.8815  38.4601  36.9836 O.3            1 <1>                0.0000
      4 C4          30.6314  37.3907  37.7859 C.ar           1 <1>                0.0000
      5 C5          29.7510  37.5120  38.8424 C.ar           1 <1>                0.0000
      6 C6          29.4952  36.4090  39.6663 C.ar           1 <1>                0.0000
      7 C7          28.5593  36.5317  40.7915 C.2            1 <1>                0.0000
      8 O8          28.3286  35.5716  41.4958 O.2            1 <1>                0.0000
      9 C9          30.1338  35.1888  39.4142 C.ar           1 <1>                0.0000
     10 C10         31.0110  35.0766  38.3577 C.ar           1 <1>                0.0000
     11 Cl11        31.8022  33.5632  38.0460 Cl             1 <1>                0.0000
     12 C12         31.2598  36.1710  37.5374 C.ar           1 <1>                0.0000
     13 O13         32.1248  36.0547  36.4973 O.co2          1 <1>               -1.0000
     14 H14         29.5667  41.3617  35.9313 H              1 <1>                0.0000
     15 H15         31.2564  41.0288  36.3810 H              1 <1>                0.0000
     16 H16         30.5242  40.1928  34.9906 H              1 <1>                0.0000
     17 H17         29.6840  39.8679  37.9070 H              1 <1>                0.0000
     18 H18         28.9519  39.0318  36.5165 H              1 <1>                0.0000
     19 H19         29.2610  38.4553  39.0332 H              1 <1>                0.0000
     20 H20         28.0766  37.4768  40.9917 H              1 <1>                0.0000
     21 H21         29.9393  34.3361  40.0478 H              1 <1>                0.0000
@<TRIPOS>BOND
    1    1    2 1     
    2    1   14 1     
    3    1   15 1     
    4    1   16 1     
    5    2    3 1     
    6    2   17 1     
    7    2   18 1     
    8    3    4 1     
    9    4    5 ar    
   10    4   12 ar    
   11    5    6 ar    
   12    5   19 1     
   13    6    7 1     
   14    6    9 ar    
   15    7    8 2     
   16    7   20 1     
   17    9   10 ar    
   18    9   21 1     
   19   10   11 1     
   20   10   12 ar    
   21   12   13 ar    
@<TRIPOS>SUBSTRUCTURE
      1 ****           1
@<TRIPOS>COMMENT
> <Gold.Version>
2022.2.0

> <Gold.Id.Protein>
1qkm|1qkm_protein|mol2

> <Gold.Protein.RotatedTorsions>
[  496  491  490  487 ] final -142.31 input  -89.99 | X-H torsion

> <Gold.Protein.ActiveResidues>
 MET295  LEU298  THR299  LEU301  ALA302  GLU305  TRP335  MET336  LEU339  MET340 
 GLY342  LEU343  ARG346  PHE356  ILE373  ILE376  PHE377  LEU380  LYS471  GLY472 
 MET473  HIS475  LEU476  LEU477  ASN478  MET479  VAL484  VAL487 

> <Gold.Protein.RotatedAtoms>
   37.1882   34.0388   40.7213 H   0  0  0  0  0  0  0  0  0  0  0  0  # atno 496  bound_to 491 

> <Gold.Score>
     Score     S(PLP)   S(hbond)     S(cho)   S(metal)  DE(clash)   DE(tors)     intcor
     42.06     -42.06       0.00       0.00       0.00       0.00       0.35       0.69

> <Gold.PLP.Fitness>
42.0567

> <Gold.PLP.PLP>
-42.0632

> <Gold.PLP.part.hbond>
0.0000

> <Gold.PLP.part.metal>
0.0000

> <Gold.PLP.part.buried>
-2.6054

> <Gold.PLP.part.nonpolar>
-39.6545

> <Gold.PLP.part.repulsive>
0.1816

> <Gold.PLP.ligand.clash>
0.0000

> <Gold.PLP.ligand.torsion>
0.3487

> <Gold.PLP.Chemscore.Hbond>
0.0000

> <Gold.PLP.Chemscore.CHOScore>
0.0000

> <Gold.PLP.Chemscore.Metal>
0.0000

> <Gold.PLP.Chemscore.Internal.Correction>
0.6909

