#       Name:                EN300-07587_i001
#       Creating user name   aseyller
#       Creation time:       Fri Apr 21 16:29:34 2023


#       File generated by GOLD software.
#

@<TRIPOS>MOLECULE
EN300-07587_i001|benzaldehydes|mol2|24|dock19
    21    21     1
SMALL
USER_CHARGES


@<TRIPOS>ATOM
      1 C1          32.9933  37.4465  35.0043 C.3            1 <1>                0.0000
      2 C2          32.4050  36.0794  35.3591 C.3            1 <1>                0.0000
      3 O3          32.2990  35.9603  36.7791 O.3            1 <1>                0.0000
      4 C4          31.1991  36.5059  37.3642 C.ar           1 <1>                0.0000
      5 C5          30.5922  37.6091  36.7980 C.ar           1 <1>                0.0000
      6 C6          29.4596  38.1682  37.4026 C.ar           1 <1>                0.0000
      7 C7          28.8093  39.3414  36.8047 C.2            1 <1>                0.0000
      8 O8          29.4465  40.0938  36.0983 O.2            1 <1>                0.0000
      9 C9          28.9487  37.6053  38.5783 C.ar           1 <1>                0.0000
     10 C10         29.5606  36.5044  39.1367 C.ar           1 <1>                0.0000
     11 Cl11        28.9263  35.8074  40.5945 Cl             1 <1>                0.0000
     12 C12         30.6817  35.9473  38.5323 C.ar           1 <1>                0.0000
     13 O13         31.2806  34.8621  39.0866 O.co2          1 <1>               -1.0000
     14 H14         33.0741  37.5372  33.9211 H              1 <1>                0.0000
     15 H15         32.3427  38.2325  35.3873 H              1 <1>                0.0000
     16 H16         33.9825  37.5434  35.4518 H              1 <1>                0.0000
     17 H17         31.4158  35.9823  34.9115 H              1 <1>                0.0000
     18 H18         33.0557  35.2933  34.9761 H              1 <1>                0.0000
     19 H19         30.9900  38.0400  35.8912 H              1 <1>                0.0000
     20 H20         27.7636  39.5342  36.9938 H              1 <1>                0.0000
     21 H21         28.0756  38.0341  39.0476 H              1 <1>                0.0000
@<TRIPOS>BOND
    1    1    2 1     
    2    1   14 1     
    3    1   15 1     
    4    1   16 1     
    5    2    3 1     
    6    2   17 1     
    7    2   18 1     
    8    3    4 1     
    9    4    5 ar    
   10    4   12 ar    
   11    5    6 ar    
   12    5   19 1     
   13    6    7 1     
   14    6    9 ar    
   15    7    8 2     
   16    7   20 1     
   17    9   10 ar    
   18    9   21 1     
   19   10   11 1     
   20   10   12 ar    
   21   12   13 ar    
@<TRIPOS>SUBSTRUCTURE
      1 ****           1
@<TRIPOS>COMMENT
> <Gold.Version>
2022.2.0

> <Gold.Id.Protein>
1qkm|1qkm_protein|mol2

> <Gold.Protein.RotatedTorsions>
[  496  491  490  487 ] final -156.44 input  -89.99 | X-H torsion

> <Gold.Protein.ActiveResidues>
 MET295  LEU298  THR299  LEU301  ALA302  GLU305  TRP335  MET336  LEU339  MET340 
 GLY342  LEU343  ARG346  PHE356  ILE373  ILE376  PHE377  LEU380  LYS471  GLY472 
 MET473  HIS475  LEU476  LEU477  ASN478  MET479  VAL484  VAL487 

> <Gold.Protein.RotatedAtoms>
   37.2612   33.8190   40.7356 H   0  0  0  0  0  0  0  0  0  0  0  0  # atno 496  bound_to 491 

> <Gold.Score>
     Score     S(PLP)   S(hbond)     S(cho)   S(metal)  DE(clash)   DE(tors)     intcor
     38.49     -39.06       0.00       0.00       0.00       0.00       0.63       0.69

> <Gold.PLP.Fitness>
38.4870

> <Gold.PLP.PLP>
-39.0600

> <Gold.PLP.part.hbond>
0.0000

> <Gold.PLP.part.metal>
0.0000

> <Gold.PLP.part.buried>
-4.0703

> <Gold.PLP.part.nonpolar>
-36.1038

> <Gold.PLP.part.repulsive>
0.7028

> <Gold.PLP.ligand.clash>
0.0000

> <Gold.PLP.ligand.torsion>
0.6319

> <Gold.PLP.Chemscore.Hbond>
0.0000

> <Gold.PLP.Chemscore.CHOScore>
0.0000

> <Gold.PLP.Chemscore.Metal>
0.0000

> <Gold.PLP.Chemscore.Internal.Correction>
0.6907

