#       Name:                EN300-07587_i001
#       Creating user name   aseyller
#       Creation time:       Fri Apr 21 16:29:29 2023


#       File generated by GOLD software.
#

@<TRIPOS>MOLECULE
EN300-07587_i001|benzaldehydes|mol2|24|dock13
    21    21     1
SMALL
USER_CHARGES


@<TRIPOS>ATOM
      1 C1          30.2333  38.5579  35.1895 C.3            1 <1>                0.0000
      2 C2          31.1868  39.0454  36.2823 C.3            1 <1>                0.0000
      3 O3          32.0285  37.9672  36.6958 O.3            1 <1>                0.0000
      4 C4          31.4684  37.0164  37.4907 C.ar           1 <1>                0.0000
      5 C5          30.4322  37.3500  38.3398 C.ar           1 <1>                0.0000
      6 C6          29.8573  36.3687  39.1568 C.ar           1 <1>                0.0000
      7 C7          28.7543  36.7174  40.0616 C.2            1 <1>                0.0000
      8 O8          28.2514  35.8641  40.7616 O.2            1 <1>                0.0000
      9 C9          30.3366  35.0541  39.1081 C.ar           1 <1>                0.0000
     10 C10         31.3711  34.7298  38.2579 C.ar           1 <1>                0.0000
     11 Cl11        31.9646  33.0996  38.1985 Cl             1 <1>                0.0000
     12 C12         31.9372  35.7041  37.4437 C.ar           1 <1>                0.0000
     13 O13         32.9562  35.3789  36.6073 O.co2          1 <1>               -1.0000
     14 H14         29.5913  39.3804  34.8741 H              1 <1>                0.0000
     15 H15         30.8104  38.1999  34.3370 H              1 <1>                0.0000
     16 H16         29.6189  37.7462  35.5790 H              1 <1>                0.0000
     17 H17         31.8012  39.8572  35.8928 H              1 <1>                0.0000
     18 H18         30.6096  39.4034  37.1349 H              1 <1>                0.0000
     19 H19         30.0659  38.3654  38.3741 H              1 <1>                0.0000
     20 H20         28.3912  37.7336  40.1038 H              1 <1>                0.0000
     21 H21         29.8959  34.2947  39.7370 H              1 <1>                0.0000
@<TRIPOS>BOND
    1    1    2 1     
    2    1   14 1     
    3    1   15 1     
    4    1   16 1     
    5    2    3 1     
    6    2   17 1     
    7    2   18 1     
    8    3    4 1     
    9    4    5 ar    
   10    4   12 ar    
   11    5    6 ar    
   12    5   19 1     
   13    6    7 1     
   14    6    9 ar    
   15    7    8 2     
   16    7   20 1     
   17    9   10 ar    
   18    9   21 1     
   19   10   11 1     
   20   10   12 ar    
   21   12   13 ar    
@<TRIPOS>SUBSTRUCTURE
      1 ****           1
@<TRIPOS>COMMENT
> <Gold.Version>
2022.2.0

> <Gold.Id.Protein>
1qkm|1qkm_protein|mol2

> <Gold.Protein.RotatedTorsions>
[  496  491  490  487 ] final  -55.43 input  -89.99 | X-H torsion

> <Gold.Protein.ActiveResidues>
 MET295  LEU298  THR299  LEU301  ALA302  GLU305  TRP335  MET336  LEU339  MET340 
 GLY342  LEU343  ARG346  PHE356  ILE373  ILE376  PHE377  LEU380  LYS471  GLY472 
 MET473  HIS475  LEU476  LEU477  ASN478  MET479  VAL484  VAL487 

> <Gold.Protein.RotatedAtoms>
   36.4627   34.7226   41.5510 H   0  0  0  0  0  0  0  0  0  0  0  0  # atno 496  bound_to 491 

> <Gold.Score>
     Score     S(PLP)   S(hbond)     S(cho)   S(metal)  DE(clash)   DE(tors)     intcor
     40.10     -40.27       0.00       0.00       0.00       0.00       0.43       0.69

> <Gold.PLP.Fitness>
40.1038

> <Gold.PLP.PLP>
-40.2749

> <Gold.PLP.part.hbond>
0.0000

> <Gold.PLP.part.metal>
0.0000

> <Gold.PLP.part.buried>
-3.6947

> <Gold.PLP.part.nonpolar>
-37.5601

> <Gold.PLP.part.repulsive>
0.1242

> <Gold.PLP.ligand.clash>
0.0000

> <Gold.PLP.ligand.torsion>
0.4309

> <Gold.PLP.Chemscore.Hbond>
0.0000

> <Gold.PLP.Chemscore.CHOScore>
0.0000

> <Gold.PLP.Chemscore.Metal>
0.0000

> <Gold.PLP.Chemscore.Internal.Correction>
0.6907

