#       Name:                EN300-07587_i001
#       Creating user name   aseyller
#       Creation time:       Fri Apr 21 16:29:22 2023


#       File generated by GOLD software.
#

@<TRIPOS>MOLECULE
EN300-07587_i001|benzaldehydes|mol2|24|dock1
    21    21     1
SMALL
USER_CHARGES


@<TRIPOS>ATOM
      1 C1          31.7905  33.4298  38.4920 C.3            1 <1>                0.0000
      2 C2          30.7186  34.4732  38.8130 C.3            1 <1>                0.0000
      3 O3          31.2178  35.7776  38.5106 O.3            1 <1>                0.0000
      4 C4          30.3096  36.7108  38.1184 C.ar           1 <1>                0.0000
      5 C5          28.9888  36.5920  38.5024 C.ar           1 <1>                0.0000
      6 C6          28.0561  37.5547  38.0973 C.ar           1 <1>                0.0000
      7 C7          26.6498  37.4340  38.5031 C.2            1 <1>                0.0000
      8 O8          26.2879  36.4810  39.1602 O.2            1 <1>                0.0000
      9 C9          28.4681  38.6330  37.3049 C.ar           1 <1>                0.0000
     10 C10         29.7882  38.7438  36.9261 C.ar           1 <1>                0.0000
     11 Cl11        30.2979  40.0811  35.9436 Cl             1 <1>                0.0000
     12 C12         30.7139  37.7901  37.3336 C.ar           1 <1>                0.0000
     13 O13         32.0136  37.9044  36.9578 O.co2          1 <1>               -1.0000
     14 H14         31.4097  32.4349  38.7227 H              1 <1>                0.0000
     15 H15         32.0458  33.4847  37.4338 H              1 <1>                0.0000
     16 H16         32.6797  33.6263  39.0909 H              1 <1>                0.0000
     17 H17         29.8293  34.2767  38.2141 H              1 <1>                0.0000
     18 H18         30.4634  34.4183  39.8713 H              1 <1>                0.0000
     19 H19         28.6756  35.7584  39.1135 H              1 <1>                0.0000
     20 H20         25.9380  38.1939  38.2165 H              1 <1>                0.0000
     21 H21         27.7515  39.3772  36.9903 H              1 <1>                0.0000
@<TRIPOS>BOND
    1    1    2 1     
    2    1   14 1     
    3    1   15 1     
    4    1   16 1     
    5    2    3 1     
    6    2   17 1     
    7    2   18 1     
    8    3    4 1     
    9    4    5 ar    
   10    4   12 ar    
   11    5    6 ar    
   12    5   19 1     
   13    6    7 1     
   14    6    9 ar    
   15    7    8 2     
   16    7   20 1     
   17    9   10 ar    
   18    9   21 1     
   19   10   11 1     
   20   10   12 ar    
   21   12   13 ar    
@<TRIPOS>SUBSTRUCTURE
      1 ****           1
@<TRIPOS>COMMENT
> <Gold.Version>
2022.2.0

> <Gold.Id.Protein>
1qkm|1qkm_protein|mol2

> <Gold.Protein.RotatedTorsions>
[  496  491  490  487 ] final -164.51 input  -89.99 | X-H torsion

> <Gold.Protein.ActiveResidues>
 MET295  LEU298  THR299  LEU301  ALA302  GLU305  TRP335  MET336  LEU339  MET340 
 GLY342  LEU343  ARG346  PHE356  ILE373  ILE376  PHE377  LEU380  LYS471  GLY472 
 MET473  HIS475  LEU476  LEU477  ASN478  MET479  VAL484  VAL487 

> <Gold.Protein.RotatedAtoms>
   37.2902   33.6932   40.7661 H   0  0  0  0  0  0  0  0  0  0  0  0  # atno 496  bound_to 491 

> <Gold.Score>
     Score     S(PLP)   S(hbond)     S(cho)   S(metal)  DE(clash)   DE(tors)     intcor
     40.36     -40.75       0.00       0.00       0.00       0.00       0.54       0.69

> <Gold.PLP.Fitness>
40.3558

> <Gold.PLP.PLP>
-40.7496

> <Gold.PLP.part.hbond>
0.0000

> <Gold.PLP.part.metal>
0.0000

> <Gold.PLP.part.buried>
-2.7825

> <Gold.PLP.part.nonpolar>
-37.7969

> <Gold.PLP.part.repulsive>
0.1315

> <Gold.PLP.ligand.clash>
0.0000

> <Gold.PLP.ligand.torsion>
0.5427

> <Gold.PLP.Chemscore.Hbond>
0.0000

> <Gold.PLP.Chemscore.CHOScore>
0.0000

> <Gold.PLP.Chemscore.Metal>
0.0000

> <Gold.PLP.Chemscore.Internal.Correction>
0.6917

