#       Name:                EN300-194291_i002
#       Creating user name   fsindt
#       Creation time:       Tue Feb 28 19:42:20 2023


#       File generated by GOLD software.
#

@<TRIPOS>MOLECULE
EN300-194291_i002|acide_2|mol2|6787|dock7
    25    26     1
SMALL
USER_CHARGES


@<TRIPOS>ATOM
      1 O1          -3.7074 -11.7008   9.8943 O.co2          1 <1>               -1.0000
      2 C2          -2.7691 -10.9290   9.9963 C.2            1 <1>                0.0000
      3 O3          -2.9644  -9.7257   9.9751 O.co2          1 <1>                0.0000
      4 C4          -1.3685 -11.4623  10.1547 C.3            1 <1>                0.0000
      5 C5          -1.3047 -12.5240  11.2751 C.3            1 <1>                0.0000
      6 N6          -0.3403 -13.5275  10.8090 N.am           1 <1>                0.0000
      7 C7          -0.1247 -13.4202   9.4866 C.2            1 <1>                0.0000
      8 O8           0.6204 -14.1298   8.8444 O.2            1 <1>                0.0000
      9 C9          -0.9465 -12.2855   8.9158 C.3            1 <1>                0.0000
     10 C10          0.2755 -14.4751  11.6357 C.ar           1 <1>                0.0000
     11 C11          1.5390 -14.9561  11.3201 C.ar           1 <1>                0.0000
     12 C12          2.1461 -15.8909  12.1366 C.ar           1 <1>                0.0000
     13 C13          1.4958 -16.3490  13.2690 C.ar           1 <1>                0.0000
     14 F14          2.0914 -17.2631  14.0658 F              1 <1>                0.0000
     15 C15          0.2333 -15.8704  13.5870 C.ar           1 <1>                0.0000
     16 F16         -0.4001 -16.3183  14.6931 F              1 <1>                0.0000
     17 C17         -0.3746 -14.9306  12.7750 C.ar           1 <1>                0.0000
     18 H18         -0.6641 -10.6524  10.3441 H              1 <1>                0.0000
     19 H19         -0.9587 -12.0714  12.2043 H              1 <1>                0.0000
     20 H20         -2.2841 -12.9803  11.4186 H              1 <1>                0.0000
     21 H21         -1.8241 -12.6729   8.3981 H              1 <1>                0.0000
     22 H22         -0.3422 -11.6782   8.2419 H              1 <1>                0.0000
     23 H23          2.0472 -14.5998  10.4363 H              1 <1>                0.0000
     24 H24          3.1290 -16.2647  11.8907 H              1 <1>                0.0000
     25 H25         -1.3576 -14.5575  13.0220 H              1 <1>                0.0000
@<TRIPOS>BOND
    1    1    2 ar    
    2    2    3 ar    
    3    2    4 1     
    4    4    5 1     
    5    4    9 1     
    6    4   18 1     
    7    5    6 1     
    8    5   19 1     
    9    5   20 1     
   10    6    7 am    
   11    6   10 1     
   12    7    8 2     
   13    7    9 1     
   14    9   21 1     
   15    9   22 1     
   16   10   11 ar    
   17   10   17 ar    
   18   11   12 ar    
   19   11   23 1     
   20   12   13 ar    
   21   12   24 1     
   22   13   14 1     
   23   13   15 ar    
   24   15   16 1     
   25   15   17 ar    
   26   17   25 1     
@<TRIPOS>SUBSTRUCTURE
      1 ****           1
@<TRIPOS>COMMENT
> <Gold.Version>
2022.2.0

> <Gold.Id.Protein>
3pbl|protein|mol2

> <Gold.Protein.RotatedTorsions>
[ 1303 1298 1297 1294 ] final   22.09 input  179.99 | X-H torsion
[ 2461 2456 2455 2452 ] final  -25.18 input   30.03 | X-H torsion
[ 2515 2510 2509 2506 ] final -152.01 input  -89.99 | X-H torsion
[ 3721 3712 3711 3710 ] final   40.78 input -179.91 | X-H torsion
[ 3841 3832 3831 3830 ] final   63.01 input -179.91 | X-H torsion
[ 3767 3762 3761 3758 ] final  -43.31 input  -89.99 | X-H torsion
[ 2472 2467 2466 2463 ] final   25.83 input  -89.97 | X-H torsion

> <Gold.Protein.ActiveResidues>
 VAL82   VAL86   LEU89   PHE106  VAL107  ASP110  VAL111  MET112  CYS114  THR115 
 CYS181  SER182  ILE183  PHE188  VAL189  ILE190  SER192  SER193  SER196  TRP342 
 PHE345  PHE346  HIS349  VAL350  TYR365  THR369  GLY372  TYR373 

> <Gold.Protein.RotatedAtoms>
    3.5506  -10.1167    4.2564 H   0  0  0  0  0  0  0  0  0  0  0  0  # atno 1303 bound_to 1298
    0.6808   -8.1764    7.0929 H   0  0  0  0  0  0  0  0  0  0  0  0  # atno 2461 bound_to 2456
   -4.1057   -4.8089    7.7932 H   0  0  0  0  0  0  0  0  0  0  0  0  # atno 2472 bound_to 2467
    2.5188   -9.2358    5.4815 H   0  0  0  0  0  0  0  0  0  0  0  0  # atno 2515 bound_to 2510
   -2.5095  -18.0104   13.6416 H   0  0  0  0  0  0  0  0  0  0  0  0  # atno 3721 bound_to 3712
   -5.5098  -22.2083   10.5842 H   0  0  0  0  0  0  0  0  0  0  0  0  # atno 3767 bound_to 3762
    2.5113  -20.9496    9.4933 H   0  0  0  0  0  0  0  0  0  0  0  0  # atno 3841 bound_to 3832
    3.9306   -8.5652    3.9178 LP  0  0  0  0  0  0  0  0  0  0  0  0  # atno 4297 bound_to 1298
    4.8811   -9.4391    4.9174 LP  0  0  0  0  0  0  0  0  0  0  0  0  # atno 4298 bound_to 1298
    0.9047   -9.2812    8.2747 LP  0  0  0  0  0  0  0  0  0  0  0  0  # atno 4299 bound_to 2456
    2.1521   -8.3504    7.7803 LP  0  0  0  0  0  0  0  0  0  0  0  0  # atno 4300 bound_to 2456
    2.0475   -7.7093    5.8182 LP  0  0  0  0  0  0  0  0  0  0  0  0  # atno 4301 bound_to 2510
    2.7304   -8.0536    4.3754 LP  0  0  0  0  0  0  0  0  0  0  0  0  # atno 4302 bound_to 2510
   -3.1442  -17.1441   14.8352 LP  0  0  0  0  0  0  0  0  0  0  0  0  # atno 4306 bound_to 3712
   -3.4862  -16.7889   13.2784 LP  0  0  0  0  0  0  0  0  0  0  0  0  # atno 4307 bound_to 3712
    1.4391  -19.9065    8.9116 LP  0  0  0  0  0  0  0  0  0  0  0  0  # atno 4314 bound_to 3832
    2.8893  -20.0988    8.1858 LP  0  0  0  0  0  0  0  0  0  0  0  0  # atno 4315 bound_to 3832
   -4.2693  -22.3346   11.6387 LP  0  0  0  0  0  0  0  0  0  0  0  0  # atno 4318 bound_to 3762
   -4.3486  -23.3320   10.3481 LP  0  0  0  0  0  0  0  0  0  0  0  0  # atno 4319 bound_to 3762
   -4.1011   -5.3614    9.3298 LP  0  0  0  0  0  0  0  0  0  0  0  0  # atno 4320 bound_to 2467
   -5.5101   -5.2231    8.5160 LP  0  0  0  0  0  0  0  0  0  0  0  0  # atno 4321 bound_to 2467

> <Gold.Score>
     Score     S(PLP)   S(hbond)     S(cho)   S(metal)  DE(clash)   DE(tors)     intcor
     50.21     -50.43       0.00       0.00       0.00       0.00       0.45       0.68

> <Gold.PLP.Fitness>
50.2061

> <Gold.PLP.PLP>
-50.4308

> <Gold.PLP.part.hbond>
0.0000

> <Gold.PLP.part.metal>
0.0000

> <Gold.PLP.part.buried>
-3.4816

> <Gold.PLP.part.nonpolar>
-48.1798

> <Gold.PLP.part.repulsive>
0.2009

> <Gold.PLP.ligand.clash>
0.0000

> <Gold.PLP.ligand.torsion>
0.4524

> <Gold.PLP.Chemscore.Hbond>
0.0000

> <Gold.PLP.Chemscore.CHOScore>
0.0000

> <Gold.PLP.Chemscore.Metal>
0.0000

> <Gold.PLP.Chemscore.Internal.Correction>
0.6802

