#       Name:                EN300-194291_i002
#       Creating user name   fsindt
#       Creation time:       Tue Feb 28 19:42:20 2023


#       File generated by GOLD software.
#

@<TRIPOS>MOLECULE
EN300-194291_i002|acide_2|mol2|6787|dock6
    25    26     1
SMALL
USER_CHARGES


@<TRIPOS>ATOM
      1 O1           1.0065 -15.9968  14.3205 O.co2          1 <1>               -1.0000
      2 C2          -0.0228 -16.5681  14.0032 C.2            1 <1>                0.0000
      3 O3          -0.5147 -17.3972  14.7496 O.co2          1 <1>                0.0000
      4 C4          -0.6902 -16.2451  12.6912 C.3            1 <1>                0.0000
      5 C5           0.1173 -15.1882  11.9056 C.3            1 <1>                0.0000
      6 N6          -0.0074 -15.5700  10.4939 N.am           1 <1>                0.0000
      7 C7          -0.4260 -16.8410  10.3670 C.2            1 <1>                0.0000
      8 O8          -0.6055 -17.4112   9.3117 O.2            1 <1>                0.0000
      9 C9          -0.6406 -17.4569  11.7321 C.3            1 <1>                0.0000
     10 C10          0.2740 -14.7196   9.4177 C.ar           1 <1>                0.0000
     11 C11          0.6822 -15.2499   8.2014 C.ar           1 <1>                0.0000
     12 C12          0.9593 -14.4102   7.1397 C.ar           1 <1>                0.0000
     13 C13          0.8309 -13.0402   7.2875 C.ar           1 <1>                0.0000
     14 F14          1.1024 -12.2211   6.2480 F              1 <1>                0.0000
     15 C15          0.4233 -12.5073   8.5015 C.ar           1 <1>                0.0000
     16 F16          0.2980 -11.1696   8.6440 F              1 <1>                0.0000
     17 C17          0.1397 -13.3454   9.5642 C.ar           1 <1>                0.0000
     18 H18         -1.7166 -15.9138  12.8493 H              1 <1>                0.0000
     19 H19         -0.3037 -14.1957  12.0665 H              1 <1>                0.0000
     20 H20          1.1634 -15.2091  12.2110 H              1 <1>                0.0000
     21 H21          0.1907 -18.1133  11.9894 H              1 <1>                0.0000
     22 H22         -1.5828 -18.0042  11.7598 H              1 <1>                0.0000
     23 H23          0.7834 -16.3189   8.0851 H              1 <1>                0.0000
     24 H24          1.2768 -14.8233   6.1937 H              1 <1>                0.0000
     25 H25         -0.1778 -12.9311  10.5097 H              1 <1>                0.0000
@<TRIPOS>BOND
    1    1    2 ar    
    2    2    3 ar    
    3    2    4 1     
    4    4    5 1     
    5    4    9 1     
    6    4   18 1     
    7    5    6 1     
    8    5   19 1     
    9    5   20 1     
   10    6    7 am    
   11    6   10 1     
   12    7    8 2     
   13    7    9 1     
   14    9   21 1     
   15    9   22 1     
   16   10   11 ar    
   17   10   17 ar    
   18   11   12 ar    
   19   11   23 1     
   20   12   13 ar    
   21   12   24 1     
   22   13   14 1     
   23   13   15 ar    
   24   15   16 1     
   25   15   17 ar    
   26   17   25 1     
@<TRIPOS>SUBSTRUCTURE
      1 ****           1
@<TRIPOS>COMMENT
> <Gold.Version>
2022.2.0

> <Gold.Id.Protein>
3pbl|protein|mol2

> <Gold.Protein.RotatedTorsions>
[ 1303 1298 1297 1294 ] final  -20.99 input  179.99 | X-H torsion
[ 2461 2456 2455 2452 ] final  -52.81 input   30.03 | X-H torsion
[ 2515 2510 2509 2506 ] final   69.25 input  -89.99 | X-H torsion
[ 3721 3712 3711 3710 ] final  -11.09 input -179.91 | X-H torsion
[ 3841 3832 3831 3830 ] final  -31.79 input -179.91 | X-H torsion
[ 3767 3762 3761 3758 ] final -159.22 input  -89.99 | X-H torsion
[ 2472 2467 2466 2463 ] final  138.28 input  -89.97 | X-H torsion

> <Gold.Protein.ActiveResidues>
 VAL82   VAL86   LEU89   PHE106  VAL107  ASP110  VAL111  MET112  CYS114  THR115 
 CYS181  SER182  ILE183  PHE188  VAL189  ILE190  SER192  SER193  SER196  TRP342 
 PHE345  PHE346  HIS349  VAL350  TYR365  THR369  GLY372  TYR373 

> <Gold.Protein.RotatedAtoms>
    3.3295   -9.5718    3.8913 H   0  0  0  0  0  0  0  0  0  0  0  0  # atno 1303 bound_to 1298
    0.4112   -8.4743    7.2964 H   0  0  0  0  0  0  0  0  0  0  0  0  # atno 2461 bound_to 2456
   -5.5023   -5.1811    8.3995 H   0  0  0  0  0  0  0  0  0  0  0  0  # atno 2472 bound_to 2467
    2.1074   -7.5233    5.5815 H   0  0  0  0  0  0  0  0  0  0  0  0  # atno 2515 bound_to 2510
   -2.5179  -17.8800   14.3879 H   0  0  0  0  0  0  0  0  0  0  0  0  # atno 3721 bound_to 3712
   -4.3177  -22.2886   11.6462 H   0  0  0  0  0  0  0  0  0  0  0  0  # atno 3767 bound_to 3762
    1.5675  -20.1099    9.3259 H   0  0  0  0  0  0  0  0  0  0  0  0  # atno 3841 bound_to 3832
    4.5065   -8.5159    4.2988 LP  0  0  0  0  0  0  0  0  0  0  0  0  # atno 4297 bound_to 1298
    4.5264  -10.0335    4.9016 LP  0  0  0  0  0  0  0  0  0  0  0  0  # atno 4298 bound_to 1298
    1.3375   -9.2504    8.3950 LP  0  0  0  0  0  0  0  0  0  0  0  0  # atno 4299 bound_to 2456
    1.9888   -8.0835    7.4566 LP  0  0  0  0  0  0  0  0  0  0  0  0  # atno 4300 bound_to 2456
    2.8020   -8.3517    4.3580 LP  0  0  0  0  0  0  0  0  0  0  0  0  # atno 4301 bound_to 2510
    2.3875   -9.1245    5.7356 LP  0  0  0  0  0  0  0  0  0  0  0  0  # atno 4302 bound_to 2510
   -3.4975  -16.6114   14.2942 LP  0  0  0  0  0  0  0  0  0  0  0  0  # atno 4306 bound_to 3712
   -3.1232  -17.4721   12.9578 LP  0  0  0  0  0  0  0  0  0  0  0  0  # atno 4307 bound_to 3712
    2.6157  -19.8555    8.1373 LP  0  0  0  0  0  0  0  0  0  0  0  0  # atno 4314 bound_to 3832
    2.8029  -21.1199    9.1536 LP  0  0  0  0  0  0  0  0  0  0  0  0  # atno 4315 bound_to 3832
   -4.2983  -23.3354   10.3929 LP  0  0  0  0  0  0  0  0  0  0  0  0  # atno 4318 bound_to 3762
   -5.5113  -22.2510   10.5323 LP  0  0  0  0  0  0  0  0  0  0  0  0  # atno 4319 bound_to 3762
   -4.0030   -4.8215    7.8617 LP  0  0  0  0  0  0  0  0  0  0  0  0  # atno 4320 bound_to 2467
   -4.2119   -5.3909    9.3779 LP  0  0  0  0  0  0  0  0  0  0  0  0  # atno 4321 bound_to 2467

> <Gold.Score>
     Score     S(PLP)   S(hbond)     S(cho)   S(metal)  DE(clash)   DE(tors)     intcor
     51.91     -46.46       1.83       0.00       0.00       0.00       0.36       0.68

> <Gold.PLP.Fitness>
51.9083

> <Gold.PLP.PLP>
-46.4625

> <Gold.PLP.part.hbond>
-2.0000

> <Gold.PLP.part.metal>
0.0000

> <Gold.PLP.part.buried>
-1.2827

> <Gold.PLP.part.nonpolar>
-43.6029

> <Gold.PLP.part.repulsive>
0.1429

> <Gold.PLP.ligand.clash>
0.0014

> <Gold.PLP.ligand.torsion>
0.3645

> <Gold.PLP.Chemscore.Hbond>
1.8320

> <Gold.PLP.Chemscore.CHOScore>
0.0000

> <Gold.PLP.Chemscore.Metal>
0.0000

> <Gold.Chemscore.Hbonds>
donor molecule, donor type, donor heavy atom, donor atom, acceptor molecule, acceptor atom, score
      P1  H  2305  2313       L1     1  1.00
      P1  H  3712  3721       L1     3  0.83

> <Gold.PLP.Chemscore.Internal.Correction>
0.6802

