#       Name:                EN300-194291_i002
#       Creating user name   fsindt
#       Creation time:       Tue Feb 28 19:42:26 2023


#       File generated by GOLD software.
#

@<TRIPOS>MOLECULE
EN300-194291_i002|acide_2|mol2|6787|dock19
    25    26     1
SMALL
USER_CHARGES


@<TRIPOS>ATOM
      1 O1           1.1657 -11.2111   7.9613 O.co2          1 <1>               -1.0000
      2 C2           0.8740 -12.3805   7.7773 C.2            1 <1>                0.0000
      3 O3           1.4028 -13.0058   6.8740 O.co2          1 <1>                0.0000
      4 C4          -0.1357 -13.0548   8.6700 C.3            1 <1>                0.0000
      5 C5           0.5136 -14.2086   9.4661 C.3            1 <1>                0.0000
      6 N6          -0.1307 -14.1855  10.7846 N.am           1 <1>                0.0000
      7 C7          -0.7544 -13.0150  11.0029 C.2            1 <1>                0.0000
      8 O8          -1.3593 -12.7282  12.0142 O.2            1 <1>                0.0000
      9 C9          -0.5921 -12.1074   9.8035 C.3            1 <1>                0.0000
     10 C10         -0.0990 -15.2463  11.6980 C.ar           1 <1>                0.0000
     11 C11         -0.0992 -14.9890  13.0622 C.ar           1 <1>                0.0000
     12 C12         -0.0685 -16.0363  13.9629 C.ar           1 <1>                0.0000
     13 C13         -0.0370 -17.3424  13.5066 C.ar           1 <1>                0.0000
     14 F14         -0.0069 -18.3649  14.3891 F              1 <1>                0.0000
     15 C15         -0.0367 -17.6029  12.1442 C.ar           1 <1>                0.0000
     16 F16         -0.0064 -18.8786  11.7004 F              1 <1>                0.0000
     17 C17         -0.0732 -16.5570  11.2403 C.ar           1 <1>                0.0000
     18 H18         -0.9881 -13.4112   8.0917 H              1 <1>                0.0000
     19 H19          0.3253 -15.1612   8.9709 H              1 <1>                0.0000
     20 H20          1.5858 -14.0405   9.5671 H              1 <1>                0.0000
     21 H21          0.1682 -11.3508   9.9977 H              1 <1>                0.0000
     22 H22         -1.5424 -11.6380   9.5489 H              1 <1>                0.0000
     23 H23         -0.1231 -13.9700  13.4195 H              1 <1>                0.0000
     24 H24         -0.0686 -15.8355  15.0240 H              1 <1>                0.0000
     25 H25         -0.0731 -16.7592  10.1794 H              1 <1>                0.0000
@<TRIPOS>BOND
    1    1    2 ar    
    2    2    3 ar    
    3    2    4 1     
    4    4    5 1     
    5    4    9 1     
    6    4   18 1     
    7    5    6 1     
    8    5   19 1     
    9    5   20 1     
   10    6    7 am    
   11    6   10 1     
   12    7    8 2     
   13    7    9 1     
   14    9   21 1     
   15    9   22 1     
   16   10   11 ar    
   17   10   17 ar    
   18   11   12 ar    
   19   11   23 1     
   20   12   13 ar    
   21   12   24 1     
   22   13   14 1     
   23   13   15 ar    
   24   15   16 1     
   25   15   17 ar    
   26   17   25 1     
@<TRIPOS>SUBSTRUCTURE
      1 ****           1
@<TRIPOS>COMMENT
> <Gold.Version>
2022.2.0

> <Gold.Id.Protein>
3pbl|protein|mol2

> <Gold.Protein.RotatedTorsions>
[ 1303 1298 1297 1294 ] final   55.25 input  179.99 | X-H torsion
[ 2461 2456 2455 2452 ] final -157.31 input   30.03 | X-H torsion
[ 2515 2510 2509 2506 ] final   99.92 input  -89.99 | X-H torsion
[ 3721 3712 3711 3710 ] final -178.05 input -179.91 | X-H torsion
[ 3841 3832 3831 3830 ] final  -11.24 input -179.91 | X-H torsion
[ 3767 3762 3761 3758 ] final  150.04 input  -89.99 | X-H torsion
[ 2472 2467 2466 2463 ] final  -50.27 input  -89.97 | X-H torsion

> <Gold.Protein.ActiveResidues>
 VAL82   VAL86   LEU89   PHE106  VAL107  ASP110  VAL111  MET112  CYS114  THR115 
 CYS181  SER182  ILE183  PHE188  VAL189  ILE190  SER192  SER193  SER196  TRP342 
 PHE345  PHE346  HIS349  VAL350  TYR365  THR369  GLY372  TYR373 

> <Gold.Protein.RotatedAtoms>
    3.9436  -10.2716    4.5896 H   0  0  0  0  0  0  0  0  0  0  0  0  # atno 1303 bound_to 1298
    1.0908   -9.2873    8.3458 H   0  0  0  0  0  0  0  0  0  0  0  0  # atno 2461 bound_to 2456
   -3.6705   -5.1316    8.8214 H   0  0  0  0  0  0  0  0  0  0  0  0  # atno 2472 bound_to 2467
    2.0308   -7.8641    5.9372 H   0  0  0  0  0  0  0  0  0  0  0  0  # atno 2515 bound_to 2510
   -3.3257  -16.5966   13.5737 H   0  0  0  0  0  0  0  0  0  0  0  0  # atno 3721 bound_to 3712
   -3.9190  -22.8969   11.2939 H   0  0  0  0  0  0  0  0  0  0  0  0  # atno 3767 bound_to 3762
    1.6520  -20.3552    9.4933 H   0  0  0  0  0  0  0  0  0  0  0  0  # atno 3841 bound_to 3832
    3.5414   -8.9109    3.7815 LP  0  0  0  0  0  0  0  0  0  0  0  0  # atno 4297 bound_to 1298
    4.8772   -8.9384    4.7204 LP  0  0  0  0  0  0  0  0  0  0  0  0  # atno 4298 bound_to 1298
    2.1047   -8.2220    7.6355 LP  0  0  0  0  0  0  0  0  0  0  0  0  # atno 4299 bound_to 2456
    0.5423   -8.2990    7.1670 LP  0  0  0  0  0  0  0  0  0  0  0  0  # atno 4300 bound_to 2456
    2.6677   -7.8775    4.4339 LP  0  0  0  0  0  0  0  0  0  0  0  0  # atno 4301 bound_to 2510
    2.5984   -9.2578    5.3038 LP  0  0  0  0  0  0  0  0  0  0  0  0  # atno 4302 bound_to 2510
   -2.7439  -18.0747   13.3401 LP  0  0  0  0  0  0  0  0  0  0  0  0  # atno 4306 bound_to 3712
   -2.9443  -17.4905   14.8518 LP  0  0  0  0  0  0  0  0  0  0  0  0  # atno 4307 bound_to 3712
    2.3147  -19.7015    8.1858 LP  0  0  0  0  0  0  0  0  0  0  0  0  # atno 4314 bound_to 3832
    3.0063  -20.9904    8.9117 LP  0  0  0  0  0  0  0  0  0  0  0  0  # atno 4315 bound_to 3832
   -4.9826  -23.0575   10.0652 LP  0  0  0  0  0  0  0  0  0  0  0  0  # atno 4318 bound_to 3762
   -5.2255  -21.9207   11.2121 LP  0  0  0  0  0  0  0  0  0  0  0  0  # atno 4319 bound_to 3762
   -5.2461   -5.4189    9.1397 LP  0  0  0  0  0  0  0  0  0  0  0  0  # atno 4320 bound_to 2467
   -4.8001   -4.8431    7.6781 LP  0  0  0  0  0  0  0  0  0  0  0  0  # atno 4321 bound_to 2467

> <Gold.Score>
     Score     S(PLP)   S(hbond)     S(cho)   S(metal)  DE(clash)   DE(tors)     intcor
     47.49     -45.05       0.90       0.00       0.00       0.00       0.46       0.68

> <Gold.PLP.Fitness>
47.4924

> <Gold.PLP.PLP>
-45.0517

> <Gold.PLP.part.hbond>
-2.0000

> <Gold.PLP.part.metal>
0.0000

> <Gold.PLP.part.buried>
-3.9506

> <Gold.PLP.part.nonpolar>
-39.7625

> <Gold.PLP.part.repulsive>
0.2101

> <Gold.PLP.ligand.clash>
0.0000

> <Gold.PLP.ligand.torsion>
0.4637

> <Gold.PLP.Chemscore.Hbond>
0.8960

> <Gold.PLP.Chemscore.CHOScore>
0.0000

> <Gold.PLP.Chemscore.Metal>
0.0000

> <Gold.Chemscore.Hbonds>
donor molecule, donor type, donor heavy atom, donor atom, acceptor molecule, acceptor atom, score
      P1  H  2456  2461       L1     1  0.90

> <Gold.PLP.Chemscore.Internal.Correction>
0.6802

