#       Name:                EN300-194291_i002
#       Creating user name   fsindt
#       Creation time:       Tue Feb 28 19:42:26 2023


#       File generated by GOLD software.
#

@<TRIPOS>MOLECULE
EN300-194291_i002|acide_2|mol2|6787|dock20
    25    26     1
SMALL
USER_CHARGES


@<TRIPOS>ATOM
      1 O1           0.2916 -20.6449  12.6573 O.co2          1 <1>               -1.0000
      2 C2          -0.3314 -19.6113  12.8305 C.2            1 <1>                0.0000
      3 O3          -1.5363 -19.6491  13.0132 O.co2          1 <1>                0.0000
      4 C4           0.3886 -18.2874  12.8247 C.3            1 <1>                0.0000
      5 C5          -0.0667 -17.4157  11.6334 C.3            1 <1>                0.0000
      6 N6          -0.0795 -16.0378  12.1388 N.am           1 <1>                0.0000
      7 C7          -0.0696 -16.0106  13.4827 C.2            1 <1>                0.0000
      8 O8          -0.0838 -15.0027  14.1572 O.2            1 <1>                0.0000
      9 C9          -0.0383 -17.4200  14.0314 C.3            1 <1>                0.0000
     10 C10         -0.0999 -14.8981  11.3256 C.ar           1 <1>                0.0000
     11 C11          0.6206 -14.8781  10.1391 C.ar           1 <1>                0.0000
     12 C12          0.5996 -13.7534   9.3370 C.ar           1 <1>                0.0000
     13 C13         -0.1388 -12.6457   9.7152 C.ar           1 <1>                0.0000
     14 F14         -0.1578 -11.5470   8.9293 F              1 <1>                0.0000
     15 C15         -0.8596 -12.6626  10.9001 C.ar           1 <1>                0.0000
     16 F16         -1.5804 -11.5806  11.2678 F              1 <1>                0.0000
     17 C17         -0.8453 -13.7888  11.7023 C.ar           1 <1>                0.0000
     18 H18          1.4687 -18.4332  12.8111 H              1 <1>                0.0000
     19 H19          0.6384 -17.5079  10.8073 H              1 <1>                0.0000
     20 H20         -1.0661 -17.7088  11.3118 H              1 <1>                0.0000
     21 H21         -1.0273 -17.7149  14.3823 H              1 <1>                0.0000
     22 H22          0.6925 -17.5000  14.8363 H              1 <1>                0.0000
     23 H23          1.1977 -15.7417   9.8432 H              1 <1>                0.0000
     24 H24          1.1602 -13.7384   8.4140 H              1 <1>                0.0000
     25 H25         -1.4064 -13.8026  12.6250 H              1 <1>                0.0000
@<TRIPOS>BOND
    1    1    2 ar    
    2    2    3 ar    
    3    2    4 1     
    4    4    5 1     
    5    4    9 1     
    6    4   18 1     
    7    5    6 1     
    8    5   19 1     
    9    5   20 1     
   10    6    7 am    
   11    6   10 1     
   12    7    8 2     
   13    7    9 1     
   14    9   21 1     
   15    9   22 1     
   16   10   11 ar    
   17   10   17 ar    
   18   11   12 ar    
   19   11   23 1     
   20   12   13 ar    
   21   12   24 1     
   22   13   14 1     
   23   13   15 ar    
   24   15   16 1     
   25   15   17 ar    
   26   17   25 1     
@<TRIPOS>SUBSTRUCTURE
      1 ****           1
@<TRIPOS>COMMENT
> <Gold.Version>
2022.2.0

> <Gold.Id.Protein>
3pbl|protein|mol2

> <Gold.Protein.RotatedTorsions>
[ 1303 1298 1297 1294 ] final  -75.90 input  179.99 | X-H torsion
[ 2461 2456 2455 2452 ] final -118.70 input   30.03 | X-H torsion
[ 2515 2510 2509 2506 ] final   31.30 input  -89.99 | X-H torsion
[ 3721 3712 3711 3710 ] final   35.41 input -179.91 | X-H torsion
[ 3841 3832 3831 3830 ] final   -6.00 input -179.91 | X-H torsion
[ 3767 3762 3761 3758 ] final  175.86 input  -89.99 | X-H torsion
[ 2472 2467 2466 2463 ] final -117.76 input  -89.97 | X-H torsion

> <Gold.Protein.ActiveResidues>
 VAL82   VAL86   LEU89   PHE106  VAL107  ASP110  VAL111  MET112  CYS114  THR115 
 CYS181  SER182  ILE183  PHE188  VAL189  ILE190  SER192  SER193  SER196  TRP342 
 PHE345  PHE346  HIS349  VAL350  TYR365  THR369  GLY372  TYR373 

> <Gold.Protein.RotatedAtoms>
    3.6564   -8.7709    3.8076 H   0  0  0  0  0  0  0  0  0  0  0  0  # atno 1303 bound_to 1298
    0.5616   -9.1654    8.0393 H   0  0  0  0  0  0  0  0  0  0  0  0  # atno 2461 bound_to 2456
   -4.4650   -5.4388    9.4311 H   0  0  0  0  0  0  0  0  0  0  0  0  # atno 2472 bound_to 2467
    2.3232   -7.4203    5.0173 H   0  0  0  0  0  0  0  0  0  0  0  0  # atno 2515 bound_to 2510
   -2.4943  -18.0248   13.7200 H   0  0  0  0  0  0  0  0  0  0  0  0  # atno 3721 bound_to 3712
   -4.0590  -22.5837   11.5388 H   0  0  0  0  0  0  0  0  0  0  0  0  # atno 3767 bound_to 3762
    1.6884  -20.4173    9.5263 H   0  0  0  0  0  0  0  0  0  0  0  0  # atno 3841 bound_to 3832
    4.9079   -9.0987    4.8039 LP  0  0  0  0  0  0  0  0  0  0  0  0  # atno 4297 bound_to 1298
    3.7981  -10.2520    4.4802 LP  0  0  0  0  0  0  0  0  0  0  0  0  # atno 4298 bound_to 1298
    2.1146   -8.6613    8.0778 LP  0  0  0  0  0  0  0  0  0  0  0  0  # atno 4299 bound_to 2456
    1.0614   -7.9816    7.0312 LP  0  0  0  0  0  0  0  0  0  0  0  0  # atno 4300 bound_to 2456
    2.8233   -8.9164    4.5960 LP  0  0  0  0  0  0  0  0  0  0  0  0  # atno 4301 bound_to 2510
    2.1502   -8.6629    6.0621 LP  0  0  0  0  0  0  0  0  0  0  0  0  # atno 4302 bound_to 2510
   -3.1886  -17.0707   14.8088 LP  0  0  0  0  0  0  0  0  0  0  0  0  # atno 4306 bound_to 3712
   -3.4594  -16.8456   13.2142 LP  0  0  0  0  0  0  0  0  0  0  0  0  # atno 4307 bound_to 3712
    2.2353  -19.6758    8.2120 LP  0  0  0  0  0  0  0  0  0  0  0  0  # atno 4314 bound_to 3832
    3.0438  -20.9444    8.8473 LP  0  0  0  0  0  0  0  0  0  0  0  0  # atno 4315 bound_to 3832
   -4.6268  -23.2600   10.1651 LP  0  0  0  0  0  0  0  0  0  0  0  0  # atno 4318 bound_to 3762
   -5.4414  -22.0313   10.8675 LP  0  0  0  0  0  0  0  0  0  0  0  0  # atno 4319 bound_to 3762
   -5.4328   -5.0876    8.1636 LP  0  0  0  0  0  0  0  0  0  0  0  0  # atno 4320 bound_to 2467
   -3.8191   -4.8672    8.0446 LP  0  0  0  0  0  0  0  0  0  0  0  0  # atno 4321 bound_to 2467

> <Gold.Score>
     Score     S(PLP)   S(hbond)     S(cho)   S(metal)  DE(clash)   DE(tors)     intcor
     46.38     -41.28       1.96       0.00       0.00       0.00       0.73       0.68

> <Gold.PLP.Fitness>
46.3804

> <Gold.PLP.PLP>
-41.2752

> <Gold.PLP.part.hbond>
-2.0000

> <Gold.PLP.part.metal>
0.0000

> <Gold.PLP.part.buried>
-0.0284

> <Gold.PLP.part.nonpolar>
-39.6586

> <Gold.PLP.part.repulsive>
0.1166

> <Gold.PLP.ligand.clash>
0.0000

> <Gold.PLP.ligand.torsion>
0.7275

> <Gold.PLP.Chemscore.Hbond>
1.9600

> <Gold.PLP.Chemscore.CHOScore>
0.0000

> <Gold.PLP.Chemscore.Metal>
0.0000

> <Gold.Chemscore.Hbonds>
donor molecule, donor type, donor heavy atom, donor atom, acceptor molecule, acceptor atom, score
      P1  H  2305  2313       L1     8  0.96
      P1  H  3712  3721       L1     3  1.00

> <Gold.PLP.Chemscore.Internal.Correction>
0.6802

