#       Name:                EN300-194291_i002
#       Creating user name   fsindt
#       Creation time:       Tue Feb 28 19:42:25 2023


#       File generated by GOLD software.
#

@<TRIPOS>MOLECULE
EN300-194291_i002|acide_2|mol2|6787|dock18
    25    26     1
SMALL
USER_CHARGES


@<TRIPOS>ATOM
      1 O1           0.4941 -11.1600   7.4273 O.co2          1 <1>               -1.0000
      2 C2           0.8596 -12.0592   6.6895 C.2            1 <1>                0.0000
      3 O3           0.9201 -11.8737   5.4860 O.co2          1 <1>                0.0000
      4 C4           1.2424 -13.3981   7.2656 C.3            1 <1>                0.0000
      5 C5           1.4283 -13.3085   8.7966 C.3            1 <1>                0.0000
      6 N6           0.9197 -14.5786   9.3278 N.am           1 <1>                0.0000
      7 C7           0.1519 -15.2130   8.4250 C.2            1 <1>                0.0000
      8 O8          -0.3990 -16.2780   8.6075 O.2            1 <1>                0.0000
      9 C9           0.0750 -14.4052   7.1482 C.3            1 <1>                0.0000
     10 C10          1.1980 -15.0666  10.6104 C.ar           1 <1>                0.0000
     11 C11          2.5088 -15.1182  11.0649 C.ar           1 <1>                0.0000
     12 C12          2.7825 -15.5994  12.3308 C.ar           1 <1>                0.0000
     13 C13          1.7512 -16.0308  13.1466 C.ar           1 <1>                0.0000
     14 F14          2.0214 -16.5010  14.3840 F              1 <1>                0.0000
     15 C15          0.4406 -15.9806  12.6953 C.ar           1 <1>                0.0000
     16 F16         -0.5651 -16.4018  13.4931 F              1 <1>                0.0000
     17 C17          0.1628 -15.4942  11.4310 C.ar           1 <1>                0.0000
     18 H18          2.1414 -13.7845   6.7854 H              1 <1>                0.0000
     19 H19          2.4839 -13.1926   9.0422 H              1 <1>                0.0000
     20 H20          0.8530 -12.4743   9.1982 H              1 <1>                0.0000
     21 H21         -0.8778 -13.8793   7.0863 H              1 <1>                0.0000
     22 H22          0.2130 -15.0498   6.2801 H              1 <1>                0.0000
     23 H23          3.3144 -14.7824  10.4289 H              1 <1>                0.0000
     24 H24          3.8024 -15.6392  12.6840 H              1 <1>                0.0000
     25 H25         -0.8575 -15.4548  11.0791 H              1 <1>                0.0000
@<TRIPOS>BOND
    1    1    2 ar    
    2    2    3 ar    
    3    2    4 1     
    4    4    5 1     
    5    4    9 1     
    6    4   18 1     
    7    5    6 1     
    8    5   19 1     
    9    5   20 1     
   10    6    7 am    
   11    6   10 1     
   12    7    8 2     
   13    7    9 1     
   14    9   21 1     
   15    9   22 1     
   16   10   11 ar    
   17   10   17 ar    
   18   11   12 ar    
   19   11   23 1     
   20   12   13 ar    
   21   12   24 1     
   22   13   14 1     
   23   13   15 ar    
   24   15   16 1     
   25   15   17 ar    
   26   17   25 1     
@<TRIPOS>SUBSTRUCTURE
      1 ****           1
@<TRIPOS>COMMENT
> <Gold.Version>
2022.2.0

> <Gold.Id.Protein>
3pbl|protein|mol2

> <Gold.Protein.RotatedTorsions>
[ 1303 1298 1297 1294 ] final   12.23 input  179.99 | X-H torsion
[ 2461 2456 2455 2452 ] final -128.08 input   30.03 | X-H torsion
[ 2515 2510 2509 2506 ] final   -3.06 input  -89.99 | X-H torsion
[ 3721 3712 3711 3710 ] final  -71.16 input -179.91 | X-H torsion
[ 3841 3832 3831 3830 ] final  110.07 input -179.91 | X-H torsion
[ 3767 3762 3761 3758 ] final  -92.13 input  -89.99 | X-H torsion
[ 2472 2467 2466 2463 ] final   66.87 input  -89.97 | X-H torsion

> <Gold.Protein.ActiveResidues>
 VAL82   VAL86   LEU89   PHE106  VAL107  ASP110  VAL111  MET112  CYS114  THR115 
 CYS181  SER182  ILE183  PHE188  VAL189  ILE190  SER192  SER193  SER196  TRP342 
 PHE345  PHE346  HIS349  VAL350  TYR365  THR369  GLY372  TYR373 

> <Gold.Protein.RotatedAtoms>
    3.4651  -10.0194    4.1592 H   0  0  0  0  0  0  0  0  0  0  0  0  # atno 1303 bound_to 1298
    0.6699   -9.2219    8.1335 H   0  0  0  0  0  0  0  0  0  0  0  0  # atno 2461 bound_to 2456
   -4.7545   -4.8358    7.6698 H   0  0  0  0  0  0  0  0  0  0  0  0  # atno 2472 bound_to 2467
    2.5615   -7.6621    4.5760 H   0  0  0  0  0  0  0  0  0  0  0  0  # atno 2515 bound_to 2510
   -2.8837  -17.1847   14.7550 H   0  0  0  0  0  0  0  0  0  0  0  0  # atno 3721 bound_to 3712
   -5.2017  -21.9170   11.2383 H   0  0  0  0  0  0  0  0  0  0  0  0  # atno 3767 bound_to 3762
    3.0218  -20.8071    9.0496 H   0  0  0  0  0  0  0  0  0  0  0  0  # atno 3841 bound_to 3832
    4.0649   -8.5101    3.9897 LP  0  0  0  0  0  0  0  0  0  0  0  0  # atno 4297 bound_to 1298
    4.8324   -9.5916    4.9427 LP  0  0  0  0  0  0  0  0  0  0  0  0  # atno 4298 bound_to 1298
    2.1500   -8.5491    7.9780 LP  0  0  0  0  0  0  0  0  0  0  0  0  # atno 4299 bound_to 2456
    0.9177   -8.0374    7.0367 LP  0  0  0  0  0  0  0  0  0  0  0  0  # atno 4300 bound_to 2456
    2.6987   -9.2196    5.0463 LP  0  0  0  0  0  0  0  0  0  0  0  0  # atno 4301 bound_to 2510
    2.0364   -8.1178    6.0533 LP  0  0  0  0  0  0  0  0  0  0  0  0  # atno 4302 bound_to 2510
   -3.5083  -16.7400   13.3443 LP  0  0  0  0  0  0  0  0  0  0  0  0  # atno 4306 bound_to 3712
   -2.6901  -18.1463   13.4838 LP  0  0  0  0  0  0  0  0  0  0  0  0  # atno 4307 bound_to 3712
    1.4887  -20.4898    9.4032 LP  0  0  0  0  0  0  0  0  0  0  0  0  # atno 4314 bound_to 3832
    2.2500  -19.6801    8.2068 LP  0  0  0  0  0  0  0  0  0  0  0  0  # atno 4315 bound_to 3832
   -3.9148  -22.9219   11.2689 LP  0  0  0  0  0  0  0  0  0  0  0  0  # atno 4318 bound_to 3762
   -5.0111  -23.0358   10.0640 LP  0  0  0  0  0  0  0  0  0  0  0  0  # atno 4319 bound_to 3762
   -3.6846   -5.1475    8.8633 LP  0  0  0  0  0  0  0  0  0  0  0  0  # atno 4320 bound_to 2467
   -5.2779   -5.4102    9.1059 LP  0  0  0  0  0  0  0  0  0  0  0  0  # atno 4321 bound_to 2467

> <Gold.Score>
     Score     S(PLP)   S(hbond)     S(cho)   S(metal)  DE(clash)   DE(tors)     intcor
     47.31     -46.89       0.82       0.00       0.00       0.00       1.36       0.68

> <Gold.PLP.Fitness>
47.3093

> <Gold.PLP.PLP>
-46.8935

> <Gold.PLP.part.hbond>
-1.0000

> <Gold.PLP.part.metal>
0.0000

> <Gold.PLP.part.buried>
2.7845

> <Gold.PLP.part.nonpolar>
-49.3096

> <Gold.PLP.part.repulsive>
0.1632

> <Gold.PLP.ligand.clash>
0.0000

> <Gold.PLP.ligand.torsion>
1.3562

> <Gold.PLP.Chemscore.Hbond>
0.8160

> <Gold.PLP.Chemscore.CHOScore>
0.0000

> <Gold.PLP.Chemscore.Metal>
0.0000

> <Gold.Chemscore.Hbonds>
donor molecule, donor type, donor heavy atom, donor atom, acceptor molecule, acceptor atom, score
      P1  H  2456  2461       L1     1  0.82

> <Gold.PLP.Chemscore.Internal.Correction>
0.6802

