#       Name:                EN300-194291_i002
#       Creating user name   fsindt
#       Creation time:       Tue Feb 28 19:42:22 2023


#       File generated by GOLD software.
#

@<TRIPOS>MOLECULE
EN300-194291_i002|acide_2|mol2|6787|dock11
    25    26     1
SMALL
USER_CHARGES


@<TRIPOS>ATOM
      1 O1           1.0552 -18.7208  14.0246 O.co2          1 <1>               -1.0000
      2 C2           0.3207 -17.7559  14.1507 C.2            1 <1>                0.0000
      3 O3          -0.7015 -17.8497  14.8085 O.co2          1 <1>                0.0000
      4 C4           0.6794 -16.4455  13.4985 C.3            1 <1>                0.0000
      5 C5           0.6320 -16.5630  11.9589 C.3            1 <1>                0.0000
      6 N6           0.1136 -15.2748  11.4837 N.am           1 <1>                0.0000
      7 C7          -0.4799 -14.5909  12.4770 C.2            1 <1>                0.0000
      8 O8          -0.9986 -13.5012  12.3569 O.2            1 <1>                0.0000
      9 C9          -0.4067 -15.3782  13.7668 C.3            1 <1>                0.0000
     10 C10          0.2227 -14.8173  10.1648 C.ar           1 <1>                0.0000
     11 C11          0.1747 -15.7190   9.1103 C.ar           1 <1>                0.0000
     12 C12          0.2820 -15.2667   7.8092 C.ar           1 <1>                0.0000
     13 C13          0.4378 -13.9152   7.5555 C.ar           1 <1>                0.0000
     14 F14          0.5425 -13.4753   6.2824 F              1 <1>                0.0000
     15 C15          0.4861 -13.0118   8.6070 C.ar           1 <1>                0.0000
     16 F16          0.6377 -11.6926   8.3576 F              1 <1>                0.0000
     17 C17          0.3733 -13.4607   9.9100 C.ar           1 <1>                0.0000
     18 H18          1.6576 -16.1003  13.8334 H              1 <1>                0.0000
     19 H19          1.6326 -16.7362  11.5628 H              1 <1>                0.0000
     20 H20         -0.0368 -17.3712  11.6627 H              1 <1>                0.0000
     21 H21         -1.3645 -15.8535  13.9785 H              1 <1>                0.0000
     22 H22         -0.1100 -14.7312  14.5924 H              1 <1>                0.0000
     23 H23          0.0539 -16.7740   9.3070 H              1 <1>                0.0000
     24 H24          0.2446 -15.9686   6.9892 H              1 <1>                0.0000
     25 H25          0.4108 -12.7578  10.7291 H              1 <1>                0.0000
@<TRIPOS>BOND
    1    1    2 ar    
    2    2    3 ar    
    3    2    4 1     
    4    4    5 1     
    5    4    9 1     
    6    4   18 1     
    7    5    6 1     
    8    5   19 1     
    9    5   20 1     
   10    6    7 am    
   11    6   10 1     
   12    7    8 2     
   13    7    9 1     
   14    9   21 1     
   15    9   22 1     
   16   10   11 ar    
   17   10   17 ar    
   18   11   12 ar    
   19   11   23 1     
   20   12   13 ar    
   21   12   24 1     
   22   13   14 1     
   23   13   15 ar    
   24   15   16 1     
   25   15   17 ar    
   26   17   25 1     
@<TRIPOS>SUBSTRUCTURE
      1 ****           1
@<TRIPOS>COMMENT
> <Gold.Version>
2022.2.0

> <Gold.Id.Protein>
3pbl|protein|mol2

> <Gold.Protein.RotatedTorsions>
[ 1303 1298 1297 1294 ] final -178.10 input  179.99 | X-H torsion
[ 2461 2456 2455 2452 ] final   60.49 input   30.03 | X-H torsion
[ 2515 2510 2509 2506 ] final -161.83 input  -89.99 | X-H torsion
[ 3721 3712 3711 3710 ] final  -13.30 input -179.91 | X-H torsion
[ 3841 3832 3831 3830 ] final  -15.11 input -179.91 | X-H torsion
[ 3767 3762 3761 3758 ] final  123.37 input  -89.99 | X-H torsion
[ 2472 2467 2466 2463 ] final  160.97 input  -89.97 | X-H torsion

> <Gold.Protein.ActiveResidues>
 VAL82   VAL86   LEU89   PHE106  VAL107  ASP110  VAL111  MET112  CYS114  THR115 
 CYS181  SER182  ILE183  PHE188  VAL189  ILE190  SER192  SER193  SER196  TRP342 
 PHE345  PHE346  HIS349  VAL350  TYR365  THR369  GLY372  TYR373 

> <Gold.Protein.RotatedAtoms>
    4.8448   -8.8504    4.6643 H   0  0  0  0  0  0  0  0  0  0  0  0  # atno 1303 bound_to 1298
    1.9215   -8.0345    7.3843 H   0  0  0  0  0  0  0  0  0  0  0  0  # atno 2461 bound_to 2456
   -5.4768   -5.3041    8.7486 H   0  0  0  0  0  0  0  0  0  0  0  0  # atno 2472 bound_to 2467
    2.4504   -9.1887    5.6198 H   0  0  0  0  0  0  0  0  0  0  0  0  # atno 2515 bound_to 2510
   -2.5258  -17.8620   14.4149 H   0  0  0  0  0  0  0  0  0  0  0  0  # atno 3721 bound_to 3712
   -3.9400  -23.1626   10.9502 H   0  0  0  0  0  0  0  0  0  0  0  0  # atno 3767 bound_to 3762
    1.6288  -20.3089    9.4661 H   0  0  0  0  0  0  0  0  0  0  0  0  # atno 3841 bound_to 3832
    4.0343  -10.2678    4.6505 LP  0  0  0  0  0  0  0  0  0  0  0  0  # atno 4297 bound_to 1298
    3.4828   -9.0033    3.7766 LP  0  0  0  0  0  0  0  0  0  0  0  0  # atno 4298 bound_to 1298
    0.3733   -8.5539    7.3626 LP  0  0  0  0  0  0  0  0  0  0  0  0  # atno 4299 bound_to 2456
    1.4432   -9.2196    8.4012 LP  0  0  0  0  0  0  0  0  0  0  0  0  # atno 4300 bound_to 2456
    2.0739   -7.6020    5.7006 LP  0  0  0  0  0  0  0  0  0  0  0  0  # atno 4301 bound_to 2510
    2.7724   -8.2080    4.3547 LP  0  0  0  0  0  0  0  0  0  0  0  0  # atno 4302 bound_to 2510
   -3.5069  -16.6004   14.2601 LP  0  0  0  0  0  0  0  0  0  0  0  0  # atno 4306 bound_to 3712
   -3.1047  -17.5039   12.9607 LP  0  0  0  0  0  0  0  0  0  0  0  0  # atno 4307 bound_to 3712
    2.3731  -19.7242    8.1700 LP  0  0  0  0  0  0  0  0  0  0  0  0  # atno 4314 bound_to 3832
    2.9747  -21.0213    8.9589 LP  0  0  0  0  0  0  0  0  0  0  0  0  # atno 4315 bound_to 3832
   -5.2920  -22.7585   10.1281 LP  0  0  0  0  0  0  0  0  0  0  0  0  # atno 4318 bound_to 3762
   -4.8951  -21.9542   11.4928 LP  0  0  0  0  0  0  0  0  0  0  0  0  # atno 4319 bound_to 3762
   -4.3345   -4.7986    7.6969 LP  0  0  0  0  0  0  0  0  0  0  0  0  # atno 4320 bound_to 2467
   -3.9058   -5.2909    9.1937 LP  0  0  0  0  0  0  0  0  0  0  0  0  # atno 4321 bound_to 2467

> <Gold.Score>
     Score     S(PLP)   S(hbond)     S(cho)   S(metal)  DE(clash)   DE(tors)     intcor
     46.18     -43.50       1.00       0.00       0.00       0.00       0.50       0.68

> <Gold.PLP.Fitness>
46.1828

> <Gold.PLP.PLP>
-43.5026

> <Gold.PLP.part.hbond>
-2.0000

> <Gold.PLP.part.metal>
0.0000

> <Gold.PLP.part.buried>
-0.9274

> <Gold.PLP.part.nonpolar>
-40.8203

> <Gold.PLP.part.repulsive>
0.1591

> <Gold.PLP.ligand.clash>
0.0000

> <Gold.PLP.ligand.torsion>
0.5000

> <Gold.PLP.Chemscore.Hbond>
1.0000

> <Gold.PLP.Chemscore.CHOScore>
0.0000

> <Gold.PLP.Chemscore.Metal>
0.0000

> <Gold.Chemscore.Hbonds>
donor molecule, donor type, donor heavy atom, donor atom, acceptor molecule, acceptor atom, score
      P1  H  3712  3721       L1     3  1.00

> <Gold.PLP.Chemscore.Internal.Correction>
0.6802

