#       Name:                EN300-194291_i002
#       Creating user name   fsindt
#       Creation time:       Tue Feb 28 19:42:23 2023


#       File generated by GOLD software.
#

@<TRIPOS>MOLECULE
EN300-194291_i002|acide_2|mol2|6787|dock13
    25    26     1
SMALL
USER_CHARGES


@<TRIPOS>ATOM
      1 O1           1.5849 -17.9659  13.5861 O.co2          1 <1>               -1.0000
      2 C2           0.6432 -17.1940  13.6492 C.2            1 <1>                0.0000
      3 O3          -0.4215 -17.5679  14.1108 O.co2          1 <1>                0.0000
      4 C4           0.7972 -15.7762  13.1623 C.3            1 <1>                0.0000
      5 C5           1.0164 -15.7373  11.6337 C.3            1 <1>                0.0000
      6 N6           0.3037 -14.5425  11.1662 N.am           1 <1>                0.0000
      7 C7          -0.5740 -14.1064  12.0861 C.2            1 <1>                0.0000
      8 O8          -1.2978 -13.1422  11.9535 O.2            1 <1>                0.0000
      9 C9          -0.5278 -14.9932  13.3109 C.3            1 <1>                0.0000
     10 C10          0.5111 -13.9353   9.9216 C.ar           1 <1>                0.0000
     11 C11          0.5196 -12.5510   9.8166 C.ar           1 <1>                0.0000
     12 C12          0.7248 -11.9526   8.5882 C.ar           1 <1>                0.0000
     13 C13          0.9213 -12.7319   7.4616 C.ar           1 <1>                0.0000
     14 F14          1.1217 -12.1445   6.2615 F              1 <1>                0.0000
     15 C15          0.9132 -14.1152   7.5632 C.ar           1 <1>                0.0000
     16 F16          1.1057 -14.8745   6.4624 F              1 <1>                0.0000
     17 C17          0.7139 -14.7171   8.7921 C.ar           1 <1>                0.0000
     18 H18          1.6096 -15.2722  13.6859 H              1 <1>                0.0000
     19 H19          2.0794 -15.6552  11.4071 H              1 <1>                0.0000
     20 H20          0.5990 -16.6311  11.1699 H              1 <1>                0.0000
     21 H21         -1.3764 -15.6773  13.3188 H              1 <1>                0.0000
     22 H22         -0.5147 -14.3897  14.2185 H              1 <1>                0.0000
     23 H23          0.3657 -11.9419  10.6950 H              1 <1>                0.0000
     24 H24          0.7314 -10.8757   8.5071 H              1 <1>                0.0000
     25 H25          0.7076 -15.7941   8.8719 H              1 <1>                0.0000
@<TRIPOS>BOND
    1    1    2 ar    
    2    2    3 ar    
    3    2    4 1     
    4    4    5 1     
    5    4    9 1     
    6    4   18 1     
    7    5    6 1     
    8    5   19 1     
    9    5   20 1     
   10    6    7 am    
   11    6   10 1     
   12    7    8 2     
   13    7    9 1     
   14    9   21 1     
   15    9   22 1     
   16   10   11 ar    
   17   10   17 ar    
   18   11   12 ar    
   19   11   23 1     
   20   12   13 ar    
   21   12   24 1     
   22   13   14 1     
   23   13   15 ar    
   24   15   16 1     
   25   15   17 ar    
   26   17   25 1     
@<TRIPOS>SUBSTRUCTURE
      1 ****           1
@<TRIPOS>COMMENT
> <Gold.Version>
2022.2.0

> <Gold.Id.Protein>
3pbl|protein|mol2

> <Gold.Protein.RotatedTorsions>
[ 1303 1298 1297 1294 ] final   75.81 input  179.99 | X-H torsion
[ 2461 2456 2455 2452 ] final   73.44 input   30.03 | X-H torsion
[ 2515 2510 2509 2506 ] final   95.22 input  -89.99 | X-H torsion
[ 3721 3712 3711 3710 ] final    4.46 input -179.91 | X-H torsion
[ 3841 3832 3831 3830 ] final   -0.92 input -179.91 | X-H torsion
[ 3767 3762 3761 3758 ] final   -7.78 input  -89.99 | X-H torsion
[ 2472 2467 2466 2463 ] final  -43.59 input  -89.97 | X-H torsion

> <Gold.Protein.ActiveResidues>
 VAL82   VAL86   LEU89   PHE106  VAL107  ASP110  VAL111  MET112  CYS114  THR115 
 CYS181  SER182  ILE183  PHE188  VAL189  ILE190  SER192  SER193  SER196  TRP342 
 PHE345  PHE346  HIS349  VAL350  TYR365  THR369  GLY372  TYR373 

> <Gold.Protein.RotatedAtoms>
    4.2257  -10.2200    4.7656 H   0  0  0  0  0  0  0  0  0  0  0  0  # atno 1303 bound_to 1298
    2.0429   -8.1351    7.5272 H   0  0  0  0  0  0  0  0  0  0  0  0  # atno 2461 bound_to 2456
   -3.6467   -5.0929    8.7214 H   0  0  0  0  0  0  0  0  0  0  0  0  # atno 2472 bound_to 2467
    2.0354   -7.8004    5.8937 H   0  0  0  0  0  0  0  0  0  0  0  0  # atno 2515 bound_to 2510
   -2.4788  -17.9805   14.1799 H   0  0  0  0  0  0  0  0  0  0  0  0  # atno 3721 bound_to 3712
   -5.3873  -22.6205   10.2019 H   0  0  0  0  0  0  0  0  0  0  0  0  # atno 3767 bound_to 3762
    1.7289  -20.4762    9.5540 H   0  0  0  0  0  0  0  0  0  0  0  0  # atno 3841 bound_to 3832
    3.3891   -9.2108    3.7920 LP  0  0  0  0  0  0  0  0  0  0  0  0  # atno 4297 bound_to 1298
    4.7474   -8.6902    4.5339 LP  0  0  0  0  0  0  0  0  0  0  0  0  # atno 4298 bound_to 1298
    0.4573   -8.4018    7.2400 LP  0  0  0  0  0  0  0  0  0  0  0  0  # atno 4299 bound_to 2456
    1.2378   -9.2711    8.3809 LP  0  0  0  0  0  0  0  0  0  0  0  0  # atno 4300 bound_to 2456
    2.6938   -7.9449    4.4066 LP  0  0  0  0  0  0  0  0  0  0  0  0  # atno 4301 bound_to 2510
    2.5677   -9.2540    5.3746 LP  0  0  0  0  0  0  0  0  0  0  0  0  # atno 4302 bound_to 2510
   -3.4156  -16.7202   14.5144 LP  0  0  0  0  0  0  0  0  0  0  0  0  # atno 4306 bound_to 3712
   -3.2502  -17.2473   12.9777 LP  0  0  0  0  0  0  0  0  0  0  0  0  # atno 4307 bound_to 3712
    2.1584  -19.6567    8.2425 LP  0  0  0  0  0  0  0  0  0  0  0  0  # atno 4314 bound_to 3832
    3.0738  -20.8955    8.7849 LP  0  0  0  0  0  0  0  0  0  0  0  0  # atno 4315 bound_to 3832
   -4.7409  -22.0119   11.5725 LP  0  0  0  0  0  0  0  0  0  0  0  0  # atno 4318 bound_to 3762
   -3.9994  -23.2426   10.7964 LP  0  0  0  0  0  0  0  0  0  0  0  0  # atno 4319 bound_to 3762
   -5.1657   -5.4362    9.2124 LP  0  0  0  0  0  0  0  0  0  0  0  0  # atno 4320 bound_to 2467
   -4.9044   -4.8643    7.7054 LP  0  0  0  0  0  0  0  0  0  0  0  0  # atno 4321 bound_to 2467

> <Gold.Score>
     Score     S(PLP)   S(hbond)     S(cho)   S(metal)  DE(clash)   DE(tors)     intcor
     48.82     -47.13       0.77       0.00       0.00       0.00       0.65       0.68

> <Gold.PLP.Fitness>
48.8162

> <Gold.PLP.PLP>
-47.1250

> <Gold.PLP.part.hbond>
-2.0000

> <Gold.PLP.part.metal>
0.0000

> <Gold.PLP.part.buried>
-3.3614

> <Gold.PLP.part.nonpolar>
-42.6579

> <Gold.PLP.part.repulsive>
0.1618

> <Gold.PLP.ligand.clash>
0.0000

> <Gold.PLP.ligand.torsion>
0.6465

> <Gold.PLP.Chemscore.Hbond>
0.7680

> <Gold.PLP.Chemscore.CHOScore>
0.0000

> <Gold.PLP.Chemscore.Metal>
0.0000

> <Gold.Chemscore.Hbonds>
donor molecule, donor type, donor heavy atom, donor atom, acceptor molecule, acceptor atom, score
      P1  H  3712  3721       L1     3  0.77

> <Gold.PLP.Chemscore.Internal.Correction>
0.6802

