#       Name:                EN300-194291_i002
#       Creating user name   fsindt
#       Creation time:       Tue Feb 28 19:42:19 2023


#       File generated by GOLD software.
#

@<TRIPOS>MOLECULE
EN300-194291_i002|acide_2|mol2|6787|dock3
    25    26     1
SMALL
USER_CHARGES


@<TRIPOS>ATOM
      1 O1           1.4003 -13.0231   6.8988 O.co2          1 <1>               -1.0000
      2 C2           0.7098 -12.5428   7.7814 C.2            1 <1>                0.0000
      3 O3           0.5653 -11.3343   7.8527 O.co2          1 <1>                0.0000
      4 C4           0.0302 -13.4432   8.7806 C.3            1 <1>                0.0000
      5 C5           1.0676 -14.2436   9.5988 C.3            1 <1>                0.0000
      6 N6           0.5127 -14.3326  10.9546 N.am           1 <1>                0.0000
      7 C7          -0.4618 -13.4264  11.1438 C.2            1 <1>                0.0000
      8 O8          -1.0831 -13.2793  12.1750 O.2            1 <1>                0.0000
      9 C9          -0.6711 -12.6165   9.8832 C.3            1 <1>                0.0000
     10 C10          0.9436 -15.2440  11.9264 C.ar           1 <1>                0.0000
     11 C11          2.2439 -15.7292  11.8961 C.ar           1 <1>                0.0000
     12 C12          2.6684 -16.6281  12.8556 C.ar           1 <1>                0.0000
     13 C13          1.7983 -17.0462  13.8473 C.ar           1 <1>                0.0000
     14 F14          2.2157 -17.9253  14.7844 F              1 <1>                0.0000
     15 C15          0.4985 -16.5633  13.8802 C.ar           1 <1>                0.0000
     16 F16         -0.3496 -16.9720  14.8493 F              1 <1>                0.0000
     17 C17          0.0723 -15.6591  12.9247 C.ar           1 <1>                0.0000
     18 H18         -0.6747 -14.1107   8.2849 H              1 <1>                0.0000
     19 H19          1.1931 -15.2406   9.1765 H              1 <1>                0.0000
     20 H20          2.0220 -13.7174   9.6156 H              1 <1>                0.0000
     21 H21         -0.2058 -11.6354   9.9784 H              1 <1>                0.0000
     22 H22         -1.7346 -12.5160   9.6664 H              1 <1>                0.0000
     23 H23          2.9236 -15.4042  11.1223 H              1 <1>                0.0000
     24 H24          3.6801 -17.0052  12.8316 H              1 <1>                0.0000
     25 H25         -0.9397 -15.2827  12.9499 H              1 <1>                0.0000
@<TRIPOS>BOND
    1    1    2 ar    
    2    2    3 ar    
    3    2    4 1     
    4    4    5 1     
    5    4    9 1     
    6    4   18 1     
    7    5    6 1     
    8    5   19 1     
    9    5   20 1     
   10    6    7 am    
   11    6   10 1     
   12    7    8 2     
   13    7    9 1     
   14    9   21 1     
   15    9   22 1     
   16   10   11 ar    
   17   10   17 ar    
   18   11   12 ar    
   19   11   23 1     
   20   12   13 ar    
   21   12   24 1     
   22   13   14 1     
   23   13   15 ar    
   24   15   16 1     
   25   15   17 ar    
   26   17   25 1     
@<TRIPOS>SUBSTRUCTURE
      1 ****           1
@<TRIPOS>COMMENT
> <Gold.Version>
2022.2.0

> <Gold.Id.Protein>
3pbl|protein|mol2

> <Gold.Protein.RotatedTorsions>
[ 1303 1298 1297 1294 ] final -112.68 input  179.99 | X-H torsion
[ 2461 2456 2455 2452 ] final -136.97 input   30.03 | X-H torsion
[ 2515 2510 2509 2506 ] final  125.94 input  -89.99 | X-H torsion
[ 3721 3712 3711 3710 ] final   42.74 input -179.91 | X-H torsion
[ 3841 3832 3831 3830 ] final  137.56 input -179.91 | X-H torsion
[ 3767 3762 3761 3758 ] final  -31.10 input  -89.99 | X-H torsion
[ 2472 2467 2466 2463 ] final   81.26 input  -89.97 | X-H torsion

> <Gold.Protein.ActiveResidues>
 VAL82   VAL86   LEU89   PHE106  VAL107  ASP110  VAL111  MET112  CYS114  THR115 
 CYS181  SER182  ILE183  PHE188  VAL189  ILE190  SER192  SER193  SER196  TRP342 
 PHE345  PHE346  HIS349  VAL350  TYR365  THR369  GLY372  TYR373 

> <Gold.Protein.RotatedAtoms>
    4.1323   -8.4923    4.0302 H   0  0  0  0  0  0  0  0  0  0  0  0  # atno 1303 bound_to 1298
    0.7868   -9.2601    8.2125 H   0  0  0  0  0  0  0  0  0  0  0  0  # atno 2461 bound_to 2456
   -4.9774   -4.8828    7.7321 H   0  0  0  0  0  0  0  0  0  0  0  0  # atno 2472 bound_to 2467
    2.0540   -8.2611    6.0853 H   0  0  0  0  0  0  0  0  0  0  0  0  # atno 2515 bound_to 2510
   -2.5160  -18.0035   13.6135 H   0  0  0  0  0  0  0  0  0  0  0  0  # atno 3721 bound_to 3712
   -5.5014  -22.3395   10.4328 H   0  0  0  0  0  0  0  0  0  0  0  0  # atno 3767 bound_to 3762
    3.1319  -20.5481    8.7496 H   0  0  0  0  0  0  0  0  0  0  0  0  # atno 3841 bound_to 3832
    4.8001   -9.6654    4.9489 LP  0  0  0  0  0  0  0  0  0  0  0  0  # atno 4297 bound_to 1298
    3.4298   -9.9640    4.1125 LP  0  0  0  0  0  0  0  0  0  0  0  0  # atno 4298 bound_to 1298
    2.1612   -8.4441    7.8771 LP  0  0  0  0  0  0  0  0  0  0  0  0  # atno 4299 bound_to 2456
    0.7896   -8.1042    7.0587 LP  0  0  0  0  0  0  0  0  0  0  0  0  # atno 4300 bound_to 2456
    2.5000   -7.5706    4.6746 LP  0  0  0  0  0  0  0  0  0  0  0  0  # atno 4301 bound_to 2510
    2.7429   -9.1675    4.9150 LP  0  0  0  0  0  0  0  0  0  0  0  0  # atno 4302 bound_to 2510
   -3.1278  -17.1715   14.8428 LP  0  0  0  0  0  0  0  0  0  0  0  0  # atno 4306 bound_to 3712
   -3.4951  -16.7694   13.3033 LP  0  0  0  0  0  0  0  0  0  0  0  0  # atno 4307 bound_to 3712
    1.7617  -20.8282    9.5371 LP  0  0  0  0  0  0  0  0  0  0  0  0  # atno 4314 bound_to 3832
    1.8498  -19.6409    8.4195 LP  0  0  0  0  0  0  0  0  0  0  0  0  # atno 4315 bound_to 3832
   -4.4210  -22.2041   11.6499 LP  0  0  0  0  0  0  0  0  0  0  0  0  # atno 4318 bound_to 3762
   -4.2053  -23.3314   10.4882 LP  0  0  0  0  0  0  0  0  0  0  0  0  # atno 4319 bound_to 3762
   -3.6373   -5.0644    8.6473 LP  0  0  0  0  0  0  0  0  0  0  0  0  # atno 4320 bound_to 2467
   -5.1023   -5.4463    9.2596 LP  0  0  0  0  0  0  0  0  0  0  0  0  # atno 4321 bound_to 2467

> <Gold.Score>
     Score     S(PLP)   S(hbond)     S(cho)   S(metal)  DE(clash)   DE(tors)     intcor
     50.76     -47.93       0.95       0.00       0.00       0.01       0.35       0.68

> <Gold.PLP.Fitness>
50.7567

> <Gold.PLP.PLP>
-47.9293

> <Gold.PLP.part.hbond>
-2.0000

> <Gold.PLP.part.metal>
0.0000

> <Gold.PLP.part.buried>
-1.4599

> <Gold.PLP.part.nonpolar>
-47.0206

> <Gold.PLP.part.repulsive>
0.2095

> <Gold.PLP.ligand.clash>
0.0120

> <Gold.PLP.ligand.torsion>
0.3469

> <Gold.PLP.Chemscore.Hbond>
0.9511

> <Gold.PLP.Chemscore.CHOScore>
0.0000

> <Gold.PLP.Chemscore.Metal>
0.0000

> <Gold.Chemscore.Hbonds>
donor molecule, donor type, donor heavy atom, donor atom, acceptor molecule, acceptor atom, score
      P1  H  2456  2461       L1     3  0.95

> <Gold.PLP.Chemscore.Internal.Correction>
0.6802

