#       Name:                EN300-194291_i002
#       Creating user name   fsindt
#       Creation time:       Tue Feb 28 19:42:18 2023


#       File generated by GOLD software.
#

@<TRIPOS>MOLECULE
EN300-194291_i002
    25    26     1
SMALL
USER_CHARGES


@<TRIPOS>ATOM
      1 O1          -4.8575   0.5535  -0.4047 O.co2          1 <1>               -1.0000
      2 C2          -3.8092   0.4420   0.2078 C.2            1 <1>                0.0000
      3 O3          -3.7608   0.7318   1.3911 O.co2          1 <1>                0.0000
      4 C4          -2.5748  -0.0597  -0.4962 C.3            1 <1>                0.0000
      5 C5          -1.3227   0.7227  -0.0418 C.3            1 <1>                0.0000
      6 N6          -0.2360  -0.2632  -0.0076 N.am           1 <1>                0.0000
      7 C7          -0.7158  -1.5188  -0.0043 C.2            1 <1>                0.0000
      8 O8          -0.0355  -2.5224   0.0284 O.2            1 <1>                0.0000
      9 C9          -2.2279  -1.4981  -0.0474 C.3            1 <1>                0.0000
     10 C10          1.1256   0.0624   0.0188 C.ar           1 <1>                0.0000
     11 C11          1.5262   1.3857  -0.1063 C.ar           1 <1>                0.0000
     12 C12          2.8699   1.7062  -0.0797 C.ar           1 <1>                0.0000
     13 C13          3.8177   0.7091   0.0711 C.ar           1 <1>                0.0000
     14 F14          5.1310   1.0249   0.0968 F              1 <1>                0.0000
     15 C15          3.4206  -0.6140   0.1963 C.ar           1 <1>                0.0000
     16 F16          4.3471  -1.5862   0.3439 F              1 <1>                0.0000
     17 C17          2.0763  -0.9374   0.1758 C.ar           1 <1>                0.0000
     18 H18         -2.6966  -0.0067  -1.5781 H              1 <1>                0.0000
     19 H19         -1.0923   1.5134  -0.7558 H              1 <1>                0.0000
     20 H20         -1.4810   1.1442   0.9509 H              1 <1>                0.0000
     21 H21         -2.6405  -1.6992   0.9413 H              1 <1>                0.0000
     22 H22         -2.5989  -2.2236  -0.7714 H              1 <1>                0.0000
     23 H23          0.7875   2.1646  -0.2247 H              1 <1>                0.0000
     24 H24          3.1810   2.7358  -0.1770 H              1 <1>                0.0000
     25 H25          1.7665  -1.9674   0.2733 H              1 <1>                0.0000
@<TRIPOS>BOND
    1    1    2 ar    
    2    2    3 ar    
    3    2    4 1     
    4    4    5 1     
    5    4    9 1     
    6    4   18 1     
    7    5    6 1     
    8    5   19 1     
    9    5   20 1     
   10    6    7 am    
   11    6   10 1     
   12    7    8 2     
   13    7    9 1     
   14    9   21 1     
   15    9   22 1     
   16   10   11 ar    
   17   10   17 ar    
   18   11   12 ar    
   19   11   23 1     
   20   12   13 ar    
   21   12   24 1     
   22   13   14 1     
   23   13   15 ar    
   24   15   16 1     
   25   15   17 ar    
   26   17   25 1     
@<TRIPOS>SUBSTRUCTURE
      1 ****           1
