#       Name:                EN300-194291_i002
#       Creating user name   fsindt
#       Creation time:       Tue Feb 28 19:42:20 2023


#       File generated by GOLD software.
#

@<TRIPOS>MOLECULE
EN300-194291_i002|acide_2|mol2|6787|dock4
    25    26     1
SMALL
USER_CHARGES


@<TRIPOS>ATOM
      1 O1           1.3282 -20.6226  11.5935 O.co2          1 <1>               -1.0000
      2 C2           1.1471 -19.9968  12.6240 C.2            1 <1>                0.0000
      3 O3           0.6522 -20.5475  13.5927 O.co2          1 <1>                0.0000
      4 C4           1.5406 -18.5442  12.7026 C.3            1 <1>                0.0000
      5 C5           0.7538 -17.7019  11.6739 C.3            1 <1>                0.0000
      6 N6           0.4912 -16.4192  12.3371 N.am           1 <1>                0.0000
      7 C7           0.6622 -16.5131  13.6670 C.2            1 <1>                0.0000
      8 O8           0.5035 -15.6038  14.4538 O.2            1 <1>                0.0000
      9 C9           1.0816 -17.9181  14.0398 C.3            1 <1>                0.0000
     10 C10          0.1107 -15.2483  11.6702 C.ar           1 <1>                0.0000
     11 C11         -0.6714 -14.3022  12.3185 C.ar           1 <1>                0.0000
     12 C12         -1.0461 -13.1468  11.6599 C.ar           1 <1>                0.0000
     13 C13         -0.6429 -12.9316  10.3536 C.ar           1 <1>                0.0000
     14 F14         -1.0104 -11.8012   9.7116 F              1 <1>                0.0000
     15 C15          0.1386 -13.8751   9.7031 C.ar           1 <1>                0.0000
     16 F16          0.5318 -13.6632   8.4280 F              1 <1>                0.0000
     17 C17          0.5200 -15.0297  10.3614 C.ar           1 <1>                0.0000
     18 H18          2.6152 -18.4252  12.5640 H              1 <1>                0.0000
     19 H19          1.3526 -17.5469  10.7765 H              1 <1>                0.0000
     20 H20         -0.1848 -18.1952  11.4215 H              1 <1>                0.0000
     21 H21          0.2374 -18.4719  14.4505 H              1 <1>                0.0000
     22 H22          1.9061 -17.8937  14.7525 H              1 <1>                0.0000
     23 H23         -0.9873 -14.4694  13.3377 H              1 <1>                0.0000
     24 H24         -1.6545 -12.4111  12.1647 H              1 <1>                0.0000
     25 H25          1.1285 -15.7647   9.8555 H              1 <1>                0.0000
@<TRIPOS>BOND
    1    1    2 ar    
    2    2    3 ar    
    3    2    4 1     
    4    4    5 1     
    5    4    9 1     
    6    4   18 1     
    7    5    6 1     
    8    5   19 1     
    9    5   20 1     
   10    6    7 am    
   11    6   10 1     
   12    7    8 2     
   13    7    9 1     
   14    9   21 1     
   15    9   22 1     
   16   10   11 ar    
   17   10   17 ar    
   18   11   12 ar    
   19   11   23 1     
   20   12   13 ar    
   21   12   24 1     
   22   13   14 1     
   23   13   15 ar    
   24   15   16 1     
   25   15   17 ar    
   26   17   25 1     
@<TRIPOS>SUBSTRUCTURE
      1 ****           1
@<TRIPOS>COMMENT
> <Gold.Version>
2022.2.0

> <Gold.Id.Protein>
3pbl|protein|mol2

> <Gold.Protein.RotatedTorsions>
[ 1303 1298 1297 1294 ] final -176.67 input  179.99 | X-H torsion
[ 2461 2456 2455 2452 ] final  -56.65 input   30.03 | X-H torsion
[ 2515 2510 2509 2506 ] final -126.21 input  -89.99 | X-H torsion
[ 3721 3712 3711 3710 ] final  -36.99 input -179.91 | X-H torsion
[ 3841 3832 3831 3830 ] final   26.40 input -179.91 | X-H torsion
[ 3767 3762 3761 3758 ] final -140.41 input  -89.99 | X-H torsion
[ 2472 2467 2466 2463 ] final   54.73 input  -89.97 | X-H torsion

> <Gold.Protein.ActiveResidues>
 VAL82   VAL86   LEU89   PHE106  VAL107  ASP110  VAL111  MET112  CYS114  THR115 
 CYS181  SER182  ILE183  PHE188  VAL189  ILE190  SER192  SER193  SER196  TRP342 
 PHE345  PHE346  HIS349  VAL350  TYR365  THR369  GLY372  TYR373 

> <Gold.Protein.RotatedAtoms>
    4.8366   -8.8323    4.6516 H   0  0  0  0  0  0  0  0  0  0  0  0  # atno 1303 bound_to 1298
    0.3879   -8.5197    7.3336 H   0  0  0  0  0  0  0  0  0  0  0  0  # atno 2461 bound_to 2456
   -4.5569   -4.8105    7.6599 H   0  0  0  0  0  0  0  0  0  0  0  0  # atno 2472 bound_to 2467
    2.6818   -9.2323    5.0935 H   0  0  0  0  0  0  0  0  0  0  0  0  # atno 2515 bound_to 2510
   -2.6434  -17.6205   14.6480 H   0  0  0  0  0  0  0  0  0  0  0  0  # atno 3721 bound_to 3712
   -4.5643  -22.1047   11.6300 H   0  0  0  0  0  0  0  0  0  0  0  0  # atno 3767 bound_to 3762
    2.0205  -20.7544    9.6225 H   0  0  0  0  0  0  0  0  0  0  0  0  # atno 3841 bound_to 3832
    4.0539  -10.2653    4.6632 LP  0  0  0  0  0  0  0  0  0  0  0  0  # atno 4297 bound_to 1298
    3.4713   -9.0239    3.7766 LP  0  0  0  0  0  0  0  0  0  0  0  0  # atno 4298 bound_to 1298
    1.3983   -9.2338    8.3997 LP  0  0  0  0  0  0  0  0  0  0  0  0  # atno 4299 bound_to 2456
    1.9514   -8.0546    7.4147 LP  0  0  0  0  0  0  0  0  0  0  0  0  # atno 4300 bound_to 2456
    2.0326   -8.0686    6.0371 LP  0  0  0  0  0  0  0  0  0  0  0  0  # atno 4301 bound_to 2510
    2.5822   -7.6978    4.5447 LP  0  0  0  0  0  0  0  0  0  0  0  0  # atno 4302 bound_to 2510
   -3.5654  -16.5582   13.8738 LP  0  0  0  0  0  0  0  0  0  0  0  0  # atno 4306 bound_to 3712
   -2.9104  -17.8249   13.0780 LP  0  0  0  0  0  0  0  0  0  0  0  0  # atno 4307 bound_to 3712
    1.7734  -19.6550    8.4795 LP  0  0  0  0  0  0  0  0  0  0  0  0  # atno 4314 bound_to 3832
    3.1220  -20.5758    8.4688 LP  0  0  0  0  0  0  0  0  0  0  0  0  # atno 4315 bound_to 3832
   -4.0982  -23.3046   10.6250 LP  0  0  0  0  0  0  0  0  0  0  0  0  # atno 4318 bound_to 3762
   -5.4648  -22.4656   10.3164 LP  0  0  0  0  0  0  0  0  0  0  0  0  # atno 4319 bound_to 3762
   -3.7680   -5.2169    9.0306 LP  0  0  0  0  0  0  0  0  0  0  0  0  # atno 4320 bound_to 2467
   -5.3920   -5.3660    8.9485 LP  0  0  0  0  0  0  0  0  0  0  0  0  # atno 4321 bound_to 2467

> <Gold.Score>
     Score     S(PLP)   S(hbond)     S(cho)   S(metal)  DE(clash)   DE(tors)     intcor
     46.89     -41.01       2.00       0.00       0.00       0.00       0.40       0.68

> <Gold.PLP.Fitness>
46.8923

> <Gold.PLP.PLP>
-41.0053

> <Gold.PLP.part.hbond>
-2.0000

> <Gold.PLP.part.metal>
0.0000

> <Gold.PLP.part.buried>
-2.3689

> <Gold.PLP.part.nonpolar>
-37.9929

> <Gold.PLP.part.repulsive>
0.1242

> <Gold.PLP.ligand.clash>
0.0000

> <Gold.PLP.ligand.torsion>
0.3966

> <Gold.PLP.Chemscore.Hbond>
2.0000

> <Gold.PLP.Chemscore.CHOScore>
0.0000

> <Gold.PLP.Chemscore.Metal>
0.0000

> <Gold.Chemscore.Hbonds>
donor molecule, donor type, donor heavy atom, donor atom, acceptor molecule, acceptor atom, score
      P1  H  2305  2313       L1     8  1.00
      P1  H  3832  3841       L1     1  1.00

> <Gold.PLP.Chemscore.Internal.Correction>
0.6802

