#       Name:                EN300-194291_i002
#       Creating user name   fsindt
#       Creation time:       Tue Feb 28 19:42:21 2023


#       File generated by GOLD software.
#

@<TRIPOS>MOLECULE
EN300-194291_i002|acide_2|mol2|6787|dock8
    25    26     1
SMALL
USER_CHARGES


@<TRIPOS>ATOM
      1 O1          -0.4333 -15.6256  15.1154 O.co2          1 <1>               -1.0000
      2 C2          -0.4085 -16.6720  14.4902 C.2            1 <1>                0.0000
      3 O3          -0.9435 -17.6678  14.9471 O.co2          1 <1>                0.0000
      4 C4           0.2783 -16.7332  13.1502 C.3            1 <1>                0.0000
      5 C5          -0.2799 -15.6567  12.1932 C.3            1 <1>                0.0000
      6 N6           0.8719 -15.1937  11.4102 N.am           1 <1>                0.0000
      7 C7           2.0313 -15.5428  11.9940 C.2            1 <1>                0.0000
      8 O8           3.1336 -15.2799  11.5617 O.2            1 <1>                0.0000
      9 C9           1.7612 -16.3115  13.2687 C.3            1 <1>                0.0000
     10 C10          0.7755 -14.4796  10.2097 C.ar           1 <1>                0.0000
     11 C11          0.7542 -13.0916  10.2265 C.ar           1 <1>                0.0000
     12 C12          0.6594 -12.3877   9.0414 C.ar           1 <1>                0.0000
     13 C13          0.5851 -13.0648   7.8368 C.ar           1 <1>                0.0000
     14 F14          0.4925 -12.3744   6.6792 F              1 <1>                0.0000
     15 C15          0.6061 -14.4516   7.8166 C.ar           1 <1>                0.0000
     16 F16          0.5339 -15.1112   6.6397 F              1 <1>                0.0000
     17 C17          0.7066 -15.1589   9.0006 C.ar           1 <1>                0.0000
     18 H18          0.1887 -17.7278  12.7134 H              1 <1>                0.0000
     19 H19         -1.0331 -16.0906  11.5356 H              1 <1>                0.0000
     20 H20         -0.7058 -14.8303  12.7624 H              1 <1>                0.0000
     21 H21          1.9074 -15.6711  14.1386 H              1 <1>                0.0000
     22 H22          2.4041 -17.1898  13.3280 H              1 <1>                0.0000
     23 H23          0.8115 -12.5620  11.1660 H              1 <1>                0.0000
     24 H24          0.6430 -11.3079   9.0551 H              1 <1>                0.0000
     25 H25          0.7230 -16.2387   8.9855 H              1 <1>                0.0000
@<TRIPOS>BOND
    1    1    2 ar    
    2    2    3 ar    
    3    2    4 1     
    4    4    5 1     
    5    4    9 1     
    6    4   18 1     
    7    5    6 1     
    8    5   19 1     
    9    5   20 1     
   10    6    7 am    
   11    6   10 1     
   12    7    8 2     
   13    7    9 1     
   14    9   21 1     
   15    9   22 1     
   16   10   11 ar    
   17   10   17 ar    
   18   11   12 ar    
   19   11   23 1     
   20   12   13 ar    
   21   12   24 1     
   22   13   14 1     
   23   13   15 ar    
   24   15   16 1     
   25   15   17 ar    
   26   17   25 1     
@<TRIPOS>SUBSTRUCTURE
      1 ****           1
@<TRIPOS>COMMENT
> <Gold.Version>
2022.2.0

> <Gold.Id.Protein>
3pbl|protein|mol2

> <Gold.Protein.RotatedTorsions>
[ 1303 1298 1297 1294 ] final  -20.43 input  179.99 | X-H torsion
[ 2461 2456 2455 2452 ] final  -39.91 input   30.03 | X-H torsion
[ 2515 2510 2509 2506 ] final   68.18 input  -89.99 | X-H torsion
[ 3721 3712 3711 3710 ] final  -19.74 input -179.91 | X-H torsion
[ 3841 3832 3831 3830 ] final -118.00 input -179.91 | X-H torsion
[ 3767 3762 3761 3758 ] final  -41.83 input  -89.99 | X-H torsion
[ 2472 2467 2466 2463 ] final  -44.26 input  -89.97 | X-H torsion

> <Gold.Protein.ActiveResidues>
 VAL82   VAL86   LEU89   PHE106  VAL107  ASP110  VAL111  MET112  CYS114  THR115 
 CYS181  SER182  ILE183  PHE188  VAL189  ILE190  SER192  SER193  SER196  TRP342 
 PHE345  PHE346  HIS349  VAL350  TYR365  THR369  GLY372  TYR373 

> <Gold.Protein.RotatedAtoms>
    3.3297   -9.5805    3.8948 H   0  0  0  0  0  0  0  0  0  0  0  0  # atno 1303 bound_to 1298
    0.5162   -8.3270    7.1860 H   0  0  0  0  0  0  0  0  0  0  0  0  # atno 2461 bound_to 2456
   -3.6485   -5.0968    8.7315 H   0  0  0  0  0  0  0  0  0  0  0  0  # atno 2472 bound_to 2467
    2.1119   -7.5151    5.5666 H   0  0  0  0  0  0  0  0  0  0  0  0  # atno 2515 bound_to 2510
   -2.5521  -17.8046   14.4889 H   0  0  0  0  0  0  0  0  0  0  0  0  # atno 3721 bound_to 3712
   -5.5107  -22.2233   10.5651 H   0  0  0  0  0  0  0  0  0  0  0  0  # atno 3767 bound_to 3762
    2.1967  -19.5891    8.4700 H   0  0  0  0  0  0  0  0  0  0  0  0  # atno 3841 bound_to 3832
    4.4996   -8.5133    4.2931 LP  0  0  0  0  0  0  0  0  0  0  0  0  # atno 4297 bound_to 1298
    4.5332  -10.0274    4.9039 LP  0  0  0  0  0  0  0  0  0  0  0  0  # atno 4298 bound_to 1298
    1.1318   -9.2844    8.3572 LP  0  0  0  0  0  0  0  0  0  0  0  0  # atno 4299 bound_to 2456
    2.0895   -8.1966    7.6048 LP  0  0  0  0  0  0  0  0  0  0  0  0  # atno 4300 bound_to 2456
    2.8050   -8.3690    4.3598 LP  0  0  0  0  0  0  0  0  0  0  0  0  # atno 4301 bound_to 2510
    2.3800   -9.1154    5.7487 LP  0  0  0  0  0  0  0  0  0  0  0  0  # atno 4302 bound_to 2510
   -3.5304  -16.5751   14.1583 LP  0  0  0  0  0  0  0  0  0  0  0  0  # atno 4306 bound_to 3712
   -3.0508  -17.5955   12.9771 LP  0  0  0  0  0  0  0  0  0  0  0  0  # atno 4307 bound_to 3712
    3.0736  -20.8959    8.7854 LP  0  0  0  0  0  0  0  0  0  0  0  0  # atno 4314 bound_to 3832
    1.6182  -20.6811    9.4942 LP  0  0  0  0  0  0  0  0  0  0  0  0  # atno 4315 bound_to 3832
   -4.2867  -22.3180   11.6419 LP  0  0  0  0  0  0  0  0  0  0  0  0  # atno 4318 bound_to 3762
   -4.3302  -23.3336   10.3640 LP  0  0  0  0  0  0  0  0  0  0  0  0  # atno 4319 bound_to 3762
   -5.1741   -5.4347    9.2055 LP  0  0  0  0  0  0  0  0  0  0  0  0  # atno 4320 bound_to 2467
   -4.8941   -4.8620    7.7021 LP  0  0  0  0  0  0  0  0  0  0  0  0  # atno 4321 bound_to 2467

> <Gold.Score>
     Score     S(PLP)   S(hbond)     S(cho)   S(metal)  DE(clash)   DE(tors)     intcor
     45.42     -42.02       1.93       0.00       0.00       0.00       1.53       0.68

> <Gold.PLP.Fitness>
45.4213

> <Gold.PLP.PLP>
-42.0222

> <Gold.PLP.part.hbond>
-2.0000

> <Gold.PLP.part.metal>
0.0000

> <Gold.PLP.part.buried>
1.9765

> <Gold.PLP.part.nonpolar>
-43.8550

> <Gold.PLP.part.repulsive>
1.2167

> <Gold.PLP.ligand.clash>
0.0000

> <Gold.PLP.ligand.torsion>
1.5325

> <Gold.PLP.Chemscore.Hbond>
1.9280

> <Gold.PLP.Chemscore.CHOScore>
0.0000

> <Gold.PLP.Chemscore.Metal>
0.0000

> <Gold.Chemscore.Hbonds>
donor molecule, donor type, donor heavy atom, donor atom, acceptor molecule, acceptor atom, score
      P1  H  2305  2313       L1     1  0.93
      P1  H  3712  3721       L1     3  1.00

> <Gold.PLP.Chemscore.Internal.Correction>
0.6802

