#       Name:                EN300-194291_i002
#       Creating user name   fsindt
#       Creation time:       Tue Feb 28 19:42:23 2023


#       File generated by GOLD software.
#

@<TRIPOS>MOLECULE
EN300-194291_i002|acide_2|mol2|6787|dock12
    25    26     1
SMALL
USER_CHARGES


@<TRIPOS>ATOM
      1 O1           1.9320 -16.0914  13.2909 O.co2          1 <1>               -1.0000
      2 C2           0.7456 -15.8133  13.3301 C.2            1 <1>                0.0000
      3 O3           0.1380 -15.8811  14.3849 O.co2          1 <1>                0.0000
      4 C4           0.0314 -15.3798  12.0758 C.3            1 <1>                0.0000
      5 C5          -0.7148 -14.0455  12.2975 C.3            1 <1>                0.0000
      6 N6          -0.5862 -13.3104  11.0337 N.am           1 <1>                0.0000
      7 C7           0.3960 -13.8196  10.2703 C.2            1 <1>                0.0000
      8 O8           0.7185 -13.3971   9.1801 O.2            1 <1>                0.0000
      9 C9           1.0406 -14.9966  10.9688 C.3            1 <1>                0.0000
     10 C10         -1.3839 -12.2184  10.6702 C.ar           1 <1>                0.0000
     11 C11         -0.8494 -10.9372  10.6692 C.ar           1 <1>                0.0000
     12 C12         -1.6370  -9.8604  10.3100 C.ar           1 <1>                0.0000
     13 C13         -2.9591 -10.0573   9.9514 C.ar           1 <1>                0.0000
     14 F14         -3.7273  -9.0028   9.6005 F              1 <1>                0.0000
     15 C15         -3.4960 -11.3363   9.9514 C.ar           1 <1>                0.0000
     16 F16         -4.7867 -11.5269   9.6006 F              1 <1>                0.0000
     17 C17         -2.7088 -12.4167  10.3049 C.ar           1 <1>                0.0000
     18 H18         -0.6515 -16.1560  11.7302 H              1 <1>                0.0000
     19 H19         -1.7653 -14.2332  12.5195 H              1 <1>                0.0000
     20 H20         -0.2513 -13.4845  13.1090 H              1 <1>                0.0000
     21 H21          1.9949 -14.7042  11.4071 H              1 <1>                0.0000
     22 H22          1.1770 -15.8249  10.2735 H              1 <1>                0.0000
     23 H23          0.1820 -10.7822  10.9496 H              1 <1>                0.0000
     24 H24         -1.2207  -8.8639  10.3094 H              1 <1>                0.0000
     25 H25         -3.1263 -13.4128  10.3050 H              1 <1>                0.0000
@<TRIPOS>BOND
    1    1    2 ar    
    2    2    3 ar    
    3    2    4 1     
    4    4    5 1     
    5    4    9 1     
    6    4   18 1     
    7    5    6 1     
    8    5   19 1     
    9    5   20 1     
   10    6    7 am    
   11    6   10 1     
   12    7    8 2     
   13    7    9 1     
   14    9   21 1     
   15    9   22 1     
   16   10   11 ar    
   17   10   17 ar    
   18   11   12 ar    
   19   11   23 1     
   20   12   13 ar    
   21   12   24 1     
   22   13   14 1     
   23   13   15 ar    
   24   15   16 1     
   25   15   17 ar    
   26   17   25 1     
@<TRIPOS>SUBSTRUCTURE
      1 ****           1
@<TRIPOS>COMMENT
> <Gold.Version>
2022.2.0

> <Gold.Id.Protein>
3pbl|protein|mol2

> <Gold.Protein.RotatedTorsions>
[ 1303 1298 1297 1294 ] final  155.47 input  179.99 | X-H torsion
[ 2461 2456 2455 2452 ] final -148.79 input   30.03 | X-H torsion
[ 2515 2510 2509 2506 ] final   41.77 input  -89.99 | X-H torsion
[ 3721 3712 3711 3710 ] final   -9.92 input -179.91 | X-H torsion
[ 3841 3832 3831 3830 ] final   23.59 input -179.91 | X-H torsion
[ 3767 3762 3761 3758 ] final -145.66 input  -89.99 | X-H torsion
[ 2472 2467 2466 2463 ] final -133.09 input  -89.97 | X-H torsion

> <Gold.Protein.ActiveResidues>
 VAL82   VAL86   LEU89   PHE106  VAL107  ASP110  VAL111  MET112  CYS114  THR115 
 CYS181  SER182  ILE183  PHE188  VAL189  ILE190  SER192  SER193  SER196  TRP342 
 PHE345  PHE346  HIS349  VAL350  TYR365  THR369  GLY372  TYR373 

> <Gold.Protein.RotatedAtoms>
    4.9108   -9.2300    4.8575 H   0  0  0  0  0  0  0  0  0  0  0  0  # atno 1303 bound_to 1298
    0.9588   -9.2864    8.2988 H   0  0  0  0  0  0  0  0  0  0  0  0  # atno 2461 bound_to 2456
   -4.7151   -5.4615    9.4178 H   0  0  0  0  0  0  0  0  0  0  0  0  # atno 2472 bound_to 2467
    2.2544   -7.4089    5.1745 H   0  0  0  0  0  0  0  0  0  0  0  0  # atno 2515 bound_to 2510
   -2.5139  -17.8892   14.3733 H   0  0  0  0  0  0  0  0  0  0  0  0  # atno 3721 bound_to 3712
   -4.4928  -22.1511   11.6431 H   0  0  0  0  0  0  0  0  0  0  0  0  # atno 3767 bound_to 3762
    1.9860  -20.7300    9.6220 H   0  0  0  0  0  0  0  0  0  0  0  0  # atno 3841 bound_to 3832
    3.6932  -10.2136    4.3924 LP  0  0  0  0  0  0  0  0  0  0  0  0  # atno 4297 bound_to 1298
    3.7579   -8.6778    3.8414 LP  0  0  0  0  0  0  0  0  0  0  0  0  # atno 4298 bound_to 1298
    2.1421   -8.3107    7.7372 LP  0  0  0  0  0  0  0  0  0  0  0  0  # atno 4299 bound_to 2456
    0.6367   -8.2113    7.1123 LP  0  0  0  0  0  0  0  0  0  0  0  0  # atno 4300 bound_to 2456
    2.8350   -8.7762    4.4968 LP  0  0  0  0  0  0  0  0  0  0  0  0  # atno 4301 bound_to 2510
    2.2074   -8.8145    6.0039 LP  0  0  0  0  0  0  0  0  0  0  0  0  # atno 4302 bound_to 2510
   -3.4924  -16.6177   14.3119 LP  0  0  0  0  0  0  0  0  0  0  0  0  # atno 4306 bound_to 3712
   -3.1330  -17.4552   12.9569 LP  0  0  0  0  0  0  0  0  0  0  0  0  # atno 4307 bound_to 3712
    1.8092  -19.6473    8.4503 LP  0  0  0  0  0  0  0  0  0  0  0  0  # atno 4314 bound_to 3832
    3.1261  -20.6117    8.4985 LP  0  0  0  0  0  0  0  0  0  0  0  0  # atno 4315 bound_to 3832
   -4.1483  -23.3207   10.5567 LP  0  0  0  0  0  0  0  0  0  0  0  0  # atno 4318 bound_to 3762
   -5.4862  -22.4030   10.3716 LP  0  0  0  0  0  0  0  0  0  0  0  0  # atno 4319 bound_to 3762
   -5.3036   -5.0021    7.9656 LP  0  0  0  0  0  0  0  0  0  0  0  0  # atno 4320 bound_to 2467
   -3.6982   -4.9301    8.2559 LP  0  0  0  0  0  0  0  0  0  0  0  0  # atno 4321 bound_to 2467

> <Gold.Score>
     Score     S(PLP)   S(hbond)     S(cho)   S(metal)  DE(clash)   DE(tors)     intcor
     53.45     -53.01       1.00       0.00       0.00       0.00       1.62       0.68

> <Gold.PLP.Fitness>
53.4517

> <Gold.PLP.PLP>
-53.0066

> <Gold.PLP.part.hbond>
-1.0000

> <Gold.PLP.part.metal>
0.0000

> <Gold.PLP.part.buried>
-3.1568

> <Gold.PLP.part.nonpolar>
-50.7857

> <Gold.PLP.part.repulsive>
0.1329

> <Gold.PLP.ligand.clash>
0.0000

> <Gold.PLP.ligand.torsion>
1.6175

> <Gold.PLP.Chemscore.Hbond>
1.0000

> <Gold.PLP.Chemscore.CHOScore>
0.0000

> <Gold.PLP.Chemscore.Metal>
0.0000

> <Gold.Chemscore.Hbonds>
donor molecule, donor type, donor heavy atom, donor atom, acceptor molecule, acceptor atom, score
      P1  H  2305  2313       L1     3  1.00

> <Gold.PLP.Chemscore.Internal.Correction>
0.6802

