#       Name:                EN300-194291_i002
#       Creating user name   fsindt
#       Creation time:       Tue Feb 28 19:42:24 2023


#       File generated by GOLD software.
#

@<TRIPOS>MOLECULE
EN300-194291_i002|acide_2|mol2|6787|dock15
    25    26     1
SMALL
USER_CHARGES


@<TRIPOS>ATOM
      1 O1           1.0393 -13.1009   6.6409 O.co2          1 <1>               -1.0000
      2 C2           0.5256 -12.4943   7.5653 C.2            1 <1>                0.0000
      3 O3           0.6410 -11.2827   7.6383 O.co2          1 <1>                0.0000
      4 C4          -0.2571 -13.2412   8.6144 C.3            1 <1>                0.0000
      5 C5           0.6730 -14.1292   9.4703 C.3            1 <1>                0.0000
      6 N6           0.1265 -14.0710  10.8312 N.am           1 <1>                0.0000
      7 C7          -0.7158 -13.0335  10.9751 C.2            1 <1>                0.0000
      8 O8          -1.3002 -12.7500  11.9995 O.2            1 <1>                0.0000
      9 C9          -0.8290 -12.2707   9.6736 C.3            1 <1>                0.0000
     10 C10          0.4425 -14.9794  11.8489 C.ar           1 <1>                0.0000
     11 C11         -0.4876 -15.2644  12.8393 C.ar           1 <1>                0.0000
     12 C12         -0.1752 -16.1611  13.8430 C.ar           1 <1>                0.0000
     13 C13          1.0646 -16.7756  13.8626 C.ar           1 <1>                0.0000
     14 F14          1.3678 -17.6520  14.8450 F              1 <1>                0.0000
     15 C15          1.9961 -16.4928  12.8745 C.ar           1 <1>                0.0000
     16 F16          3.2059 -17.0939  12.8948 F              1 <1>                0.0000
     17 C17          1.6844 -15.6002  11.8654 C.ar           1 <1>                0.0000
     18 H18         -1.0505 -13.8333   8.1582 H              1 <1>                0.0000
     19 H19          0.6593 -15.1549   9.1018 H              1 <1>                0.0000
     20 H20          1.6894 -13.7356   9.4548 H              1 <1>                0.0000
     21 H21         -0.2356 -11.3573   9.7139 H              1 <1>                0.0000
     22 H22         -1.8719 -12.0400   9.4560 H              1 <1>                0.0000
     23 H23         -1.4553 -14.7850  12.8254 H              1 <1>                0.0000
     24 H24         -0.8992 -16.3826  14.6132 H              1 <1>                0.0000
     25 H25          2.4092 -15.3796  11.0958 H              1 <1>                0.0000
@<TRIPOS>BOND
    1    1    2 ar    
    2    2    3 ar    
    3    2    4 1     
    4    4    5 1     
    5    4    9 1     
    6    4   18 1     
    7    5    6 1     
    8    5   19 1     
    9    5   20 1     
   10    6    7 am    
   11    6   10 1     
   12    7    8 2     
   13    7    9 1     
   14    9   21 1     
   15    9   22 1     
   16   10   11 ar    
   17   10   17 ar    
   18   11   12 ar    
   19   11   23 1     
   20   12   13 ar    
   21   12   24 1     
   22   13   14 1     
   23   13   15 ar    
   24   15   16 1     
   25   15   17 ar    
   26   17   25 1     
@<TRIPOS>SUBSTRUCTURE
      1 ****           1
@<TRIPOS>COMMENT
> <Gold.Version>
2022.2.0

> <Gold.Id.Protein>
3pbl|protein|mol2

> <Gold.Protein.RotatedTorsions>
[ 1303 1298 1297 1294 ] final -132.74 input  179.99 | X-H torsion
[ 2461 2456 2455 2452 ] final -131.54 input   30.03 | X-H torsion
[ 2515 2510 2509 2506 ] final  105.90 input  -89.99 | X-H torsion
[ 3721 3712 3711 3710 ] final   -1.83 input -179.91 | X-H torsion
[ 3841 3832 3831 3830 ] final    9.95 input -179.91 | X-H torsion
[ 3767 3762 3761 3758 ] final -110.33 input  -89.99 | X-H torsion
[ 2472 2467 2466 2463 ] final   54.82 input  -89.97 | X-H torsion

> <Gold.Protein.ActiveResidues>
 VAL82   VAL86   LEU89   PHE106  VAL107  ASP110  VAL111  MET112  CYS114  THR115 
 CYS181  SER182  ILE183  PHE188  VAL189  ILE190  SER192  SER193  SER196  TRP342 
 PHE345  PHE346  HIS349  VAL350  TYR365  THR369  GLY372  TYR373 

> <Gold.Protein.RotatedAtoms>
    4.4030   -8.4866    4.2162 H   0  0  0  0  0  0  0  0  0  0  0  0  # atno 1303 bound_to 1298
    0.7140   -9.2386    8.1656 H   0  0  0  0  0  0  0  0  0  0  0  0  # atno 2461 bound_to 2456
   -4.5584   -4.8107    7.6598 H   0  0  0  0  0  0  0  0  0  0  0  0  # atno 2472 bound_to 2467
    2.0288   -7.9497    5.9857 H   0  0  0  0  0  0  0  0  0  0  0  0  # atno 2515 bound_to 2510
   -2.4910  -17.9457   14.2674 H   0  0  0  0  0  0  0  0  0  0  0  0  # atno 3721 bound_to 3712
   -4.9793  -21.9319   11.4365 H   0  0  0  0  0  0  0  0  0  0  0  0  # atno 3767 bound_to 3762
    1.8315  -20.5964    9.5980 H   0  0  0  0  0  0  0  0  0  0  0  0  # atno 3841 bound_to 3832
    4.6196   -9.9393    4.9298 LP  0  0  0  0  0  0  0  0  0  0  0  0  # atno 4297 bound_to 1298
    3.3394   -9.6958    3.9457 LP  0  0  0  0  0  0  0  0  0  0  0  0  # atno 4298 bound_to 1298
    2.1570   -8.5079    7.9393 LP  0  0  0  0  0  0  0  0  0  0  0  0  # atno 4299 bound_to 2456
    0.8667   -8.0619    7.0433 LP  0  0  0  0  0  0  0  0  0  0  0  0  # atno 4300 bound_to 2456
    2.6323   -7.7961    4.4764 LP  0  0  0  0  0  0  0  0  0  0  0  0  # atno 4301 bound_to 2510
    2.6358   -9.2535    5.2129 LP  0  0  0  0  0  0  0  0  0  0  0  0  # atno 4302 bound_to 2510
   -3.4520  -16.6698   14.4298 LP  0  0  0  0  0  0  0  0  0  0  0  0  # atno 4306 bound_to 3712
   -3.1998  -17.3379   12.9613 LP  0  0  0  0  0  0  0  0  0  0  0  0  # atno 4307 bound_to 3712
    1.9974  -19.6354    8.3232 LP  0  0  0  0  0  0  0  0  0  0  0  0  # atno 4314 bound_to 3832
    3.1163  -20.7780    8.6533 LP  0  0  0  0  0  0  0  0  0  0  0  0  # atno 4315 bound_to 3832
   -3.9201  -23.1088   11.0365 LP  0  0  0  0  0  0  0  0  0  0  0  0  # atno 4318 bound_to 3762
   -5.2281  -22.8341   10.0983 LP  0  0  0  0  0  0  0  0  0  0  0  0  # atno 4319 bound_to 3762
   -3.7672   -5.2164    9.0294 LP  0  0  0  0  0  0  0  0  0  0  0  0  # atno 4320 bound_to 2467
   -5.3913   -5.3664    8.9497 LP  0  0  0  0  0  0  0  0  0  0  0  0  # atno 4321 bound_to 2467

> <Gold.Score>
     Score     S(PLP)   S(hbond)     S(cho)   S(metal)  DE(clash)   DE(tors)     intcor
     54.50     -52.15       0.84       0.00       0.00       0.00       0.43       0.68

> <Gold.PLP.Fitness>
54.4976

> <Gold.PLP.PLP>
-52.1528

> <Gold.PLP.part.hbond>
-2.0000

> <Gold.PLP.part.metal>
0.0000

> <Gold.PLP.part.buried>
-3.8085

> <Gold.PLP.part.nonpolar>
-46.8464

> <Gold.PLP.part.repulsive>
0.1700

> <Gold.PLP.ligand.clash>
0.0000

> <Gold.PLP.ligand.torsion>
0.4313

> <Gold.PLP.Chemscore.Hbond>
0.8424

> <Gold.PLP.Chemscore.CHOScore>
0.0000

> <Gold.PLP.Chemscore.Metal>
0.0000

> <Gold.Chemscore.Hbonds>
donor molecule, donor type, donor heavy atom, donor atom, acceptor molecule, acceptor atom, score
      P1  H  2456  2461       L1     3  0.84

> <Gold.PLP.Chemscore.Internal.Correction>
0.6802

