#       Name:                EN300-194291_i002
#       Creating user name   fsindt
#       Creation time:       Tue Feb 28 19:42:19 2023


#       File generated by GOLD software.
#

@<TRIPOS>MOLECULE
EN300-194291_i002|acide_2|mol2|6787|dock2
    25    26     1
SMALL
USER_CHARGES


@<TRIPOS>ATOM
      1 O1          -1.8156  -9.6002  10.2917 O.co2          1 <1>               -1.0000
      2 C2          -1.8858 -10.8036  10.1087 C.2            1 <1>                0.0000
      3 O3          -2.8887 -11.2871   9.6119 O.co2          1 <1>                0.0000
      4 C4          -0.7306 -11.6926  10.4910 C.3            1 <1>                0.0000
      5 C5          -1.1951 -12.8312  11.4261 C.3            1 <1>                0.0000
      6 N6          -0.4009 -14.0035  11.0399 N.am           1 <1>                0.0000
      7 C7           0.1585 -13.8369   9.8291 C.2            1 <1>                0.0000
      8 O8           0.8580 -14.6541   9.2687 O.2            1 <1>                0.0000
      9 C9          -0.2111 -12.4818   9.2671 C.3            1 <1>                0.0000
     10 C10         -0.2465 -15.1485  11.8309 C.ar           1 <1>                0.0000
     11 C11         -0.0957 -15.0283  13.2057 C.ar           1 <1>                0.0000
     12 C12          0.0562 -16.1586  13.9855 C.ar           1 <1>                0.0000
     13 C13          0.0587 -17.4114  13.3976 C.ar           1 <1>                0.0000
     14 F14          0.2073 -18.5153  14.1621 F              1 <1>                0.0000
     15 C15         -0.0918 -17.5349  12.0242 C.ar           1 <1>                0.0000
     16 F16         -0.0896 -18.7587  11.4518 F              1 <1>                0.0000
     17 C17         -0.2497 -16.4059  11.2416 C.ar           1 <1>                0.0000
     18 H18          0.0699 -11.1126  10.9503 H              1 <1>                0.0000
     19 H19         -0.9994 -12.5689  12.4658 H              1 <1>                0.0000
     20 H20         -2.2568 -13.0299  11.2798 H              1 <1>                0.0000
     21 H21         -0.9951 -12.5812   8.5164 H              1 <1>                0.0000
     22 H22          0.6656 -11.9931   8.8420 H              1 <1>                0.0000
     23 H23         -0.0968 -14.0511  13.6656 H              1 <1>                0.0000
     24 H24          0.1734 -16.0645  15.0550 H              1 <1>                0.0000
     25 H25         -0.3670 -16.5013  10.1723 H              1 <1>                0.0000
@<TRIPOS>BOND
    1    1    2 ar    
    2    2    3 ar    
    3    2    4 1     
    4    4    5 1     
    5    4    9 1     
    6    4   18 1     
    7    5    6 1     
    8    5   19 1     
    9    5   20 1     
   10    6    7 am    
   11    6   10 1     
   12    7    8 2     
   13    7    9 1     
   14    9   21 1     
   15    9   22 1     
   16   10   11 ar    
   17   10   17 ar    
   18   11   12 ar    
   19   11   23 1     
   20   12   13 ar    
   21   12   24 1     
   22   13   14 1     
   23   13   15 ar    
   24   15   16 1     
   25   15   17 ar    
   26   17   25 1     
@<TRIPOS>SUBSTRUCTURE
      1 ****           1
@<TRIPOS>COMMENT
> <Gold.Version>
2022.2.0

> <Gold.Id.Protein>
3pbl|protein|mol2

> <Gold.Protein.RotatedTorsions>
[ 1303 1298 1297 1294 ] final  152.88 input  179.99 | X-H torsion
[ 2461 2456 2455 2452 ] final  -81.80 input   30.03 | X-H torsion
[ 2515 2510 2509 2506 ] final  -53.09 input  -89.99 | X-H torsion
[ 3721 3712 3711 3710 ] final   63.04 input -179.91 | X-H torsion
[ 3841 3832 3831 3830 ] final    5.44 input -179.91 | X-H torsion
[ 3767 3762 3761 3758 ] final  176.91 input  -89.99 | X-H torsion
[ 2472 2467 2466 2463 ] final  -56.11 input  -89.97 | X-H torsion

> <Gold.Protein.ActiveResidues>
 VAL82   VAL86   LEU89   PHE106  VAL107  ASP110  VAL111  MET112  CYS114  THR115 
 CYS181  SER182  ILE183  PHE188  VAL189  ILE190  SER192  SER193  SER196  TRP342 
 PHE345  PHE346  HIS349  VAL350  TYR365  THR369  GLY372  TYR373 

> <Gold.Protein.RotatedAtoms>
    4.9083   -9.2702    4.8714 H   0  0  0  0  0  0  0  0  0  0  0  0  # atno 1303 bound_to 1298
    0.3335   -8.8170    7.6116 H   0  0  0  0  0  0  0  0  0  0  0  0  # atno 2461 bound_to 2456
   -3.7014   -5.1655    8.9059 H   0  0  0  0  0  0  0  0  0  0  0  0  # atno 2472 bound_to 2467
    2.8083   -8.3894    4.3628 H   0  0  0  0  0  0  0  0  0  0  0  0  # atno 2515 bound_to 2510
   -2.6077  -17.8847   13.3476 H   0  0  0  0  0  0  0  0  0  0  0  0  # atno 3721 bound_to 3712
   -4.0676  -22.5708   11.5460 H   0  0  0  0  0  0  0  0  0  0  0  0  # atno 3767 bound_to 3762
    1.7864  -20.5477    9.5823 H   0  0  0  0  0  0  0  0  0  0  0  0  # atno 3841 bound_to 3832
    3.6635  -10.1984    4.3659 LP  0  0  0  0  0  0  0  0  0  0  0  0  # atno 4297 bound_to 1298
    3.7901   -8.6528    3.8541 LP  0  0  0  0  0  0  0  0  0  0  0  0  # atno 4298 bound_to 1298
    1.7674   -9.0599    8.3547 LP  0  0  0  0  0  0  0  0  0  0  0  0  # atno 4299 bound_to 2456
    1.6366   -7.9314    7.1817 LP  0  0  0  0  0  0  0  0  0  0  0  0  # atno 4300 bound_to 2456
    2.3711   -9.1042    5.7640 LP  0  0  0  0  0  0  0  0  0  0  0  0  # atno 4301 bound_to 2510
    2.1171   -7.5055    5.5489 LP  0  0  0  0  0  0  0  0  0  0  0  0  # atno 4302 bound_to 2510
   -2.9593  -17.4635   14.8565 LP  0  0  0  0  0  0  0  0  0  0  0  0  # atno 4306 bound_to 3712
   -3.5578  -16.6146   13.5965 LP  0  0  0  0  0  0  0  0  0  0  0  0  # atno 4307 bound_to 3712
    2.0634  -19.6409    8.2872 LP  0  0  0  0  0  0  0  0  0  0  0  0  # atno 4314 bound_to 3832
    3.1023  -20.8287    8.7074 LP  0  0  0  0  0  0  0  0  0  0  0  0  # atno 4315 bound_to 3832
   -4.6123  -23.2657   10.1722 LP  0  0  0  0  0  0  0  0  0  0  0  0  # atno 4318 bound_to 3762
   -5.4472  -22.0385   10.8531 LP  0  0  0  0  0  0  0  0  0  0  0  0  # atno 4319 bound_to 3762
   -5.3090   -5.4004    9.0694 LP  0  0  0  0  0  0  0  0  0  0  0  0  # atno 4320 bound_to 2467
   -4.7063   -4.8276    7.6639 LP  0  0  0  0  0  0  0  0  0  0  0  0  # atno 4321 bound_to 2467

> <Gold.Score>
     Score     S(PLP)   S(hbond)     S(cho)   S(metal)  DE(clash)   DE(tors)     intcor
     46.20     -46.80       0.00       0.00       0.00       0.00       0.64       0.69

> <Gold.PLP.Fitness>
46.1999

> <Gold.PLP.PLP>
-46.8006

> <Gold.PLP.part.hbond>
0.0000

> <Gold.PLP.part.metal>
0.0000

> <Gold.PLP.part.buried>
-7.3296

> <Gold.PLP.part.nonpolar>
-40.0652

> <Gold.PLP.part.repulsive>
0.2195

> <Gold.PLP.ligand.clash>
0.0000

> <Gold.PLP.ligand.torsion>
0.6429

> <Gold.PLP.Chemscore.Hbond>
0.0000

> <Gold.PLP.Chemscore.CHOScore>
0.0000

> <Gold.PLP.Chemscore.Metal>
0.0000

> <Gold.PLP.Chemscore.Internal.Correction>
0.6852

