#       Name:                EN300-194291_i002
#       Creating user name   fsindt
#       Creation time:       Tue Feb 28 19:42:25 2023


#       File generated by GOLD software.
#

@<TRIPOS>MOLECULE
EN300-194291_i002|acide_2|mol2|6787|dock16
    25    26     1
SMALL
USER_CHARGES


@<TRIPOS>ATOM
      1 O1           0.3181 -16.2492  12.8568 O.co2          1 <1>               -1.0000
      2 C2           0.9864 -15.6654  12.0206 C.2            1 <1>                0.0000
      3 O3           2.1974 -15.5995  12.1456 O.co2          1 <1>                0.0000
      4 C4           0.3162 -15.0305  10.8295 C.3            1 <1>                0.0000
      5 C5          -0.7059 -13.9613  11.2751 C.3            1 <1>                0.0000
      6 N6          -0.6164 -12.8925  10.2732 N.am           1 <1>                0.0000
      7 C7           0.5153 -12.9905   9.5545 C.2            1 <1>                0.0000
      8 O8           0.8423 -12.2317   8.6666 O.2            1 <1>                0.0000
      9 C9           1.3218 -14.1850  10.0143 C.3            1 <1>                0.0000
     10 C10         -1.5851 -11.8982  10.0900 C.ar           1 <1>                0.0000
     11 C11         -1.1994 -10.5761   9.9146 C.ar           1 <1>                0.0000
     12 C12         -2.1559  -9.5957   9.7334 C.ar           1 <1>                0.0000
     13 C13         -3.4988  -9.9298   9.7271 C.ar           1 <1>                0.0000
     14 F14         -4.4322  -8.9694   9.5498 F              1 <1>                0.0000
     15 C15         -3.8874 -11.2498   9.9021 C.ar           1 <1>                0.0000
     16 F16         -5.1988 -11.5745   9.8952 F              1 <1>                0.0000
     17 C17         -2.9323 -12.2343  10.0779 C.ar           1 <1>                0.0000
     18 H18         -0.1577 -15.7858  10.2026 H              1 <1>                0.0000
     19 H19         -1.7111 -14.3826  11.2883 H              1 <1>                0.0000
     20 H20         -0.4442 -13.5770  12.2610 H              1 <1>                0.0000
     21 H21          2.1512 -13.8654  10.6453 H              1 <1>                0.0000
     22 H22          1.6889 -14.7501   9.1575 H              1 <1>                0.0000
     23 H23         -0.1517 -10.3141   9.9201 H              1 <1>                0.0000
     24 H24         -1.8553  -8.5674   9.5970 H              1 <1>                0.0000
     25 H25         -3.2342 -13.2622  10.2142 H              1 <1>                0.0000
@<TRIPOS>BOND
    1    1    2 ar    
    2    2    3 ar    
    3    2    4 1     
    4    4    5 1     
    5    4    9 1     
    6    4   18 1     
    7    5    6 1     
    8    5   19 1     
    9    5   20 1     
   10    6    7 am    
   11    6   10 1     
   12    7    8 2     
   13    7    9 1     
   14    9   21 1     
   15    9   22 1     
   16   10   11 ar    
   17   10   17 ar    
   18   11   12 ar    
   19   11   23 1     
   20   12   13 ar    
   21   12   24 1     
   22   13   14 1     
   23   13   15 ar    
   24   15   16 1     
   25   15   17 ar    
   26   17   25 1     
@<TRIPOS>SUBSTRUCTURE
      1 ****           1
@<TRIPOS>COMMENT
> <Gold.Version>
2022.2.0

> <Gold.Id.Protein>
3pbl|protein|mol2

> <Gold.Protein.RotatedTorsions>
[ 1303 1298 1297 1294 ] final  -94.93 input  179.99 | X-H torsion
[ 2461 2456 2455 2452 ] final   -0.86 input   30.03 | X-H torsion
[ 2515 2510 2509 2506 ] final  -10.03 input  -89.99 | X-H torsion
[ 3721 3712 3711 3710 ] final -137.74 input -179.91 | X-H torsion
[ 3841 3832 3831 3830 ] final -157.75 input -179.91 | X-H torsion
[ 3767 3762 3761 3758 ] final  -15.58 input  -89.99 | X-H torsion
[ 2472 2467 2466 2463 ] final  -86.57 input  -89.97 | X-H torsion

> <Gold.Protein.ActiveResidues>
 VAL82   VAL86   LEU89   PHE106  VAL107  ASP110  VAL111  MET112  CYS114  THR115 
 CYS181  SER182  ILE183  PHE188  VAL189  ILE190  SER192  SER193  SER196  TRP342 
 PHE345  PHE346  HIS349  VAL350  TYR365  THR369  GLY372  TYR373 

> <Gold.Protein.RotatedAtoms>
    3.8906   -8.5867    3.8990 H   0  0  0  0  0  0  0  0  0  0  0  0  # atno 1303 bound_to 1298
    1.0276   -7.9928    7.0306 H   0  0  0  0  0  0  0  0  0  0  0  0  # atno 2461 bound_to 2456
   -3.9980   -5.3284    9.2676 H   0  0  0  0  0  0  0  0  0  0  0  0  # atno 2472 bound_to 2467
    2.6070   -7.7442    4.5103 H   0  0  0  0  0  0  0  0  0  0  0  0  # atno 2515 bound_to 2510
   -3.2943  -16.5589   14.1687 H   0  0  0  0  0  0  0  0  0  0  0  0  # atno 3721 bound_to 3712
   -5.4392  -22.5240   10.2688 H   0  0  0  0  0  0  0  0  0  0  0  0  # atno 3767 bound_to 3762
    2.7249  -19.8190    8.3488 H   0  0  0  0  0  0  0  0  0  0  0  0  # atno 3841 bound_to 3832
    4.8915   -9.3925    4.9066 LP  0  0  0  0  0  0  0  0  0  0  0  0  # atno 4297 bound_to 1298
    3.5802  -10.1424    4.2862 LP  0  0  0  0  0  0  0  0  0  0  0  0  # atno 4298 bound_to 1298
    0.5852   -9.1796    8.0617 LP  0  0  0  0  0  0  0  0  0  0  0  0  # atno 4299 bound_to 2456
    2.1249   -8.6355    8.0556 LP  0  0  0  0  0  0  0  0  0  0  0  0  # atno 4300 bound_to 2456
    2.6600   -9.2450    5.1512 LP  0  0  0  0  0  0  0  0  0  0  0  0  # atno 4301 bound_to 2510
    2.0297   -8.0102    6.0142 LP  0  0  0  0  0  0  0  0  0  0  0  0  # atno 4302 bound_to 2510
   -3.0427  -17.6090   12.9806 LP  0  0  0  0  0  0  0  0  0  0  0  0  # atno 4306 bound_to 3712
   -2.6816  -17.9997   14.5245 LP  0  0  0  0  0  0  0  0  0  0  0  0  # atno 4307 bound_to 3712
    2.6911  -21.1480    9.2480 LP  0  0  0  0  0  0  0  0  0  0  0  0  # atno 4314 bound_to 3832
    1.3906  -20.1634    9.1716 LP  0  0  0  0  0  0  0  0  0  0  0  0  # atno 4315 bound_to 3832
   -4.6317  -22.0663   11.6125 LP  0  0  0  0  0  0  0  0  0  0  0  0  # atno 4318 bound_to 3762
   -4.0567  -23.2847   10.6896 LP  0  0  0  0  0  0  0  0  0  0  0  0  # atno 4319 bound_to 3762
   -5.5015   -5.2646    8.6337 LP  0  0  0  0  0  0  0  0  0  0  0  0  # atno 4320 bound_to 2467
   -4.2174   -4.8005    7.7380 LP  0  0  0  0  0  0  0  0  0  0  0  0  # atno 4321 bound_to 2467

> <Gold.Score>
     Score     S(PLP)   S(hbond)     S(cho)   S(metal)  DE(clash)   DE(tors)     intcor
     50.42     -51.32       0.00       0.00       0.00       0.00       0.79       0.68

> <Gold.PLP.Fitness>
50.4225

> <Gold.PLP.PLP>
-51.3208

> <Gold.PLP.part.hbond>
0.0000

> <Gold.PLP.part.metal>
0.0000

> <Gold.PLP.part.buried>
-4.0798

> <Gold.PLP.part.nonpolar>
-48.5580

> <Gold.PLP.part.repulsive>
0.1830

> <Gold.PLP.ligand.clash>
0.0000

> <Gold.PLP.ligand.torsion>
0.7892

> <Gold.PLP.Chemscore.Hbond>
0.0000

> <Gold.PLP.Chemscore.CHOScore>
0.0000

> <Gold.PLP.Chemscore.Metal>
0.0000

> <Gold.PLP.Chemscore.Internal.Correction>
0.6802

