#       Name:                EN300-194291_i002
#       Creating user name   fsindt
#       Creation time:       Tue Feb 28 19:42:22 2023


#       File generated by GOLD software.
#

@<TRIPOS>MOLECULE
EN300-194291_i002|acide_2|mol2|6787|dock10
    25    26     1
SMALL
USER_CHARGES


@<TRIPOS>ATOM
      1 O1           1.3207 -17.2750  14.1270 O.co2          1 <1>               -1.0000
      2 C2           0.4763 -16.8160  13.3767 C.2            1 <1>                0.0000
      3 O3          -0.5063 -17.4774  13.0874 O.co2          1 <1>                0.0000
      4 C4           0.6440 -15.4290  12.8118 C.3            1 <1>                0.0000
      5 C5           0.9682 -15.4824  11.3024 C.3            1 <1>                0.0000
      6 N6           0.2732 -14.3325  10.7117 N.am           1 <1>                0.0000
      7 C7          -0.6722 -13.8555  11.5396 C.2            1 <1>                0.0000
      8 O8          -1.3983 -12.9149  11.2964 O.2            1 <1>                0.0000
      9 C9          -0.6989 -14.6625  12.8189 C.3            1 <1>                0.0000
     10 C10          0.5580 -13.8011   9.4479 C.ar           1 <1>                0.0000
     11 C11          1.0908 -14.6136   8.4564 C.ar           1 <1>                0.0000
     12 C12          1.3712 -14.0886   7.2095 C.ar           1 <1>                0.0000
     13 C13          1.1219 -12.7527   6.9476 C.ar           1 <1>                0.0000
     14 F14          1.3968 -12.2416   5.7277 F              1 <1>                0.0000
     15 C15          0.5896 -11.9383   7.9363 C.ar           1 <1>                0.0000
     16 F16          0.3463 -10.6345   7.6789 F              1 <1>                0.0000
     17 C17          0.3026 -12.4621   9.1834 C.ar           1 <1>                0.0000
     18 H18          1.4110 -14.8784  13.3564 H              1 <1>                0.0000
     19 H19          2.0432 -15.3953  11.1442 H              1 <1>                0.0000
     20 H20          0.5965 -16.4110  10.8693 H              1 <1>                0.0000
     21 H21         -1.5364 -15.3602  12.8125 H              1 <1>                0.0000
     22 H22         -0.7572 -14.0031  13.6849 H              1 <1>                0.0000
     23 H23          1.2865 -15.6561   8.6598 H              1 <1>                0.0000
     24 H24          1.7856 -14.7212   6.4385 H              1 <1>                0.0000
     25 H25         -0.1119 -11.8285   9.9536 H              1 <1>                0.0000
@<TRIPOS>BOND
    1    1    2 ar    
    2    2    3 ar    
    3    2    4 1     
    4    4    5 1     
    5    4    9 1     
    6    4   18 1     
    7    5    6 1     
    8    5   19 1     
    9    5   20 1     
   10    6    7 am    
   11    6   10 1     
   12    7    8 2     
   13    7    9 1     
   14    9   21 1     
   15    9   22 1     
   16   10   11 ar    
   17   10   17 ar    
   18   11   12 ar    
   19   11   23 1     
   20   12   13 ar    
   21   12   24 1     
   22   13   14 1     
   23   13   15 ar    
   24   15   16 1     
   25   15   17 ar    
   26   17   25 1     
@<TRIPOS>SUBSTRUCTURE
      1 ****           1
@<TRIPOS>COMMENT
> <Gold.Version>
2022.2.0

> <Gold.Id.Protein>
3pbl|protein|mol2

> <Gold.Protein.RotatedTorsions>
[ 1303 1298 1297 1294 ] final  -49.21 input  179.99 | X-H torsion
[ 2461 2456 2455 2452 ] final  -22.60 input   30.03 | X-H torsion
[ 2515 2510 2509 2506 ] final -113.00 input  -89.99 | X-H torsion
[ 3721 3712 3711 3710 ] final   47.67 input -179.91 | X-H torsion
[ 3841 3832 3831 3830 ] final   -4.85 input -179.91 | X-H torsion
[ 3767 3762 3761 3758 ] final  153.26 input  -89.99 | X-H torsion
[ 2472 2467 2466 2463 ] final   80.57 input  -89.97 | X-H torsion

> <Gold.Protein.ActiveResidues>
 VAL82   VAL86   LEU89   PHE106  VAL107  ASP110  VAL111  MET112  CYS114  THR115 
 CYS181  SER182  ILE183  PHE188  VAL189  ILE190  SER192  SER193  SER196  TRP342 
 PHE345  PHE346  HIS349  VAL350  TYR365  THR369  GLY372  TYR373 

> <Gold.Protein.RotatedAtoms>
    3.4181   -9.1342    3.7830 H   0  0  0  0  0  0  0  0  0  0  0  0  # atno 1303 bound_to 1298
    0.7138   -8.1526    7.0807 H   0  0  0  0  0  0  0  0  0  0  0  0  # atno 2461 bound_to 2456
   -4.9670   -4.8801    7.7278 H   0  0  0  0  0  0  0  0  0  0  0  0  # atno 2472 bound_to 2467
    2.7476   -9.1596    4.9002 H   0  0  0  0  0  0  0  0  0  0  0  0  # atno 2515 bound_to 2510
   -2.5342  -17.9825   13.5443 H   0  0  0  0  0  0  0  0  0  0  0  0  # atno 3721 bound_to 3712
   -3.9281  -22.8596   11.3305 H   0  0  0  0  0  0  0  0  0  0  0  0  # atno 3767 bound_to 3762
    1.6971  -20.4308    9.5329 H   0  0  0  0  0  0  0  0  0  0  0  0  # atno 3841 bound_to 3832
    4.7873   -8.7439    4.5824 LP  0  0  0  0  0  0  0  0  0  0  0  0  # atno 4297 bound_to 1298
    4.1570  -10.2434    4.7263 LP  0  0  0  0  0  0  0  0  0  0  0  0  # atno 4298 bound_to 1298
    0.8668   -9.2760    8.2563 LP  0  0  0  0  0  0  0  0  0  0  0  0  # atno 4299 bound_to 2456
    2.1570   -8.3794    7.8110 LP  0  0  0  0  0  0  0  0  0  0  0  0  # atno 4300 bound_to 2456
    2.0563   -8.2781    6.0880 LP  0  0  0  0  0  0  0  0  0  0  0  0  # atno 4301 bound_to 2510
    2.4926   -7.5610    4.6872 LP  0  0  0  0  0  0  0  0  0  0  0  0  # atno 4302 bound_to 2510
   -3.0866  -17.2413   14.8571 LP  0  0  0  0  0  0  0  0  0  0  0  0  # atno 4306 bound_to 3712
   -3.5154  -16.7239   13.3688 LP  0  0  0  0  0  0  0  0  0  0  0  0  # atno 4307 bound_to 3712
    2.2178  -19.6710    8.2185 LP  0  0  0  0  0  0  0  0  0  0  0  0  # atno 4314 bound_to 3832
    3.0511  -20.9337    8.8331 LP  0  0  0  0  0  0  0  0  0  0  0  0  # atno 4315 bound_to 3832
   -4.9397  -23.0886   10.0692 LP  0  0  0  0  0  0  0  0  0  0  0  0  # atno 4318 bound_to 3762
   -5.2592  -21.9270   11.1716 LP  0  0  0  0  0  0  0  0  0  0  0  0  # atno 4319 bound_to 3762
   -3.6383   -5.0684    8.6581 LP  0  0  0  0  0  0  0  0  0  0  0  0  # atno 4320 bound_to 2467
   -5.1117   -5.4449    9.2531 LP  0  0  0  0  0  0  0  0  0  0  0  0  # atno 4321 bound_to 2467

> <Gold.Score>
     Score     S(PLP)   S(hbond)     S(cho)   S(metal)  DE(clash)   DE(tors)     intcor
     47.07     -45.70       0.68       0.00       0.00       0.00       0.68       0.68

> <Gold.PLP.Fitness>
47.0739

> <Gold.PLP.PLP>
-45.7005

> <Gold.PLP.part.hbond>
-1.0000

> <Gold.PLP.part.metal>
0.0000

> <Gold.PLP.part.buried>
0.5227

> <Gold.PLP.part.nonpolar>
-46.6062

> <Gold.PLP.part.repulsive>
0.1379

> <Gold.PLP.ligand.clash>
0.0000

> <Gold.PLP.ligand.torsion>
0.6798

> <Gold.PLP.Chemscore.Hbond>
0.6843

> <Gold.PLP.Chemscore.CHOScore>
0.0000

> <Gold.PLP.Chemscore.Metal>
0.0000

> <Gold.Chemscore.Hbonds>
donor molecule, donor type, donor heavy atom, donor atom, acceptor molecule, acceptor atom, score
      P1  H  3712  3721       L1     3  0.68

> <Gold.PLP.Chemscore.Internal.Correction>
0.6802

