#       Name:                EN300-194291_i002
#       Creating user name   fsindt
#       Creation time:       Tue Feb 28 19:42:25 2023


#       File generated by GOLD software.
#

@<TRIPOS>MOLECULE
EN300-194291_i002|acide_2|mol2|6787|dock17
    25    26     1
SMALL
USER_CHARGES


@<TRIPOS>ATOM
      1 O1          -0.4982 -18.1512  14.2912 O.co2          1 <1>               -1.0000
      2 C2           0.0521 -17.1031  13.9993 C.2            1 <1>                0.0000
      3 O3           0.6939 -16.4968  14.8401 O.co2          1 <1>                0.0000
      4 C4          -0.0561 -16.5601  12.5977 C.3            1 <1>                0.0000
      5 C5          -0.7005 -15.1561  12.5969 C.3            1 <1>                0.0000
      6 N6          -0.0085 -14.4083  11.5405 N.am           1 <1>                0.0000
      7 C7           1.1450 -15.0056  11.1949 C.2            1 <1>                0.0000
      8 O8           1.9150 -14.5946  10.3527 O.2            1 <1>                0.0000
      9 C9           1.3430 -16.2652  12.0090 C.3            1 <1>                0.0000
     10 C10         -0.4881 -13.2244  10.9668 C.ar           1 <1>                0.0000
     11 C11         -1.3208 -12.3865  11.6960 C.ar           1 <1>                0.0000
     12 C12         -1.7932 -11.2183  11.1294 C.ar           1 <1>                0.0000
     13 C13         -1.4376 -10.8823   9.8348 C.ar           1 <1>                0.0000
     14 F14         -1.9008  -9.7395   9.2829 F              1 <1>                0.0000
     15 C15         -0.6058 -11.7175   9.1037 C.ar           1 <1>                0.0000
     16 F16         -0.2592 -11.3879   7.8401 F              1 <1>                0.0000
     17 C17         -0.1267 -12.8845   9.6699 C.ar           1 <1>                0.0000
     18 H18         -0.6126 -17.2451  11.9580 H              1 <1>                0.0000
     19 H19         -1.7645 -15.2296  12.3720 H              1 <1>                0.0000
     20 H20         -0.5507 -14.6718  13.5619 H              1 <1>                0.0000
     21 H21          2.0645 -16.0936  12.8079 H              1 <1>                0.0000
     22 H22          1.6685 -17.0856  11.3694 H              1 <1>                0.0000
     23 H23         -1.5995 -12.6479  12.7061 H              1 <1>                0.0000
     24 H24         -2.4410 -10.5667  11.6971 H              1 <1>                0.0000
     25 H25          0.5210 -13.5351   9.1011 H              1 <1>                0.0000
@<TRIPOS>BOND
    1    1    2 ar    
    2    2    3 ar    
    3    2    4 1     
    4    4    5 1     
    5    4    9 1     
    6    4   18 1     
    7    5    6 1     
    8    5   19 1     
    9    5   20 1     
   10    6    7 am    
   11    6   10 1     
   12    7    8 2     
   13    7    9 1     
   14    9   21 1     
   15    9   22 1     
   16   10   11 ar    
   17   10   17 ar    
   18   11   12 ar    
   19   11   23 1     
   20   12   13 ar    
   21   12   24 1     
   22   13   14 1     
   23   13   15 ar    
   24   15   16 1     
   25   15   17 ar    
   26   17   25 1     
@<TRIPOS>SUBSTRUCTURE
      1 ****           1
@<TRIPOS>COMMENT
> <Gold.Version>
2022.2.0

> <Gold.Id.Protein>
3pbl|protein|mol2

> <Gold.Protein.RotatedTorsions>
[ 1303 1298 1297 1294 ] final  -60.69 input  179.99 | X-H torsion
[ 2461 2456 2455 2452 ] final -124.14 input   30.03 | X-H torsion
[ 2515 2510 2509 2506 ] final   67.91 input  -89.99 | X-H torsion
[ 3721 3712 3711 3710 ] final   -1.24 input -179.91 | X-H torsion
[ 3841 3832 3831 3830 ] final  172.02 input -179.91 | X-H torsion
[ 3767 3762 3761 3758 ] final -100.57 input  -89.99 | X-H torsion
[ 2472 2467 2466 2463 ] final  -45.33 input  -89.97 | X-H torsion

> <Gold.Protein.ActiveResidues>
 VAL82   VAL86   LEU89   PHE106  VAL107  ASP110  VAL111  MET112  CYS114  THR115 
 CYS181  SER182  ILE183  PHE188  VAL189  ILE190  SER192  SER193  SER196  TRP342 
 PHE345  PHE346  HIS349  VAL350  TYR365  THR369  GLY372  TYR373 

> <Gold.Protein.RotatedAtoms>
    3.5046   -8.9666    3.7781 H   0  0  0  0  0  0  0  0  0  0  0  0  # atno 1303 bound_to 1298
    0.6224   -9.2001    8.0952 H   0  0  0  0  0  0  0  0  0  0  0  0  # atno 2461 bound_to 2456
   -3.6517   -5.1030    8.7477 H   0  0  0  0  0  0  0  0  0  0  0  0  # atno 2472 bound_to 2467
    2.1131   -7.5131    5.5628 H   0  0  0  0  0  0  0  0  0  0  0  0  # atno 2515 bound_to 2510
   -2.4896  -17.9493   14.2594 H   0  0  0  0  0  0  0  0  0  0  0  0  # atno 3721 bound_to 3712
   -5.1034  -21.9151   11.3363 H   0  0  0  0  0  0  0  0  0  0  0  0  # atno 3767 bound_to 3762
    3.0206  -20.1429    8.4556 H   0  0  0  0  0  0  0  0  0  0  0  0  # atno 3841 bound_to 3832
    4.8589   -8.8840    4.6866 LP  0  0  0  0  0  0  0  0  0  0  0  0  # atno 4297 bound_to 1298
    3.9989  -10.2709    4.6271 LP  0  0  0  0  0  0  0  0  0  0  0  0  # atno 4298 bound_to 1298
    2.1380   -8.5962    8.0209 LP  0  0  0  0  0  0  0  0  0  0  0  0  # atno 4299 bound_to 2456
    0.9772   -8.0120    7.0321 LP  0  0  0  0  0  0  0  0  0  0  0  0  # atno 4300 bound_to 2456
    2.8057   -8.3733    4.3603 LP  0  0  0  0  0  0  0  0  0  0  0  0  # atno 4301 bound_to 2510
    2.3781   -9.1131    5.7519 LP  0  0  0  0  0  0  0  0  0  0  0  0  # atno 4302 bound_to 2510
   -3.4488  -16.6741   14.4380 LP  0  0  0  0  0  0  0  0  0  0  0  0  # atno 4306 bound_to 3712
   -3.2046  -17.3294   12.9623 LP  0  0  0  0  0  0  0  0  0  0  0  0  # atno 4307 bound_to 3712
    2.2525  -21.1074    9.4831 LP  0  0  0  0  0  0  0  0  0  0  0  0  # atno 4314 bound_to 3832
    1.4875  -19.8298    8.8130 LP  0  0  0  0  0  0  0  0  0  0  0  0  # atno 4315 bound_to 3832
   -3.9072  -23.0135   11.1650 LP  0  0  0  0  0  0  0  0  0  0  0  0  # atno 4318 bound_to 3762
   -5.1169  -22.9463   10.0700 LP  0  0  0  0  0  0  0  0  0  0  0  0  # atno 4319 bound_to 3762
   -5.1875   -5.4321    9.1943 LP  0  0  0  0  0  0  0  0  0  0  0  0  # atno 4320 bound_to 2467
   -4.8776   -4.8584    7.6971 LP  0  0  0  0  0  0  0  0  0  0  0  0  # atno 4321 bound_to 2467

> <Gold.Score>
     Score     S(PLP)   S(hbond)     S(cho)   S(metal)  DE(clash)   DE(tors)     intcor
     48.78     -42.86       1.99       0.00       0.00       0.02       0.36       0.68

> <Gold.PLP.Fitness>
48.7765

> <Gold.PLP.PLP>
-42.8587

> <Gold.PLP.part.hbond>
-2.0000

> <Gold.PLP.part.metal>
0.0000

> <Gold.PLP.part.buried>
-1.5250

> <Gold.PLP.part.nonpolar>
-41.8948

> <Gold.PLP.part.repulsive>
0.4089

> <Gold.PLP.ligand.clash>
0.0216

> <Gold.PLP.ligand.torsion>
0.3572

> <Gold.PLP.Chemscore.Hbond>
1.9913

> <Gold.PLP.Chemscore.CHOScore>
0.0000

> <Gold.PLP.Chemscore.Metal>
0.0000

> <Gold.Chemscore.Hbonds>
donor molecule, donor type, donor heavy atom, donor atom, acceptor molecule, acceptor atom, score
      P1  H  2305  2313       L1     3  0.99
      P1  H  3712  3721       L1     1  1.00

> <Gold.PLP.Chemscore.Internal.Correction>
0.6802

