#       Name:                EN300-194291_i002
#       Creating user name   fsindt
#       Creation time:       Tue Feb 28 19:42:20 2023


#       File generated by GOLD software.
#

@<TRIPOS>MOLECULE
EN300-194291_i002|acide_2|mol2|6787|dock5
    25    26     1
SMALL
USER_CHARGES


@<TRIPOS>ATOM
      1 O1           0.8177 -15.8618  14.5942 O.co2          1 <1>               -1.0000
      2 C2          -0.0309 -16.4634  13.9582 C.2            1 <1>                0.0000
      3 O3          -0.5980 -17.4224  14.4535 O.co2          1 <1>                0.0000
      4 C4          -0.3832 -16.0181  12.5623 C.3            1 <1>                0.0000
      5 C5          -0.8673 -14.5511  12.5556 C.3            1 <1>                0.0000
      6 N6          -0.3475 -13.9729  11.3108 N.am           1 <1>                0.0000
      7 C7           0.6380 -14.7282  10.7959 C.2            1 <1>                0.0000
      8 O8           1.2459 -14.4767   9.7769 O.2            1 <1>                0.0000
      9 C9           0.8785 -15.9378  11.6721 C.3            1 <1>                0.0000
     10 C10         -0.8173 -12.7866  10.7341 C.ar           1 <1>                0.0000
     11 C11          0.0283 -12.0118   9.9519 C.ar           1 <1>                0.0000
     12 C12         -0.4361 -10.8416   9.3829 C.ar           1 <1>                0.0000
     13 C13         -1.7440 -10.4402   9.5922 C.ar           1 <1>                0.0000
     14 F14         -2.1959  -9.2956   9.0348 F              1 <1>                0.0000
     15 C15         -2.5912 -11.2122  10.3733 C.ar           1 <1>                0.0000
     16 F16         -3.8679 -10.8192  10.5763 F              1 <1>                0.0000
     17 C17         -2.1311 -12.3868  10.9395 C.ar           1 <1>                0.0000
     18 H18         -1.1308 -16.6777  12.1217 H              1 <1>                0.0000
     19 H19         -1.9567 -14.5134  12.5629 H              1 <1>                0.0000
     20 H20         -0.4649 -14.0172  13.4165 H              1 <1>                0.0000
     21 H21          1.7689 -15.7943  12.2844 H              1 <1>                0.0000
     22 H22          0.9738 -16.8370  11.0634 H              1 <1>                0.0000
     23 H23          1.0493 -12.3236   9.7884 H              1 <1>                0.0000
     24 H24          0.2221 -10.2392   8.7743 H              1 <1>                0.0000
     25 H25         -2.7903 -12.9883  11.5477 H              1 <1>                0.0000
@<TRIPOS>BOND
    1    1    2 ar    
    2    2    3 ar    
    3    2    4 1     
    4    4    5 1     
    5    4    9 1     
    6    4   18 1     
    7    5    6 1     
    8    5   19 1     
    9    5   20 1     
   10    6    7 am    
   11    6   10 1     
   12    7    8 2     
   13    7    9 1     
   14    9   21 1     
   15    9   22 1     
   16   10   11 ar    
   17   10   17 ar    
   18   11   12 ar    
   19   11   23 1     
   20   12   13 ar    
   21   12   24 1     
   22   13   14 1     
   23   13   15 ar    
   24   15   16 1     
   25   15   17 ar    
   26   17   25 1     
@<TRIPOS>SUBSTRUCTURE
      1 ****           1
@<TRIPOS>COMMENT
> <Gold.Version>
2022.2.0

> <Gold.Id.Protein>
3pbl|protein|mol2

> <Gold.Protein.RotatedTorsions>
[ 1303 1298 1297 1294 ] final   51.84 input  179.99 | X-H torsion
[ 2461 2456 2455 2452 ] final  -28.83 input   30.03 | X-H torsion
[ 2515 2510 2509 2506 ] final  -27.54 input  -89.99 | X-H torsion
[ 3721 3712 3711 3710 ] final   -3.33 input -179.91 | X-H torsion
[ 3841 3832 3831 3830 ] final  137.37 input -179.91 | X-H torsion
[ 3767 3762 3761 3758 ] final   12.16 input  -89.99 | X-H torsion
[ 2472 2467 2466 2463 ] final   41.74 input  -89.97 | X-H torsion

> <Gold.Protein.ActiveResidues>
 VAL82   VAL86   LEU89   PHE106  VAL107  ASP110  VAL111  MET112  CYS114  THR115 
 CYS181  SER182  ILE183  PHE188  VAL189  ILE190  SER192  SER193  SER196  TRP342 
 PHE345  PHE346  HIS349  VAL350  TYR365  THR369  GLY372  TYR373 

> <Gold.Protein.RotatedAtoms>
    3.8980  -10.2691    4.5570 H   0  0  0  0  0  0  0  0  0  0  0  0  # atno 1303 bound_to 1298
    0.6361   -8.2115    7.1124 H   0  0  0  0  0  0  0  0  0  0  0  0  # atno 2461 bound_to 2456
   -4.3464   -4.7994    7.6933 H   0  0  0  0  0  0  0  0  0  0  0  0  # atno 2472 bound_to 2467
    2.7083   -7.9859    4.3935 H   0  0  0  0  0  0  0  0  0  0  0  0  # atno 2515 bound_to 2510
   -2.4946  -17.9361   14.2877 H   0  0  0  0  0  0  0  0  0  0  0  0  # atno 3721 bound_to 3712
   -5.2006  -22.8631   10.0883 H   0  0  0  0  0  0  0  0  0  0  0  0  # atno 3767 bound_to 3762
    3.1318  -20.5502    8.7515 H   0  0  0  0  0  0  0  0  0  0  0  0  # atno 3841 bound_to 3832
    3.5745   -8.8659    3.7870 LP  0  0  0  0  0  0  0  0  0  0  0  0  # atno 4297 bound_to 1298
    4.8897   -8.9859    4.7475 LP  0  0  0  0  0  0  0  0  0  0  0  0  # atno 4298 bound_to 1298
    0.9595   -9.2862    8.2988 LP  0  0  0  0  0  0  0  0  0  0  0  0  # atno 4299 bound_to 2456
    2.1420   -8.3103    7.7367 LP  0  0  0  0  0  0  0  0  0  0  0  0  # atno 4300 bound_to 2456
    2.5492   -9.2489    5.4159 LP  0  0  0  0  0  0  0  0  0  0  0  0  # atno 4301 bound_to 2510
    2.0391   -7.7645    5.8662 LP  0  0  0  0  0  0  0  0  0  0  0  0  # atno 4302 bound_to 2510
   -3.4601  -16.6590   14.4086 LP  0  0  0  0  0  0  0  0  0  0  0  0  # atno 4306 bound_to 3712
   -3.1875  -17.3597   12.9590 LP  0  0  0  0  0  0  0  0  0  0  0  0  # atno 4307 bound_to 3712
    1.7594  -20.8262    9.5367 LP  0  0  0  0  0  0  0  0  0  0  0  0  # atno 4314 bound_to 3832
    1.8522  -19.6406    8.4177 LP  0  0  0  0  0  0  0  0  0  0  0  0  # atno 4315 bound_to 3832
   -5.0123  -21.9263   11.4126 LP  0  0  0  0  0  0  0  0  0  0  0  0  # atno 4318 bound_to 3762
   -3.9146  -23.0857   11.0699 LP  0  0  0  0  0  0  0  0  0  0  0  0  # atno 4319 bound_to 3762
   -3.8970   -5.2869    9.1855 LP  0  0  0  0  0  0  0  0  0  0  0  0  # atno 4320 bound_to 2467
   -5.4735   -5.3071    8.7602 LP  0  0  0  0  0  0  0  0  0  0  0  0  # atno 4321 bound_to 2467

> <Gold.Score>
     Score     S(PLP)   S(hbond)     S(cho)   S(metal)  DE(clash)   DE(tors)     intcor
     52.56     -47.37       1.75       0.00       0.00       0.00       0.37       0.68

> <Gold.PLP.Fitness>
52.5593

> <Gold.PLP.PLP>
-47.3655

> <Gold.PLP.part.hbond>
-2.0000

> <Gold.PLP.part.metal>
0.0000

> <Gold.PLP.part.buried>
-0.3257

> <Gold.PLP.part.nonpolar>
-46.2896

> <Gold.PLP.part.repulsive>
0.1666

> <Gold.PLP.ligand.clash>
0.0000

> <Gold.PLP.ligand.torsion>
0.3712

> <Gold.PLP.Chemscore.Hbond>
1.7520

> <Gold.PLP.Chemscore.CHOScore>
0.0000

> <Gold.PLP.Chemscore.Metal>
0.0000

> <Gold.Chemscore.Hbonds>
donor molecule, donor type, donor heavy atom, donor atom, acceptor molecule, acceptor atom, score
      P1  H  2305  2313       L1     1  1.00
      P1  H  3712  3721       L1     3  0.75

> <Gold.PLP.Chemscore.Internal.Correction>
0.6802

