#       Name:                EN300-194291_i002
#       Creating user name   fsindt
#       Creation time:       Tue Feb 28 19:42:24 2023


#       File generated by GOLD software.
#

@<TRIPOS>MOLECULE
EN300-194291_i002|acide_2|mol2|6787|dock14
    25    26     1
SMALL
USER_CHARGES


@<TRIPOS>ATOM
      1 O1          -0.8151 -10.2506   8.7177 O.co2          1 <1>               -1.0000
      2 C2          -0.4290 -10.8103   9.7297 C.2            1 <1>                0.0000
      3 O3          -0.7166 -10.3572  10.8245 O.co2          1 <1>                0.0000
      4 C4           0.3986 -12.0656   9.6276 C.3            1 <1>                0.0000
      5 C5          -0.3313 -13.2633  10.2751 C.3            1 <1>                0.0000
      6 N6          -0.0028 -14.4219   9.4362 N.am           1 <1>                0.0000
      7 C7           0.4735 -14.0387   8.2391 C.2            1 <1>                0.0000
      8 O8           0.8145 -14.7935   7.3531 O.2            1 <1>                0.0000
      9 C9           0.5222 -12.5288   8.1576 C.3            1 <1>                0.0000
     10 C10         -0.1651 -15.7552   9.8320 C.ar           1 <1>                0.0000
     11 C11          0.0492 -16.1185  11.1546 C.ar           1 <1>                0.0000
     12 C12         -0.1117 -17.4343  11.5444 C.ar           1 <1>                0.0000
     13 C13         -0.4860 -18.3912  10.6173 C.ar           1 <1>                0.0000
     14 F14         -0.6427 -19.6771  11.0008 F              1 <1>                0.0000
     15 C15         -0.7008 -18.0314   9.2951 C.ar           1 <1>                0.0000
     16 F16         -1.0666 -18.9667   8.3914 F              1 <1>                0.0000
     17 C17         -0.5462 -16.7144   8.9030 C.ar           1 <1>                0.0000
     18 H18          1.3818 -11.9196  10.0752 H              1 <1>                0.0000
     19 H19          0.0288 -13.4195  11.2919 H              1 <1>                0.0000
     20 H20         -1.4078 -13.0924  10.2774 H              1 <1>                0.0000
     21 H21         -0.3128 -12.1515   7.5672 H              1 <1>                0.0000
     22 H22          1.4706 -12.2001   7.7325 H              1 <1>                0.0000
     23 H23          0.3419 -15.3727  11.8788 H              1 <1>                0.0000
     24 H24          0.0551 -17.7164  12.5734 H              1 <1>                0.0000
     25 H25         -0.7134 -16.4336   7.8737 H              1 <1>                0.0000
@<TRIPOS>BOND
    1    1    2 ar    
    2    2    3 ar    
    3    2    4 1     
    4    4    5 1     
    5    4    9 1     
    6    4   18 1     
    7    5    6 1     
    8    5   19 1     
    9    5   20 1     
   10    6    7 am    
   11    6   10 1     
   12    7    8 2     
   13    7    9 1     
   14    9   21 1     
   15    9   22 1     
   16   10   11 ar    
   17   10   17 ar    
   18   11   12 ar    
   19   11   23 1     
   20   12   13 ar    
   21   12   24 1     
   22   13   14 1     
   23   13   15 ar    
   24   15   16 1     
   25   15   17 ar    
   26   17   25 1     
@<TRIPOS>SUBSTRUCTURE
      1 ****           1
@<TRIPOS>COMMENT
> <Gold.Version>
2022.2.0

> <Gold.Id.Protein>
3pbl|protein|mol2

> <Gold.Protein.RotatedTorsions>
[ 1303 1298 1297 1294 ] final   43.73 input  179.99 | X-H torsion
[ 2461 2456 2455 2452 ] final -111.83 input   30.03 | X-H torsion
[ 2515 2510 2509 2506 ] final   51.45 input  -89.99 | X-H torsion
[ 3721 3712 3711 3710 ] final  -34.01 input -179.91 | X-H torsion
[ 3841 3832 3831 3830 ] final  -19.27 input -179.91 | X-H torsion
[ 3767 3762 3761 3758 ] final -126.78 input  -89.99 | X-H torsion
[ 2472 2467 2466 2463 ] final   73.68 input  -89.97 | X-H torsion

> <Gold.Protein.ActiveResidues>
 VAL82   VAL86   LEU89   PHE106  VAL107  ASP110  VAL111  MET112  CYS114  THR115 
 CYS181  SER182  ILE183  PHE188  VAL189  ILE190  SER192  SER193  SER196  TRP342 
 PHE345  PHE346  HIS349  VAL350  TYR365  THR369  GLY372  TYR373 

> <Gold.Protein.RotatedAtoms>
    3.7932  -10.2504    4.4768 H   0  0  0  0  0  0  0  0  0  0  0  0  # atno 1303 bound_to 1298
    0.4937   -9.1144    7.9647 H   0  0  0  0  0  0  0  0  0  0  0  0  # atno 2461 bound_to 2456
   -4.8622   -4.8559    7.6925 H   0  0  0  0  0  0  0  0  0  0  0  0  # atno 2472 bound_to 2467
    2.1961   -7.4258    5.3214 H   0  0  0  0  0  0  0  0  0  0  0  0  # atno 2515 bound_to 2510
   -2.6258  -17.6550   14.6250 H   0  0  0  0  0  0  0  0  0  0  0  0  # atno 3721 bound_to 3712
   -4.7543  -22.0052   11.5662 H   0  0  0  0  0  0  0  0  0  0  0  0  # atno 3767 bound_to 3762
    1.6076  -20.2589    9.4345 H   0  0  0  0  0  0  0  0  0  0  0  0  # atno 3841 bound_to 3832
    3.6607   -8.7665    3.8083 LP  0  0  0  0  0  0  0  0  0  0  0  0  # atno 4297 bound_to 1298
    4.9084   -9.1041    4.8064 LP  0  0  0  0  0  0  0  0  0  0  0  0  # atno 4298 bound_to 1298
    2.0738   -8.7426    8.1448 LP  0  0  0  0  0  0  0  0  0  0  0  0  # atno 4299 bound_to 2456
    1.1699   -7.9513    7.0387 LP  0  0  0  0  0  0  0  0  0  0  0  0  # atno 4300 bound_to 2456
    2.8338   -8.6335    4.4267 LP  0  0  0  0  0  0  0  0  0  0  0  0  # atno 4301 bound_to 2510
    2.2670   -8.9403    5.9271 LP  0  0  0  0  0  0  0  0  0  0  0  0  # atno 4302 bound_to 2510
   -3.5624  -16.5558   13.9233 LP  0  0  0  0  0  0  0  0  0  0  0  0  # atno 4306 bound_to 3712
   -2.9338  -17.7876   13.0549 LP  0  0  0  0  0  0  0  0  0  0  0  0  # atno 4307 bound_to 3712
    2.4354  -19.7520    8.1563 LP  0  0  0  0  0  0  0  0  0  0  0  0  # atno 4314 bound_to 3832
    2.9370  -21.0512    9.0090 LP  0  0  0  0  0  0  0  0  0  0  0  0  # atno 4315 bound_to 3832
   -3.9930  -23.2364   10.8103 LP  0  0  0  0  0  0  0  0  0  0  0  0  # atno 4318 bound_to 3762
   -5.3801  -22.6332   10.1948 LP  0  0  0  0  0  0  0  0  0  0  0  0  # atno 4319 bound_to 3762
   -3.6550   -5.1080    8.7628 LP  0  0  0  0  0  0  0  0  0  0  0  0  # atno 4320 bound_to 2467
   -5.1997   -5.4296    9.1836 LP  0  0  0  0  0  0  0  0  0  0  0  0  # atno 4321 bound_to 2467

> <Gold.Score>
     Score     S(PLP)   S(hbond)     S(cho)   S(metal)  DE(clash)   DE(tors)     intcor
     46.18     -43.56       1.00       0.00       0.00       0.00       0.53       0.68

> <Gold.PLP.Fitness>
46.1792

> <Gold.PLP.PLP>
-43.5613

> <Gold.PLP.part.hbond>
-1.0000

> <Gold.PLP.part.metal>
0.0000

> <Gold.PLP.part.buried>
-5.0085

> <Gold.PLP.part.nonpolar>
-40.3694

> <Gold.PLP.part.repulsive>
0.2107

> <Gold.PLP.ligand.clash>
0.0000

> <Gold.PLP.ligand.torsion>
0.5311

> <Gold.PLP.Chemscore.Hbond>
1.0000

> <Gold.PLP.Chemscore.CHOScore>
0.0000

> <Gold.PLP.Chemscore.Metal>
0.0000

> <Gold.Chemscore.Hbonds>
donor molecule, donor type, donor heavy atom, donor atom, acceptor molecule, acceptor atom, score
      P1  H  2456  2461       L1     1  1.00

> <Gold.PLP.Chemscore.Internal.Correction>
0.6802

