#       Name:                EN300-194291_i002
#       Creating user name   fsindt
#       Creation time:       Tue Feb 28 19:42:21 2023


#       File generated by GOLD software.
#

@<TRIPOS>MOLECULE
EN300-194291_i002|acide_2|mol2|6787|dock9
    25    26     1
SMALL
USER_CHARGES


@<TRIPOS>ATOM
      1 O1          -0.5756 -20.5192  11.8122 O.co2          1 <1>               -1.0000
      2 C2          -0.6539 -19.6764  12.6898 C.2            1 <1>                0.0000
      3 O3          -1.4129 -19.8433  13.6292 O.co2          1 <1>                0.0000
      4 C4           0.1918 -18.4313  12.6164 C.3            1 <1>                0.0000
      5 C5          -0.2989 -17.4952  11.4898 C.3            1 <1>                0.0000
      6 N6          -0.1170 -16.1331  12.0054 N.am           1 <1>                0.0000
      7 C7           0.0409 -16.1334  13.3402 C.2            1 <1>                0.0000
      8 O8           0.2023 -15.1426  14.0209 O.2            1 <1>                0.0000
      9 C9          -0.0117 -17.5494  13.8701 C.3            1 <1>                0.0000
     10 C10         -0.1095 -14.9814  11.2091 C.ar           1 <1>                0.0000
     11 C11         -0.7081 -13.8157  11.6676 C.ar           1 <1>                0.0000
     12 C12         -0.6999 -12.6795  10.8814 C.ar           1 <1>                0.0000
     13 C13         -0.0958 -12.7021   9.6365 C.ar           1 <1>                0.0000
     14 F14         -0.0891 -11.5899   8.8696 F              1 <1>                0.0000
     15 C15          0.5030 -13.8652   9.1756 C.ar           1 <1>                0.0000
     16 F16          1.0927 -13.8855   7.9602 F              1 <1>                0.0000
     17 C17          0.5015 -15.0024   9.9624 C.ar           1 <1>                0.0000
     18 H18          1.2437 -18.6840  12.4832 H              1 <1>                0.0000
     19 H19          0.2996 -17.6412  10.5906 H              1 <1>                0.0000
     20 H20         -1.3518 -17.6806  11.2772 H              1 <1>                0.0000
     21 H21         -0.9817 -17.7508  14.3247 H              1 <1>                0.0000
     22 H22          0.7900 -17.7178  14.5892 H              1 <1>                0.0000
     23 H23         -1.1804 -13.7971  12.6386 H              1 <1>                0.0000
     24 H24         -1.1656 -11.7730  11.2386 H              1 <1>                0.0000
     25 H25          0.9677 -15.9083   9.6041 H              1 <1>                0.0000
@<TRIPOS>BOND
    1    1    2 ar    
    2    2    3 ar    
    3    2    4 1     
    4    4    5 1     
    5    4    9 1     
    6    4   18 1     
    7    5    6 1     
    8    5   19 1     
    9    5   20 1     
   10    6    7 am    
   11    6   10 1     
   12    7    8 2     
   13    7    9 1     
   14    9   21 1     
   15    9   22 1     
   16   10   11 ar    
   17   10   17 ar    
   18   11   12 ar    
   19   11   23 1     
   20   12   13 ar    
   21   12   24 1     
   22   13   14 1     
   23   13   15 ar    
   24   15   16 1     
   25   15   17 ar    
   26   17   25 1     
@<TRIPOS>SUBSTRUCTURE
      1 ****           1
@<TRIPOS>COMMENT
> <Gold.Version>
2022.2.0

> <Gold.Id.Protein>
3pbl|protein|mol2

> <Gold.Protein.RotatedTorsions>
[ 1303 1298 1297 1294 ] final  -78.20 input  179.99 | X-H torsion
[ 2461 2456 2455 2452 ] final -149.25 input   30.03 | X-H torsion
[ 2515 2510 2509 2506 ] final   82.90 input  -89.99 | X-H torsion
[ 3721 3712 3711 3710 ] final   30.35 input -179.91 | X-H torsion
[ 3841 3832 3831 3830 ] final  115.86 input -179.91 | X-H torsion
[ 3767 3762 3761 3758 ] final   22.29 input  -89.99 | X-H torsion
[ 2472 2467 2466 2463 ] final    2.34 input  -89.97 | X-H torsion

> <Gold.Protein.ActiveResidues>
 VAL82   VAL86   LEU89   PHE106  VAL107  ASP110  VAL111  MET112  CYS114  THR115 
 CYS181  SER182  ILE183  PHE188  VAL189  ILE190  SER192  SER193  SER196  TRP342 
 PHE345  PHE346  HIS349  VAL350  TYR365  THR369  GLY372  TYR373 

> <Gold.Protein.RotatedAtoms>
    3.6824   -8.7447    3.8156 H   0  0  0  0  0  0  0  0  0  0  0  0  # atno 1303 bound_to 1298
    0.9658   -9.2868    8.3017 H   0  0  0  0  0  0  0  0  0  0  0  0  # atno 2461 bound_to 2456
   -3.8200   -4.8675    8.0430 H   0  0  0  0  0  0  0  0  0  0  0  0  # atno 2472 bound_to 2467
    2.0601   -7.6515    5.7592 H   0  0  0  0  0  0  0  0  0  0  0  0  # atno 2515 bound_to 2510
   -2.4832  -18.0325   13.7953 H   0  0  0  0  0  0  0  0  0  0  0  0  # atno 3721 bound_to 3712
   -5.0815  -22.9772   10.0655 H   0  0  0  0  0  0  0  0  0  0  0  0  # atno 3767 bound_to 3762
    3.0591  -20.7610    8.9853 H   0  0  0  0  0  0  0  0  0  0  0  0  # atno 3841 bound_to 3832
    4.9105   -9.1332    4.8191 LP  0  0  0  0  0  0  0  0  0  0  0  0  # atno 4297 bound_to 1298
    3.7694  -10.2437    4.4571 LP  0  0  0  0  0  0  0  0  0  0  0  0  # atno 4298 bound_to 1298
    2.1406   -8.3058    7.7317 LP  0  0  0  0  0  0  0  0  0  0  0  0  # atno 4299 bound_to 2456
    0.6312   -8.2158    7.1149 LP  0  0  0  0  0  0  0  0  0  0  0  0  # atno 4300 bound_to 2456
    2.7533   -8.1329    4.3615 LP  0  0  0  0  0  0  0  0  0  0  0  0  # atno 4301 bound_to 2510
    2.4835   -9.2150    5.5543 LP  0  0  0  0  0  0  0  0  0  0  0  0  # atno 4302 bound_to 2510
   -3.2296  -17.0042   14.7768 LP  0  0  0  0  0  0  0  0  0  0  0  0  # atno 4306 bound_to 3712
   -3.4312  -16.9033   13.1594 LP  0  0  0  0  0  0  0  0  0  0  0  0  # atno 4307 bound_to 3712
    1.5333  -20.5657    9.4435 LP  0  0  0  0  0  0  0  0  0  0  0  0  # atno 4314 bound_to 3832
    2.1623  -19.6575    8.2409 LP  0  0  0  0  0  0  0  0  0  0  0  0  # atno 4315 bound_to 3832
   -5.1382  -21.9147   11.3043 LP  0  0  0  0  0  0  0  0  0  0  0  0  # atno 4318 bound_to 3762
   -3.9078  -22.9834   11.2010 LP  0  0  0  0  0  0  0  0  0  0  0  0  # atno 4319 bound_to 3762
   -4.4634   -5.4378    9.4312 LP  0  0  0  0  0  0  0  0  0  0  0  0  # atno 4320 bound_to 2467
   -5.4334   -5.0882    8.1649 LP  0  0  0  0  0  0  0  0  0  0  0  0  # atno 4321 bound_to 2467

> <Gold.Score>
     Score     S(PLP)   S(hbond)     S(cho)   S(metal)  DE(clash)   DE(tors)     intcor
     47.04     -41.84       1.98       0.00       0.00       0.00       0.70       0.68

> <Gold.PLP.Fitness>
47.0383

> <Gold.PLP.PLP>
-41.8421

> <Gold.PLP.part.hbond>
-2.0000

> <Gold.PLP.part.metal>
0.0000

> <Gold.PLP.part.buried>
-2.2310

> <Gold.PLP.part.nonpolar>
-38.9019

> <Gold.PLP.part.repulsive>
0.0877

> <Gold.PLP.ligand.clash>
0.0000

> <Gold.PLP.ligand.torsion>
0.7045

> <Gold.PLP.Chemscore.Hbond>
1.9750

> <Gold.PLP.Chemscore.CHOScore>
0.0000

> <Gold.PLP.Chemscore.Metal>
0.0000

> <Gold.Chemscore.Hbonds>
donor molecule, donor type, donor heavy atom, donor atom, acceptor molecule, acceptor atom, score
      P1  H  2305  2313       L1     8  1.00
      P1  H  3712  3721       L1     3  0.98

> <Gold.PLP.Chemscore.Internal.Correction>
0.6802

