#       Name:                EN300-194291_i002
#       Creating user name   fsindt
#       Creation time:       Tue Feb 28 19:42:19 2023


#       File generated by GOLD software.
#

@<TRIPOS>MOLECULE
EN300-194291_i002|acide_2|mol2|6787|dock1
    25    26     1
SMALL
USER_CHARGES


@<TRIPOS>ATOM
      1 O1          -3.1114 -11.7027  10.4907 O.co2          1 <1>               -1.0000
      2 C2          -2.0529 -11.2560  10.0827 C.2            1 <1>                0.0000
      3 O3          -2.0471 -10.3238   9.2969 O.co2          1 <1>                0.0000
      4 C4          -0.7516 -11.8520  10.5543 C.3            1 <1>                0.0000
      5 C5          -1.0011 -13.0104  11.5455 C.3            1 <1>                0.0000
      6 N6           0.0409 -14.0032  11.2578 N.am           1 <1>                0.0000
      7 C7           0.6026 -13.7872  10.0558 C.2            1 <1>                0.0000
      8 O8           1.4836 -14.4638   9.5690 O.2            1 <1>                0.0000
      9 C9          -0.0240 -12.5771   9.3986 C.3            1 <1>                0.0000
     10 C10          0.4029 -15.0422  12.1238 C.ar           1 <1>                0.0000
     11 C11         -0.5227 -15.5494  13.0257 C.ar           1 <1>                0.0000
     12 C12         -0.1648 -16.5750  13.8796 C.ar           1 <1>                0.0000
     13 C13          1.1161 -17.0973  13.8374 C.ar           1 <1>                0.0000
     14 F14          1.4637 -18.1000  14.6733 F              1 <1>                0.0000
     15 C15          2.0431 -16.5926  12.9374 C.ar           1 <1>                0.0000
     16 F16          3.2930 -17.1039  12.8972 F              1 <1>                0.0000
     17 C17          1.6863 -15.5701  12.0776 C.ar           1 <1>                0.0000
     18 H18         -0.1137 -11.0884  10.9994 H              1 <1>                0.0000
     19 H19         -0.9102 -12.6548  12.5718 H              1 <1>                0.0000
     20 H20         -1.9886 -13.4415  11.3809 H              1 <1>                0.0000
     21 H21         -0.7363 -12.8849   8.6329 H              1 <1>                0.0000
     22 H22          0.7451 -11.9350   8.9694 H              1 <1>                0.0000
     23 H23         -1.5223 -15.1422  13.0600 H              1 <1>                0.0000
     24 H24         -0.8852 -16.9692  14.5809 H              1 <1>                0.0000
     25 H25          2.4077 -15.1768  11.3766 H              1 <1>                0.0000
@<TRIPOS>BOND
    1    1    2 ar    
    2    2    3 ar    
    3    2    4 1     
    4    4    5 1     
    5    4    9 1     
    6    4   18 1     
    7    5    6 1     
    8    5   19 1     
    9    5   20 1     
   10    6    7 am    
   11    6   10 1     
   12    7    8 2     
   13    7    9 1     
   14    9   21 1     
   15    9   22 1     
   16   10   11 ar    
   17   10   17 ar    
   18   11   12 ar    
   19   11   23 1     
   20   12   13 ar    
   21   12   24 1     
   22   13   14 1     
   23   13   15 ar    
   24   15   16 1     
   25   15   17 ar    
   26   17   25 1     
@<TRIPOS>SUBSTRUCTURE
      1 ****           1
@<TRIPOS>COMMENT
> <Gold.Version>
2022.2.0

> <Gold.Id.Protein>
3pbl|protein|mol2

> <Gold.Protein.RotatedTorsions>
[ 1303 1298 1297 1294 ] final -159.46 input  179.99 | X-H torsion
[ 2461 2456 2455 2452 ] final  -94.19 input   30.03 | X-H torsion
[ 2515 2510 2509 2506 ] final -113.32 input  -89.99 | X-H torsion
[ 3721 3712 3711 3710 ] final   44.46 input -179.91 | X-H torsion
[ 3841 3832 3831 3830 ] final -122.05 input -179.91 | X-H torsion
[ 3767 3762 3761 3758 ] final  -85.59 input  -89.99 | X-H torsion
[ 2472 2467 2466 2463 ] final   96.82 input  -89.97 | X-H torsion

> <Gold.Protein.ActiveResidues>
 VAL82   VAL86   LEU89   PHE106  VAL107  ASP110  VAL111  MET112  CYS114  THR115 
 CYS181  SER182  ILE183  PHE188  VAL189  ILE190  SER192  SER193  SER196  TRP342 
 PHE345  PHE346  HIS349  VAL350  TYR365  THR369  GLY372  TYR373 

> <Gold.Protein.RotatedAtoms>
    4.7050   -8.6445    4.4873 H   0  0  0  0  0  0  0  0  0  0  0  0  # atno 1303 bound_to 1298
    0.3709   -8.9519    7.7594 H   0  0  0  0  0  0  0  0  0  0  0  0  # atno 2461 bound_to 2456
   -5.1893   -4.9510    7.8567 H   0  0  0  0  0  0  0  0  0  0  0  0  # atno 2472 bound_to 2467
    2.7463   -9.1618    4.9046 H   0  0  0  0  0  0  0  0  0  0  0  0  # atno 2515 bound_to 2510
   -2.5220  -17.9968   13.5892 H   0  0  0  0  0  0  0  0  0  0  0  0  # atno 3721 bound_to 3712
   -5.2706  -21.9291   11.1566 H   0  0  0  0  0  0  0  0  0  0  0  0  # atno 3767 bound_to 3762
    2.2516  -19.5988    8.4447 H   0  0  0  0  0  0  0  0  0  0  0  0  # atno 3841 bound_to 3832
    4.2902  -10.1927    4.7992 LP  0  0  0  0  0  0  0  0  0  0  0  0  # atno 4297 bound_to 1298
    3.3667   -9.2844    3.8050 LP  0  0  0  0  0  0  0  0  0  0  0  0  # atno 4298 bound_to 1298
    1.9167   -8.9395    8.2866 LP  0  0  0  0  0  0  0  0  0  0  0  0  # atno 4299 bound_to 2456
    1.4499   -7.9169    7.1021 LP  0  0  0  0  0  0  0  0  0  0  0  0  # atno 4300 bound_to 2456
    2.0555   -8.2731    6.0873 LP  0  0  0  0  0  0  0  0  0  0  0  0  # atno 4301 bound_to 2510
    2.4948   -7.5638    4.6835 LP  0  0  0  0  0  0  0  0  0  0  0  0  # atno 4302 bound_to 2510
   -3.1135  -17.1956   14.8485 LP  0  0  0  0  0  0  0  0  0  0  0  0  # atno 4306 bound_to 3712
   -3.5025  -16.7531   13.3256 LP  0  0  0  0  0  0  0  0  0  0  0  0  # atno 4307 bound_to 3712
    3.0501  -20.9353    8.8352 LP  0  0  0  0  0  0  0  0  0  0  0  0  # atno 4314 bound_to 3832
    1.5783  -20.6304    9.4736 LP  0  0  0  0  0  0  0  0  0  0  0  0  # atno 4315 bound_to 3832
   -3.9325  -22.8465   11.3435 LP  0  0  0  0  0  0  0  0  0  0  0  0  # atno 4318 bound_to 3762
   -4.9245  -23.0992   10.0711 LP  0  0  0  0  0  0  0  0  0  0  0  0  # atno 4319 bound_to 3762
   -3.6523   -4.9795    8.4072 LP  0  0  0  0  0  0  0  0  0  0  0  0  # atno 4320 bound_to 2467
   -4.8754   -5.4629    9.3752 LP  0  0  0  0  0  0  0  0  0  0  0  0  # atno 4321 bound_to 2467

> <Gold.Score>
     Score     S(PLP)   S(hbond)     S(cho)   S(metal)  DE(clash)   DE(tors)     intcor
     49.50     -49.57       0.00       0.00       0.00       0.03       0.37       0.69

> <Gold.PLP.Fitness>
49.4962

> <Gold.PLP.PLP>
-49.5726

> <Gold.PLP.part.hbond>
0.0000

> <Gold.PLP.part.metal>
0.0000

> <Gold.PLP.part.buried>
-4.7934

> <Gold.PLP.part.nonpolar>
-46.1066

> <Gold.PLP.part.repulsive>
0.2208

> <Gold.PLP.ligand.clash>
0.0309

> <Gold.PLP.ligand.torsion>
0.3653

> <Gold.PLP.Chemscore.Hbond>
0.0000

> <Gold.PLP.Chemscore.CHOScore>
0.0000

> <Gold.PLP.Chemscore.Metal>
0.0000

> <Gold.PLP.Chemscore.Internal.Correction>
0.6852

