#       Name:                EN300-266260_i002
#       Creating user name   fsindt
#       Creation time:       Wed Mar  1 08:11:42 2023


#       File generated by GOLD software.
#

@<TRIPOS>MOLECULE
EN300-266260_i002|acide_1|mol2|7357|dock18
    29    28     1
SMALL
USER_CHARGES


@<TRIPOS>ATOM
      1 C1           3.4915 -17.0991  12.6056 C.3            1 <1>                0.0000
      2 O2           2.3842 -18.0025  12.6018 O.3            1 <1>                0.0000
      3 C3           1.4602 -17.7939  13.6716 C.3            1 <1>                0.0000
      4 C4           2.2192 -17.7461  14.9991 C.3            1 <1>                0.0000
      5 C5           0.7340 -16.4903  13.4611 C.2            1 <1>                0.0000
      6 O6           0.0793 -16.3139  12.4477 O.co2          1 <1>                0.0000
      7 O7           0.8010 -15.6120  14.3041 O.co2          1 <1>               -1.0000
      8 C8           0.4642 -18.9244  13.7028 C.2            1 <1>                0.0000
      9 O9          -0.7069 -18.7033  13.5042 O.2            1 <1>                0.0000
     10 O10          0.8780 -20.1769  13.9513 O.3            1 <1>                0.0000
     11 C11          0.0611 -21.2571  13.4280 C.3            1 <1>                0.0000
     12 C12          0.8036 -22.5846  13.5938 C.3            1 <1>                0.0000
     13 C13         -1.2619 -21.3135  14.1946 C.3            1 <1>                0.0000
     14 C14         -0.2194 -21.0116  11.9440 C.3            1 <1>                0.0000
     15 H15          3.1259 -16.0759  12.5199 H              1 <1>                0.0000
     16 H16          4.0472 -17.2096  13.5368 H              1 <1>                0.0000
     17 H17          4.1460 -17.3229  11.7632 H              1 <1>                0.0000
     18 H18          2.9396 -16.9285  14.9767 H              1 <1>                0.0000
     19 H19          1.5143 -17.5870  15.8152 H              1 <1>                0.0000
     20 H20          2.7445 -18.6891  15.1514 H              1 <1>                0.0000
     21 H21          1.0034 -22.7595  14.6510 H              1 <1>                0.0000
     22 H22          0.1903 -23.3955  13.2010 H              1 <1>                0.0000
     23 H23          1.7460 -22.5444  13.0477 H              1 <1>                0.0000
     24 H24         -1.7908 -20.3678  14.0763 H              1 <1>                0.0000
     25 H25         -1.8751 -22.1244  13.8018 H              1 <1>                0.0000
     26 H26         -1.0620 -21.4884  15.2517 H              1 <1>                0.0000
     27 H27          0.7230 -20.9716  11.3980 H              1 <1>                0.0000
     28 H28         -0.8327 -21.8226  11.5512 H              1 <1>                0.0000
     29 H29         -0.7484 -20.0660  11.8259 H              1 <1>                0.0000
@<TRIPOS>BOND
    1    1    2 1     
    2    1   15 1     
    3    1   16 1     
    4    1   17 1     
    5    2    3 1     
    6    3    4 1     
    7    3    5 1     
    8    3    8 1     
    9    4   18 1     
   10    4   19 1     
   11    4   20 1     
   12    5    6 ar    
   13    5    7 ar    
   14    8    9 2     
   15    8   10 1     
   16   10   11 1     
   17   11   12 1     
   18   11   13 1     
   19   11   14 1     
   20   12   21 1     
   21   12   22 1     
   22   12   23 1     
   23   13   24 1     
   24   13   25 1     
   25   13   26 1     
   26   14   27 1     
   27   14   28 1     
   28   14   29 1     
@<TRIPOS>SUBSTRUCTURE
      1 ****           1
@<TRIPOS>COMMENT
> <Gold.Version>
2022.2.0

> <Gold.Id.Protein>
3pbl|protein|mol2

> <Gold.Protein.RotatedTorsions>
[ 1303 1298 1297 1294 ] final -171.50 input  179.99 | X-H torsion
[ 2461 2456 2455 2452 ] final -161.43 input   30.03 | X-H torsion
[ 2515 2510 2509 2506 ] final  -90.31 input  -89.99 | X-H torsion
[ 3721 3712 3711 3710 ] final   33.48 input -179.91 | X-H torsion
[ 3841 3832 3831 3830 ] final  157.50 input -179.91 | X-H torsion
[ 3767 3762 3761 3758 ] final  -55.96 input  -89.99 | X-H torsion
[ 2472 2467 2466 2463 ] final  -74.80 input  -89.97 | X-H torsion

> <Gold.Protein.ActiveResidues>
 VAL82   VAL86   LEU89   PHE106  VAL107  ASP110  VAL111  MET112  CYS114  THR115 
 CYS181  SER182  ILE183  PHE188  VAL189  ILE190  SER192  SER193  SER196  TRP342 
 PHE345  PHE346  HIS349  VAL350  TYR365  THR369  GLY372  TYR373 

> <Gold.Protein.RotatedAtoms>
    4.8034   -8.7700    4.6044 H   0  0  0  0  0  0  0  0  0  0  0  0  # atno 1303 bound_to 1298
    1.1560   -9.2824    8.3636 H   0  0  0  0  0  0  0  0  0  0  0  0  # atno 2461 bound_to 2456
   -3.8589   -5.2697    9.1470 H   0  0  0  0  0  0  0  0  0  0  0  0  # atno 2472 bound_to 2467
    2.8204   -8.9359    4.6135 H   0  0  0  0  0  0  0  0  0  0  0  0  # atno 2515 bound_to 2510
   -2.4897  -18.0284   13.7486 H   0  0  0  0  0  0  0  0  0  0  0  0  # atno 3721 bound_to 3712
   -5.4803  -22.0923   10.7541 H   0  0  0  0  0  0  0  0  0  0  0  0  # atno 3767 bound_to 3762
    3.1008  -20.3166    8.5616 H   0  0  0  0  0  0  0  0  0  0  0  0  # atno 3841 bound_to 3832
    4.1252  -10.2518    4.7075 LP  0  0  0  0  0  0  0  0  0  0  0  0  # atno 4297 bound_to 1298
    3.4333   -9.0998    3.7796 LP  0  0  0  0  0  0  0  0  0  0  0  0  # atno 4298 bound_to 1298
    2.0797   -8.1821    7.5869 LP  0  0  0  0  0  0  0  0  0  0  0  0  # atno 4299 bound_to 2456
    0.5020   -8.3439    7.1978 LP  0  0  0  0  0  0  0  0  0  0  0  0  # atno 4300 bound_to 2456
    2.1422   -8.6385    6.0686 LP  0  0  0  0  0  0  0  0  0  0  0  0  # atno 4301 bound_to 2510
    2.3340   -7.4244    4.9935 LP  0  0  0  0  0  0  0  0  0  0  0  0  # atno 4302 bound_to 2510
   -3.2043  -17.0450   14.7974 LP  0  0  0  0  0  0  0  0  0  0  0  0  # atno 4306 bound_to 3712
   -3.4489  -16.8671   13.1927 LP  0  0  0  0  0  0  0  0  0  0  0  0  # atno 4307 bound_to 3712
    2.0348  -21.0163    9.5364 LP  0  0  0  0  0  0  0  0  0  0  0  0  # atno 4314 bound_to 3832
    1.6126  -19.7202    8.6373 LP  0  0  0  0  0  0  0  0  0  0  0  0  # atno 4315 bound_to 3832
   -4.1331  -22.4837   11.5898 LP  0  0  0  0  0  0  0  0  0  0  0  0  # atno 4318 bound_to 3762
   -4.5143  -23.2989   10.2272 LP  0  0  0  0  0  0  0  0  0  0  0  0  # atno 4319 bound_to 3762
   -5.4561   -5.3239    8.8119 LP  0  0  0  0  0  0  0  0  0  0  0  0  # atno 4320 bound_to 2467
   -4.4018   -4.8000    7.6803 LP  0  0  0  0  0  0  0  0  0  0  0  0  # atno 4321 bound_to 2467

> <Gold.Score>
     Score     S(PLP)   S(hbond)     S(cho)   S(metal)  DE(clash)   DE(tors)     intcor
     34.80     -29.33       2.00       0.00       0.00       0.00       0.53       0.52

> <Gold.PLP.Fitness>
34.7964

> <Gold.PLP.PLP>
-29.3347

> <Gold.PLP.part.hbond>
-2.0000

> <Gold.PLP.part.metal>
0.0000

> <Gold.PLP.part.buried>
-3.9941

> <Gold.PLP.part.nonpolar>
-24.4887

> <Gold.PLP.part.repulsive>
0.9069

> <Gold.PLP.ligand.clash>
0.0000

> <Gold.PLP.ligand.torsion>
0.5316

> <Gold.PLP.Chemscore.Hbond>
2.0000

> <Gold.PLP.Chemscore.CHOScore>
0.0000

> <Gold.PLP.Chemscore.Metal>
0.0000

> <Gold.Chemscore.Hbonds>
donor molecule, donor type, donor heavy atom, donor atom, acceptor molecule, acceptor atom, score
      P1  H  2305  2313       L1     7  1.00
      P1  H  3712  3721       L1     9  1.00

> <Gold.PLP.Chemscore.Internal.Correction>
0.5249

