#       Name:                EN300-266260_i002
#       Creating user name   fsindt
#       Creation time:       Wed Mar  1 08:11:40 2023


#       File generated by GOLD software.
#

@<TRIPOS>MOLECULE
EN300-266260_i002|acide_1|mol2|7357|dock17
    29    28     1
SMALL
USER_CHARGES


@<TRIPOS>ATOM
      1 C1          -0.1141 -15.0585  11.9804 C.3            1 <1>                0.0000
      2 O2          -0.1013 -16.4865  11.9279 O.3            1 <1>                0.0000
      3 C3           0.6208 -17.1010  12.9968 C.3            1 <1>                0.0000
      4 C4           2.0480 -16.5507  13.0307 C.3            1 <1>                0.0000
      5 C5          -0.0647 -16.8000  14.3046 C.2            1 <1>                0.0000
      6 O6          -0.1004 -15.6560  14.7250 O.co2          1 <1>                0.0000
      7 O7          -0.5836 -17.7002  14.9424 O.co2          1 <1>               -1.0000
      8 C8           0.6624 -18.5922  12.7830 C.2            1 <1>                0.0000
      9 O9           1.7112 -19.1376  12.5331 O.2            1 <1>                0.0000
     10 O10         -0.4656 -19.3145  12.8700 O.3            1 <1>                0.0000
     11 C11         -0.3190 -20.7540  12.9905 C.3            1 <1>                0.0000
     12 C12         -1.6874 -21.3858  13.2541 C.3            1 <1>                0.0000
     13 C13          0.2615 -21.3180  11.6921 C.3            1 <1>                0.0000
     14 C14          0.6233 -21.0752  14.1524 C.3            1 <1>                0.0000
     15 H15         -0.5786 -14.7332  12.9112 H              1 <1>                0.0000
     16 H16          0.9087 -14.6842  11.9345 H              1 <1>                0.0000
     17 H17         -0.6817 -14.6688  11.1354 H              1 <1>                0.0000
     18 H18          2.0180 -15.4722  13.1853 H              1 <1>                0.0000
     19 H19          2.5990 -17.0195  13.8461 H              1 <1>                0.0000
     20 H20          2.5439 -16.7684  12.0847 H              1 <1>                0.0000
     21 H21         -2.3587 -21.1569  12.4264 H              1 <1>                0.0000
     22 H22         -1.5774 -22.4664  13.3445 H              1 <1>                0.0000
     23 H23         -2.1010 -20.9840  14.1791 H              1 <1>                0.0000
     24 H24          1.2363 -20.8680  11.5044 H              1 <1>                0.0000
     25 H25          0.3715 -22.3986  11.7825 H              1 <1>                0.0000
     26 H26         -0.4099 -21.0891  10.8644 H              1 <1>                0.0000
     27 H27          0.2097 -20.6735  15.0773 H              1 <1>                0.0000
     28 H28          0.7333 -22.1559  14.2428 H              1 <1>                0.0000
     29 H29          1.5981 -20.6253  13.9645 H              1 <1>                0.0000
@<TRIPOS>BOND
    1    1    2 1     
    2    1   15 1     
    3    1   16 1     
    4    1   17 1     
    5    2    3 1     
    6    3    4 1     
    7    3    5 1     
    8    3    8 1     
    9    4   18 1     
   10    4   19 1     
   11    4   20 1     
   12    5    6 ar    
   13    5    7 ar    
   14    8    9 2     
   15    8   10 1     
   16   10   11 1     
   17   11   12 1     
   18   11   13 1     
   19   11   14 1     
   20   12   21 1     
   21   12   22 1     
   22   12   23 1     
   23   13   24 1     
   24   13   25 1     
   25   13   26 1     
   26   14   27 1     
   27   14   28 1     
   28   14   29 1     
@<TRIPOS>SUBSTRUCTURE
      1 ****           1
@<TRIPOS>COMMENT
> <Gold.Version>
2022.2.0

> <Gold.Id.Protein>
3pbl|protein|mol2

> <Gold.Protein.RotatedTorsions>
[ 1303 1298 1297 1294 ] final -140.49 input  179.99 | X-H torsion
[ 2461 2456 2455 2452 ] final   17.26 input   30.03 | X-H torsion
[ 2515 2510 2509 2506 ] final  113.80 input  -89.99 | X-H torsion
[ 3721 3712 3711 3710 ] final   -5.64 input -179.91 | X-H torsion
[ 3841 3832 3831 3830 ] final  -86.25 input -179.91 | X-H torsion
[ 3767 3762 3761 3758 ] final  -81.85 input  -89.99 | X-H torsion
[ 2472 2467 2466 2463 ] final  138.71 input  -89.97 | X-H torsion

> <Gold.Protein.ActiveResidues>
 VAL82   VAL86   LEU89   PHE106  VAL107  ASP110  VAL111  MET112  CYS114  THR115 
 CYS181  SER182  ILE183  PHE188  VAL189  ILE190  SER192  SER193  SER196  TRP342 
 PHE345  PHE346  HIS349  VAL350  TYR365  THR369  GLY372  TYR373 

> <Gold.Protein.RotatedAtoms>
    4.5000   -8.5136    4.2941 H   0  0  0  0  0  0  0  0  0  0  0  0  # atno 1303 bound_to 1298
    1.3150   -7.9253    7.0635 H   0  0  0  0  0  0  0  0  0  0  0  0  # atno 2461 bound_to 2456
   -5.5031   -5.1835    8.4060 H   0  0  0  0  0  0  0  0  0  0  0  0  # atno 2472 bound_to 2467
    2.0329   -8.0689    6.0369 H   0  0  0  0  0  0  0  0  0  0  0  0  # atno 2515 bound_to 2510
   -2.5008  -17.9207   14.3183 H   0  0  0  0  0  0  0  0  0  0  0  0  # atno 3721 bound_to 3712
   -5.3067  -21.9401   11.1080 H   0  0  0  0  0  0  0  0  0  0  0  0  # atno 3767 bound_to 3762
    1.8133  -19.6308    8.7447 H   0  0  0  0  0  0  0  0  0  0  0  0  # atno 3841 bound_to 3832
    4.5323  -10.0282    4.9036 LP  0  0  0  0  0  0  0  0  0  0  0  0  # atno 4297 bound_to 1298
    3.3297   -9.5798    3.8939 LP  0  0  0  0  0  0  0  0  0  0  0  0  # atno 4298 bound_to 1298
    0.4210   -9.0357    7.8606 LP  0  0  0  0  0  0  0  0  0  0  0  0  # atno 4299 bound_to 2456
    2.0018   -8.8469    8.2238 LP  0  0  0  0  0  0  0  0  0  0  0  0  # atno 4300 bound_to 2456
    2.5822   -7.6977    4.5448 LP  0  0  0  0  0  0  0  0  0  0  0  0  # atno 4301 bound_to 2510
    2.6818   -9.2326    5.0932 LP  0  0  0  0  0  0  0  0  0  0  0  0  # atno 4302 bound_to 2510
   -3.4720  -16.6434   14.3755 LP  0  0  0  0  0  0  0  0  0  0  0  0  # atno 4306 bound_to 3712
   -3.1685  -17.3932   12.9568 LP  0  0  0  0  0  0  0  0  0  0  0  0  # atno 4307 bound_to 3712
    3.1114  -20.5186    8.4241 LP  0  0  0  0  0  0  0  0  0  0  0  0  # atno 4314 bound_to 3832
    2.0232  -21.0101    9.5381 LP  0  0  0  0  0  0  0  0  0  0  0  0  # atno 4315 bound_to 3832
   -3.9472  -22.8020   11.3833 LP  0  0  0  0  0  0  0  0  0  0  0  0  # atno 4318 bound_to 3762
   -4.8736  -23.1327   10.0798 LP  0  0  0  0  0  0  0  0  0  0  0  0  # atno 4319 bound_to 3762
   -4.0085   -4.8206    7.8575 LP  0  0  0  0  0  0  0  0  0  0  0  0  # atno 4320 bound_to 2467
   -4.2054   -5.3894    9.3755 LP  0  0  0  0  0  0  0  0  0  0  0  0  # atno 4321 bound_to 2467

> <Gold.Score>
     Score     S(PLP)   S(hbond)     S(cho)   S(metal)  DE(clash)   DE(tors)     intcor
     34.06     -28.61       2.00       0.00       0.00       0.02       0.53       0.52

> <Gold.PLP.Fitness>
34.0569

> <Gold.PLP.PLP>
-28.6131

> <Gold.PLP.part.hbond>
-2.0000

> <Gold.PLP.part.metal>
0.0000

> <Gold.PLP.part.buried>
-4.9910

> <Gold.PLP.part.nonpolar>
-21.6100

> <Gold.PLP.part.repulsive>
0.2937

> <Gold.PLP.ligand.clash>
0.0169

> <Gold.PLP.ligand.torsion>
0.5321

> <Gold.PLP.Chemscore.Hbond>
2.0000

> <Gold.PLP.Chemscore.CHOScore>
0.0000

> <Gold.PLP.Chemscore.Metal>
0.0000

> <Gold.Chemscore.Hbonds>
donor molecule, donor type, donor heavy atom, donor atom, acceptor molecule, acceptor atom, score
      P1  H  2305  2313       L1     6  1.00
      P1  H  3712  3721       L1     7  1.00

> <Gold.PLP.Chemscore.Internal.Correction>
0.5249

