#       Name:                EN300-266260_i002
#       Creating user name   fsindt
#       Creation time:       Wed Mar  1 08:11:43 2023


#       File generated by GOLD software.
#

@<TRIPOS>MOLECULE
EN300-266260_i002|acide_1|mol2|7357|dock19
    29    28     1
SMALL
USER_CHARGES


@<TRIPOS>ATOM
      1 C1          -0.4039 -10.2520  11.6985 C.3            1 <1>                0.0000
      2 O2          -1.6944 -10.8441  11.5362 O.3            1 <1>                0.0000
      3 C3          -1.9610 -11.3021  10.2092 C.3            1 <1>                0.0000
      4 C4          -3.4476 -11.6381  10.0747 C.3            1 <1>                0.0000
      5 C5          -1.5990 -10.2220   9.2227 C.2            1 <1>                0.0000
      6 O6          -0.7054 -10.4092   8.4145 O.co2          1 <1>                0.0000
      7 O7          -2.1996  -9.1610   9.2325 O.co2          1 <1>               -1.0000
      8 C8          -1.1401 -12.5344   9.9286 C.2            1 <1>                0.0000
      9 O9          -0.4538 -13.0142  10.7996 O.2            1 <1>                0.0000
     10 O10         -1.1713 -13.0988   8.7111 O.3            1 <1>                0.0000
     11 C11          0.0278 -13.7915   8.2748 C.3            1 <1>                0.0000
     12 C12          1.2429 -12.8834   8.4750 C.3            1 <1>                0.0000
     13 C13          0.2057 -15.0700   9.0962 C.3            1 <1>                0.0000
     14 C14         -0.1015 -14.1510   6.7932 C.3            1 <1>                0.0000
     15 H15          0.3652 -10.9832  11.4500 H              1 <1>                0.0000
     16 H16         -0.3137  -9.3906  11.0368 H              1 <1>                0.0000
     17 H17         -0.2791  -9.9305  12.7325 H              1 <1>                0.0000
     18 H18         -4.0414 -10.7469  10.2776 H              1 <1>                0.0000
     19 H19         -3.6510 -11.9876   9.0625 H              1 <1>                0.0000
     20 H20         -3.7094 -12.4195  10.7883 H              1 <1>                0.0000
     21 H21          1.3350 -12.6273   9.5305 H              1 <1>                0.0000
     22 H22          2.1430 -13.4035   8.1474 H              1 <1>                0.0000
     23 H23          1.1161 -11.9726   7.8898 H              1 <1>                0.0000
     24 H24         -0.6598 -15.7169   8.9535 H              1 <1>                0.0000
     25 H25          1.1058 -15.5900   8.7687 H              1 <1>                0.0000
     26 H26          0.2978 -14.8138  10.1517 H              1 <1>                0.0000
     27 H27         -0.2282 -13.2403   6.2081 H              1 <1>                0.0000
     28 H28          0.7987 -14.6711   6.4656 H              1 <1>                0.0000
     29 H29         -0.9671 -14.7980   6.6506 H              1 <1>                0.0000
@<TRIPOS>BOND
    1    1    2 1     
    2    1   15 1     
    3    1   16 1     
    4    1   17 1     
    5    2    3 1     
    6    3    4 1     
    7    3    5 1     
    8    3    8 1     
    9    4   18 1     
   10    4   19 1     
   11    4   20 1     
   12    5    6 ar    
   13    5    7 ar    
   14    8    9 2     
   15    8   10 1     
   16   10   11 1     
   17   11   12 1     
   18   11   13 1     
   19   11   14 1     
   20   12   21 1     
   21   12   22 1     
   22   12   23 1     
   23   13   24 1     
   24   13   25 1     
   25   13   26 1     
   26   14   27 1     
   27   14   28 1     
   28   14   29 1     
@<TRIPOS>SUBSTRUCTURE
      1 ****           1
@<TRIPOS>COMMENT
> <Gold.Version>
2022.2.0

> <Gold.Id.Protein>
3pbl|protein|mol2

> <Gold.Protein.RotatedTorsions>
[ 1303 1298 1297 1294 ] final -119.40 input  179.99 | X-H torsion
[ 2461 2456 2455 2452 ] final -105.24 input   30.03 | X-H torsion
[ 2515 2510 2509 2506 ] final  114.92 input  -89.99 | X-H torsion
[ 3721 3712 3711 3710 ] final   12.48 input -179.91 | X-H torsion
[ 3841 3832 3831 3830 ] final   37.19 input -179.91 | X-H torsion
[ 3767 3762 3761 3758 ] final  124.03 input  -89.99 | X-H torsion
[ 2472 2467 2466 2463 ] final   61.49 input  -89.97 | X-H torsion

> <Gold.Protein.ActiveResidues>
 VAL82   VAL86   LEU89   PHE106  VAL107  ASP110  VAL111  MET112  CYS114  THR115 
 CYS181  SER182  ILE183  PHE188  VAL189  ILE190  SER192  SER193  SER196  TRP342 
 PHE345  PHE346  HIS349  VAL350  TYR365  THR369  GLY372  TYR373 

> <Gold.Protein.RotatedAtoms>
    4.2248   -8.4781    4.0891 H   0  0  0  0  0  0  0  0  0  0  0  0  # atno 1303 bound_to 1298
    0.4389   -9.0586    7.8898 H   0  0  0  0  0  0  0  0  0  0  0  0  # atno 2461 bound_to 2456
   -4.6674   -4.8229    7.6605 H   0  0  0  0  0  0  0  0  0  0  0  0  # atno 2472 bound_to 2467
    2.0341   -8.0862    6.0429 H   0  0  0  0  0  0  0  0  0  0  0  0  # atno 2515 bound_to 2510
   -2.4707  -18.0127   14.0634 H   0  0  0  0  0  0  0  0  0  0  0  0  # atno 3721 bound_to 3712
   -3.9374  -23.1572   10.9593 H   0  0  0  0  0  0  0  0  0  0  0  0  # atno 3767 bound_to 3762
    2.1602  -20.8372    9.6101 H   0  0  0  0  0  0  0  0  0  0  0  0  # atno 3841 bound_to 3832
    4.7479   -9.7629    4.9505 LP  0  0  0  0  0  0  0  0  0  0  0  0  # atno 4297 bound_to 1298
    3.3894   -9.8806    4.0521 LP  0  0  0  0  0  0  0  0  0  0  0  0  # atno 4298 bound_to 1298
    2.0236   -8.8187    8.2033 LP  0  0  0  0  0  0  0  0  0  0  0  0  # atno 4299 bound_to 2456
    1.2750   -7.9310    7.0551 LP  0  0  0  0  0  0  0  0  0  0  0  0  # atno 4300 bound_to 2456
    2.5749   -7.6847    4.5555 LP  0  0  0  0  0  0  0  0  0  0  0  0  # atno 4301 bound_to 2510
    2.6879   -9.2283    5.0764 LP  0  0  0  0  0  0  0  0  0  0  0  0  # atno 4302 bound_to 2510
   -3.3635  -16.7960   14.6117 LP  0  0  0  0  0  0  0  0  0  0  0  0  # atno 4306 bound_to 3712
   -3.3117  -17.1343   13.0150 LP  0  0  0  0  0  0  0  0  0  0  0  0  # atno 4307 bound_to 3712
    1.6469  -19.7012    8.5991 LP  0  0  0  0  0  0  0  0  0  0  0  0  # atno 4314 bound_to 3832
    3.0871  -20.4339    8.3634 LP  0  0  0  0  0  0  0  0  0  0  0  0  # atno 4315 bound_to 3832
   -5.2856  -22.7665   10.1246 LP  0  0  0  0  0  0  0  0  0  0  0  0  # atno 4318 bound_to 3762
   -4.9040  -21.9515   11.4873 LP  0  0  0  0  0  0  0  0  0  0  0  0  # atno 4319 bound_to 3762
   -3.7168   -5.1785    8.9397 LP  0  0  0  0  0  0  0  0  0  0  0  0  # atno 4320 bound_to 2467
   -5.3328   -5.3920    9.0388 LP  0  0  0  0  0  0  0  0  0  0  0  0  # atno 4321 bound_to 2467

> <Gold.Score>
     Score     S(PLP)   S(hbond)     S(cho)   S(metal)  DE(clash)   DE(tors)     intcor
     37.03     -34.81       1.00       0.00       0.00       0.02       0.64       0.52

> <Gold.PLP.Fitness>
37.0300

> <Gold.PLP.PLP>
-34.8097

> <Gold.PLP.part.hbond>
-2.0000

> <Gold.PLP.part.metal>
0.0000

> <Gold.PLP.part.buried>
-1.6262

> <Gold.PLP.part.nonpolar>
-34.0485

> <Gold.PLP.part.repulsive>
0.9640

> <Gold.PLP.ligand.clash>
0.0236

> <Gold.PLP.ligand.torsion>
0.6405

> <Gold.PLP.Chemscore.Hbond>
1.0000

> <Gold.PLP.Chemscore.CHOScore>
0.0000

> <Gold.PLP.Chemscore.Metal>
0.0000

> <Gold.Chemscore.Hbonds>
donor molecule, donor type, donor heavy atom, donor atom, acceptor molecule, acceptor atom, score
      P1  H  2456  2461       L1     6  1.00

> <Gold.PLP.Chemscore.Internal.Correction>
0.5249

