#       Name:                EN300-266260_i002
#       Creating user name   fsindt
#       Creation time:       Wed Mar  1 08:11:35 2023


#       File generated by GOLD software.
#

@<TRIPOS>MOLECULE
EN300-266260_i002|acide_1|mol2|7357|dock13
    29    28     1
SMALL
USER_CHARGES


@<TRIPOS>ATOM
      1 C1           0.2531 -14.6934   6.9103 C.3            1 <1>                0.0000
      2 O2          -0.4311 -13.6289   7.5743 O.3            1 <1>                0.0000
      3 C3           0.4302 -12.5956   8.0563 C.3            1 <1>                0.0000
      4 C4           1.5475 -13.2146   8.8986 C.3            1 <1>                0.0000
      5 C5           1.0319 -11.8576   6.8882 C.2            1 <1>                0.0000
      6 O6           0.8674 -12.2739   5.7540 O.co2          1 <1>                0.0000
      7 O7           1.6831 -10.8444   7.0773 O.co2          1 <1>               -1.0000
      8 C8          -0.3635 -11.6342   8.9030 C.2            1 <1>                0.0000
      9 O9           0.2070 -10.8031   9.5691 O.2            1 <1>                0.0000
     10 O10         -1.7040 -11.7013   8.9172 O.3            1 <1>                0.0000
     11 C11         -2.3905 -10.9520   9.9542 C.3            1 <1>                0.0000
     12 C12         -3.8864 -11.2705   9.9083 C.3            1 <1>                0.0000
     13 C13         -1.8279 -11.3419  11.3226 C.3            1 <1>                0.0000
     14 C14         -2.1809  -9.4538   9.7246 C.3            1 <1>                0.0000
     15 H15          0.7931 -14.2976   6.0503 H              1 <1>                0.0000
     16 H16          0.9581 -15.1579   7.5998 H              1 <1>                0.0000
     17 H17         -0.4700 -15.4367   6.5747 H              1 <1>                0.0000
     18 H18          2.1216 -13.9099   8.2863 H              1 <1>                0.0000
     19 H19          2.2045 -12.4263   9.2663 H              1 <1>                0.0000
     20 H20          1.1123 -13.7484   9.7435 H              1 <1>                0.0000
     21 H21         -4.0357 -12.3377  10.0719 H              1 <1>                0.0000
     22 H22         -4.4017 -10.7080  10.6868 H              1 <1>                0.0000
     23 H23         -4.2872 -10.9927   8.9334 H              1 <1>                0.0000
     24 H24         -0.7623 -11.1149  11.3553 H              1 <1>                0.0000
     25 H25         -2.3432 -10.7794  12.1010 H              1 <1>                0.0000
     26 H26         -1.9773 -12.4091  11.4861 H              1 <1>                0.0000
     27 H27         -2.5817  -9.1761   8.7498 H              1 <1>                0.0000
     28 H28         -2.6962  -8.8913  10.5031 H              1 <1>                0.0000
     29 H29         -1.1153  -9.2269   9.7574 H              1 <1>                0.0000
@<TRIPOS>BOND
    1    1    2 1     
    2    1   15 1     
    3    1   16 1     
    4    1   17 1     
    5    2    3 1     
    6    3    4 1     
    7    3    5 1     
    8    3    8 1     
    9    4   18 1     
   10    4   19 1     
   11    4   20 1     
   12    5    6 ar    
   13    5    7 ar    
   14    8    9 2     
   15    8   10 1     
   16   10   11 1     
   17   11   12 1     
   18   11   13 1     
   19   11   14 1     
   20   12   21 1     
   21   12   22 1     
   22   12   23 1     
   23   13   24 1     
   24   13   25 1     
   25   13   26 1     
   26   14   27 1     
   27   14   28 1     
   28   14   29 1     
@<TRIPOS>SUBSTRUCTURE
      1 ****           1
@<TRIPOS>COMMENT
> <Gold.Version>
2022.2.0

> <Gold.Id.Protein>
3pbl|protein|mol2

> <Gold.Protein.RotatedTorsions>
[ 1303 1298 1297 1294 ] final   39.22 input  179.99 | X-H torsion
[ 2461 2456 2455 2452 ] final -143.06 input   30.03 | X-H torsion
[ 2515 2510 2509 2506 ] final  -37.02 input  -89.99 | X-H torsion
[ 3721 3712 3711 3710 ] final   51.15 input -179.91 | X-H torsion
[ 3841 3832 3831 3830 ] final   80.93 input -179.91 | X-H torsion
[ 3767 3762 3761 3758 ] final   88.69 input  -89.99 | X-H torsion
[ 2472 2467 2466 2463 ] final  148.26 input  -89.97 | X-H torsion

> <Gold.Protein.ActiveResidues>
 VAL82   VAL86   LEU89   PHE106  VAL107  ASP110  VAL111  MET112  CYS114  THR115 
 CYS181  SER182  ILE183  PHE188  VAL189  ILE190  SER192  SER193  SER196  TRP342 
 PHE345  PHE346  HIS349  VAL350  TYR365  THR369  GLY372  TYR373 

> <Gold.Protein.RotatedAtoms>
    3.7376  -10.2324    4.4312 H   0  0  0  0  0  0  0  0  0  0  0  0  # atno 1303 bound_to 1298
    0.8734   -9.2772    8.2598 H   0  0  0  0  0  0  0  0  0  0  0  0  # atno 2461 bound_to 2456
   -5.5091   -5.2373    8.5535 H   0  0  0  0  0  0  0  0  0  0  0  0  # atno 2472 bound_to 2467
    2.7530   -8.1317    4.3621 H   0  0  0  0  0  0  0  0  0  0  0  0  # atno 2515 bound_to 2510
   -2.5486  -17.9646   13.4971 H   0  0  0  0  0  0  0  0  0  0  0  0  # atno 3721 bound_to 3712
   -4.2070  -23.3313   10.4853 H   0  0  0  0  0  0  0  0  0  0  0  0  # atno 3767 bound_to 3762
    2.7399  -20.9479    9.3503 H   0  0  0  0  0  0  0  0  0  0  0  0  # atno 3841 bound_to 3832
    3.7128   -8.7163    3.8250 LP  0  0  0  0  0  0  0  0  0  0  0  0  # atno 4297 bound_to 1298
    4.9120   -9.1723    4.8353 LP  0  0  0  0  0  0  0  0  0  0  0  0  # atno 4298 bound_to 1298
    2.1562   -8.3742    7.8055 LP  0  0  0  0  0  0  0  0  0  0  0  0  # atno 4299 bound_to 2456
    0.7080   -8.1569    7.0829 LP  0  0  0  0  0  0  0  0  0  0  0  0  # atno 4300 bound_to 2456
    2.4840   -9.2154    5.5533 LP  0  0  0  0  0  0  0  0  0  0  0  0  # atno 4301 bound_to 2510
    2.0596   -7.6522    5.7603 LP  0  0  0  0  0  0  0  0  0  0  0  0  # atno 4302 bound_to 2510
   -3.0574  -17.2912   14.8630 LP  0  0  0  0  0  0  0  0  0  0  0  0  # atno 4306 bound_to 3712
   -3.5278  -16.6946   13.4175 LP  0  0  0  0  0  0  0  0  0  0  0  0  # atno 4307 bound_to 3712
    1.3899  -20.1099    9.1241 LP  0  0  0  0  0  0  0  0  0  0  0  0  # atno 4314 bound_to 3832
    2.6744  -19.8974    8.1385 LP  0  0  0  0  0  0  0  0  0  0  0  0  # atno 4315 bound_to 3832
   -5.5020  -22.3378   10.4357 LP  0  0  0  0  0  0  0  0  0  0  0  0  # atno 4318 bound_to 3762
   -4.4182  -22.2062   11.6500 LP  0  0  0  0  0  0  0  0  0  0  0  0  # atno 4319 bound_to 3762
   -4.1407   -4.8051    7.7742 LP  0  0  0  0  0  0  0  0  0  0  0  0  # atno 4320 bound_to 2467
   -4.0673   -5.3511    9.3115 LP  0  0  0  0  0  0  0  0  0  0  0  0  # atno 4321 bound_to 2467

> <Gold.Score>
     Score     S(PLP)   S(hbond)     S(cho)   S(metal)  DE(clash)   DE(tors)     intcor
     42.73     -41.30       0.96       0.00       0.00       0.48       0.75       0.53

> <Gold.PLP.Fitness>
42.7294

> <Gold.PLP.PLP>
-41.3040

> <Gold.PLP.part.hbond>
-2.7383

> <Gold.PLP.part.metal>
0.0000

> <Gold.PLP.part.buried>
-0.7868

> <Gold.PLP.part.nonpolar>
-39.9914

> <Gold.PLP.part.repulsive>
0.1025

> <Gold.PLP.ligand.clash>
0.4805

> <Gold.PLP.ligand.torsion>
0.7491

> <Gold.PLP.Chemscore.Hbond>
0.9588

> <Gold.PLP.Chemscore.CHOScore>
0.0000

> <Gold.PLP.Chemscore.Metal>
0.0000

> <Gold.Chemscore.Hbonds>
donor molecule, donor type, donor heavy atom, donor atom, acceptor molecule, acceptor atom, score
      P1  H  2456  2461       L1     9  0.96

> <Gold.PLP.Chemscore.Internal.Correction>
0.5279

