#       Name:                EN300-266260_i002
#       Creating user name   fsindt
#       Creation time:       Wed Mar  1 08:11:26 2023


#       File generated by GOLD software.
#

@<TRIPOS>MOLECULE
EN300-266260_i002|acide_1|mol2|7357|dock5
    29    28     1
SMALL
USER_CHARGES


@<TRIPOS>ATOM
      1 C1           2.3083 -16.4260  12.8676 C.3            1 <1>                0.0000
      2 O2           1.3599 -17.4881  12.7466 O.3            1 <1>                0.0000
      3 C3           0.8352 -17.9438  13.9951 C.3            1 <1>                0.0000
      4 C4           1.9875 -18.2119  14.9653 C.3            1 <1>                0.0000
      5 C5          -0.0731 -16.8894  14.5733 C.2            1 <1>                0.0000
      6 O6          -1.2065 -17.1818  14.9149 O.co2          1 <1>                0.0000
      7 O7           0.3253 -15.7441  14.6996 O.co2          1 <1>               -1.0000
      8 C8           0.0550 -19.2148  13.7783 C.2            1 <1>                0.0000
      9 O9          -0.9691 -19.1931  13.1376 O.2            1 <1>                0.0000
     10 O10          0.4979 -20.3709  14.2969 O.3            1 <1>                0.0000
     11 C11         -0.0361 -21.5957  13.7287 C.3            1 <1>                0.0000
     12 C12          0.7334 -22.7948  14.2867 C.3            1 <1>                0.0000
     13 C13         -1.5162 -21.7247  14.0944 C.3            1 <1>                0.0000
     14 C14          0.1118 -21.5586  12.2063 C.3            1 <1>                0.0000
     15 H15          1.8358 -15.5701  13.3496 H              1 <1>                0.0000
     16 H16          3.1537 -16.7606  13.4689 H              1 <1>                0.0000
     17 H17          2.6589 -16.1372  11.8768 H              1 <1>                0.0000
     18 H18          2.5517 -17.2927  15.1222 H              1 <1>                0.0000
     19 H19          1.5872 -18.5596  15.9177 H              1 <1>                0.0000
     20 H20          2.6444 -18.9746  14.5471 H              1 <1>                0.0000
     21 H21          0.6281 -22.8213  15.3712 H              1 <1>                0.0000
     22 H22          0.3325 -23.7142  13.8602 H              1 <1>                0.0000
     23 H23          1.7878 -22.7029  14.0262 H              1 <1>                0.0000
     24 H24         -2.0644 -20.8706  13.6969 H              1 <1>                0.0000
     25 H25         -1.9171 -22.6441  13.6679 H              1 <1>                0.0000
     26 H26         -1.6214 -21.7512  15.1790 H              1 <1>                0.0000
     27 H27          1.1661 -21.4668  11.9459 H              1 <1>                0.0000
     28 H28         -0.2891 -22.4780  11.7798 H              1 <1>                0.0000
     29 H29         -0.4365 -20.7045  11.8088 H              1 <1>                0.0000
@<TRIPOS>BOND
    1    1    2 1     
    2    1   15 1     
    3    1   16 1     
    4    1   17 1     
    5    2    3 1     
    6    3    4 1     
    7    3    5 1     
    8    3    8 1     
    9    4   18 1     
   10    4   19 1     
   11    4   20 1     
   12    5    6 ar    
   13    5    7 ar    
   14    8    9 2     
   15    8   10 1     
   16   10   11 1     
   17   11   12 1     
   18   11   13 1     
   19   11   14 1     
   20   12   21 1     
   21   12   22 1     
   22   12   23 1     
   23   13   24 1     
   24   13   25 1     
   25   13   26 1     
   26   14   27 1     
   27   14   28 1     
   28   14   29 1     
@<TRIPOS>SUBSTRUCTURE
      1 ****           1
@<TRIPOS>COMMENT
> <Gold.Version>
2022.2.0

> <Gold.Id.Protein>
3pbl|protein|mol2

> <Gold.Protein.RotatedTorsions>
[ 1303 1298 1297 1294 ] final -167.89 input  179.99 | X-H torsion
[ 2461 2456 2455 2452 ] final  -81.17 input   30.03 | X-H torsion
[ 2515 2510 2509 2506 ] final  140.75 input  -89.99 | X-H torsion
[ 3721 3712 3711 3710 ] final   41.44 input -179.91 | X-H torsion
[ 3841 3832 3831 3830 ] final  131.33 input -179.91 | X-H torsion
[ 3767 3762 3761 3758 ] final  168.40 input  -89.99 | X-H torsion
[ 2472 2467 2466 2463 ] final  126.73 input  -89.97 | X-H torsion

> <Gold.Protein.ActiveResidues>
 VAL82   VAL86   LEU89   PHE106  VAL107  ASP110  VAL111  MET112  CYS114  THR115 
 CYS181  SER182  ILE183  PHE188  VAL189  ILE190  SER192  SER193  SER196  TRP342 
 PHE345  PHE346  HIS349  VAL350  TYR365  THR369  GLY372  TYR373 

> <Gold.Protein.RotatedAtoms>
    4.7769   -8.7292    4.5701 H   0  0  0  0  0  0  0  0  0  0  0  0  # atno 1303 bound_to 1298
    0.3327   -8.8098    7.6042 H   0  0  0  0  0  0  0  0  0  0  0  0  # atno 2461 bound_to 2456
   -5.4593   -5.1143    8.2272 H   0  0  0  0  0  0  0  0  0  0  0  0  # atno 2472 bound_to 2467
    2.1023   -8.4990    6.0922 H   0  0  0  0  0  0  0  0  0  0  0  0  # atno 2515 bound_to 2510
   -2.5116  -18.0082   13.6322 H   0  0  0  0  0  0  0  0  0  0  0  0  # atno 3721 bound_to 3712
   -4.0034  -22.6762   11.4803 H   0  0  0  0  0  0  0  0  0  0  0  0  # atno 3767 bound_to 3762
    3.1222  -20.6148    8.8152 H   0  0  0  0  0  0  0  0  0  0  0  0  # atno 3841 bound_to 3832
    4.1751  -10.2380    4.7368 LP  0  0  0  0  0  0  0  0  0  0  0  0  # atno 4297 bound_to 1298
    3.4099   -9.1543    3.7846 LP  0  0  0  0  0  0  0  0  0  0  0  0  # atno 4298 bound_to 1298
    1.7591   -9.0655    8.3574 LP  0  0  0  0  0  0  0  0  0  0  0  0  # atno 4299 bound_to 2456
    1.6457   -7.9329    7.1865 LP  0  0  0  0  0  0  0  0  0  0  0  0  # atno 4300 bound_to 2456
    2.3961   -7.4622    4.8656 LP  0  0  0  0  0  0  0  0  0  0  0  0  # atno 4301 bound_to 2510
    2.7985   -9.0378    4.7171 LP  0  0  0  0  0  0  0  0  0  0  0  0  # atno 4302 bound_to 2510
   -3.1387  -17.1532   14.8378 LP  0  0  0  0  0  0  0  0  0  0  0  0  # atno 4306 bound_to 3712
   -3.4892  -16.7823   13.2866 LP  0  0  0  0  0  0  0  0  0  0  0  0  # atno 4307 bound_to 3712
    1.6873  -20.7576    9.5199 LP  0  0  0  0  0  0  0  0  0  0  0  0  # atno 4314 bound_to 3832
    1.9354  -19.6345    8.3608 LP  0  0  0  0  0  0  0  0  0  0  0  0  # atno 4315 bound_to 3832
   -4.7311  -23.2132   10.1206 LP  0  0  0  0  0  0  0  0  0  0  0  0  # atno 4318 bound_to 3762
   -5.3926  -21.9857   10.9704 LP  0  0  0  0  0  0  0  0  0  0  0  0  # atno 4319 bound_to 3762
   -3.8653   -4.8521    7.9886 LP  0  0  0  0  0  0  0  0  0  0  0  0  # atno 4320 bound_to 2467
   -4.3925   -5.4271    9.4232 LP  0  0  0  0  0  0  0  0  0  0  0  0  # atno 4321 bound_to 2467

> <Gold.Score>
     Score     S(PLP)   S(hbond)     S(cho)   S(metal)  DE(clash)   DE(tors)     intcor
     35.05     -29.89       2.00       0.00       0.00       0.00       0.68       0.53

> <Gold.PLP.Fitness>
35.0515

> <Gold.PLP.PLP>
-29.8882

> <Gold.PLP.part.hbond>
-2.2386

> <Gold.PLP.part.metal>
0.0000

> <Gold.PLP.part.buried>
-4.5082

> <Gold.PLP.part.nonpolar>
-23.6170

> <Gold.PLP.part.repulsive>
0.2163

> <Gold.PLP.ligand.clash>
0.0000

> <Gold.PLP.ligand.torsion>
0.6823

> <Gold.PLP.Chemscore.Hbond>
2.0000

> <Gold.PLP.Chemscore.CHOScore>
0.0000

> <Gold.PLP.Chemscore.Metal>
0.0000

> <Gold.Chemscore.Hbonds>
donor molecule, donor type, donor heavy atom, donor atom, acceptor molecule, acceptor atom, score
      P1  H  2305  2313       L1     7  1.00
      P1  H  3712  3721       L1     9  1.00

> <Gold.PLP.Chemscore.Internal.Correction>
0.5279

