#       Name:                EN300-266260_i002
#       Creating user name   fsindt
#       Creation time:       Wed Mar  1 08:11:28 2023


#       File generated by GOLD software.
#

@<TRIPOS>MOLECULE
EN300-266260_i002|acide_1|mol2|7357|dock6
    29    28     1
SMALL
USER_CHARGES


@<TRIPOS>ATOM
      1 C1          -0.5033 -12.9898  11.6235 C.3            1 <1>                0.0000
      2 O2          -1.7405 -12.6000  11.0239 O.3            1 <1>                0.0000
      3 C3          -1.6099 -11.5779  10.0339 C.3            1 <1>                0.0000
      4 C4          -2.9408 -11.4070   9.2987 C.3            1 <1>                0.0000
      5 C5          -1.2333 -10.2792  10.6991 C.2            1 <1>                0.0000
      6 O6          -1.9335  -9.2923  10.5497 O.co2          1 <1>                0.0000
      7 O7          -0.2285 -10.2153  11.3867 O.co2          1 <1>               -1.0000
      8 C8          -0.5381 -11.9669   9.0485 C.2            1 <1>                0.0000
      9 O9           0.4711 -11.3081   8.9623 O.2            1 <1>                0.0000
     10 O10         -0.7046 -13.0452   8.2666 O.3            1 <1>                0.0000
     11 C11          0.4941 -13.6498   7.7135 C.3            1 <1>                0.0000
     12 C12          1.1061 -12.7096   6.6731 C.3            1 <1>                0.0000
     13 C13          1.5050 -13.8965   8.8352 C.3            1 <1>                0.0000
     14 C14          0.1342 -14.9804   7.0494 C.3            1 <1>                0.0000
     15 H15          0.1690 -13.3706  10.8548 H              1 <1>                0.0000
     16 H16         -0.0477 -12.1272  12.1099 H              1 <1>                0.0000
     17 H17         -0.6876 -13.7687  12.3634 H              1 <1>                0.0000
     18 H18         -3.7160 -11.1256  10.0113 H              1 <1>                0.0000
     19 H19         -2.8412 -10.6274   8.5434 H              1 <1>                0.0000
     20 H20         -3.2132 -12.3463   8.8175 H              1 <1>                0.0000
     21 H21          1.3625 -11.7617   7.1462 H              1 <1>                0.0000
     22 H22          2.0060 -13.1635   6.2579 H              1 <1>                0.0000
     23 H23          0.3860 -12.5338   5.8740 H              1 <1>                0.0000
     24 H24          1.0690 -14.5664   9.5763 H              1 <1>                0.0000
     25 H25          2.4047 -14.3504   8.4201 H              1 <1>                0.0000
     26 H26          1.7612 -12.9486   9.3083 H              1 <1>                0.0000
     27 H27         -0.5858 -14.8046   6.2503 H              1 <1>                0.0000
     28 H28          1.0341 -15.4343   6.6342 H              1 <1>                0.0000
     29 H29         -0.3017 -15.6502   7.7906 H              1 <1>                0.0000
@<TRIPOS>BOND
    1    1    2 1     
    2    1   15 1     
    3    1   16 1     
    4    1   17 1     
    5    2    3 1     
    6    3    4 1     
    7    3    5 1     
    8    3    8 1     
    9    4   18 1     
   10    4   19 1     
   11    4   20 1     
   12    5    6 ar    
   13    5    7 ar    
   14    8    9 2     
   15    8   10 1     
   16   10   11 1     
   17   11   12 1     
   18   11   13 1     
   19   11   14 1     
   20   12   21 1     
   21   12   22 1     
   22   12   23 1     
   23   13   24 1     
   24   13   25 1     
   25   13   26 1     
   26   14   27 1     
   27   14   28 1     
   28   14   29 1     
@<TRIPOS>SUBSTRUCTURE
      1 ****           1
@<TRIPOS>COMMENT
> <Gold.Version>
2022.2.0

> <Gold.Id.Protein>
3pbl|protein|mol2

> <Gold.Protein.RotatedTorsions>
[ 1303 1298 1297 1294 ] final -100.88 input  179.99 | X-H torsion
[ 2461 2456 2455 2452 ] final  -54.57 input   30.03 | X-H torsion
[ 2515 2510 2509 2506 ] final    2.60 input  -89.99 | X-H torsion
[ 3721 3712 3711 3710 ] final  -10.17 input -179.91 | X-H torsion
[ 3841 3832 3831 3830 ] final   12.90 input -179.91 | X-H torsion
[ 3767 3762 3761 3758 ] final -176.08 input  -89.99 | X-H torsion
[ 2472 2467 2466 2463 ] final   -7.49 input  -89.97 | X-H torsion

> <Gold.Protein.ActiveResidues>
 VAL82   VAL86   LEU89   PHE106  VAL107  ASP110  VAL111  MET112  CYS114  THR115 
 CYS181  SER182  ILE183  PHE188  VAL189  ILE190  SER192  SER193  SER196  TRP342 
 PHE345  PHE346  HIS349  VAL350  TYR365  THR369  GLY372  TYR373 

> <Gold.Protein.RotatedAtoms>
    3.9703   -8.5461    3.9386 H   0  0  0  0  0  0  0  0  0  0  0  0  # atno 1303 bound_to 1298
    0.4000   -8.4950    7.3132 H   0  0  0  0  0  0  0  0  0  0  0  0  # atno 2461 bound_to 2456
   -3.7355   -4.9058    8.1751 H   0  0  0  0  0  0  0  0  0  0  0  0  # atno 2472 bound_to 2467
    2.5232   -7.6027    4.6365 H   0  0  0  0  0  0  0  0  0  0  0  0  # atno 2515 bound_to 2510
   -2.5148  -17.8873   14.3765 H   0  0  0  0  0  0  0  0  0  0  0  0  # atno 3721 bound_to 3712
   -4.1313  -22.4847   11.5889 H   0  0  0  0  0  0  0  0  0  0  0  0  # atno 3767 bound_to 3762
    1.8626  -20.6270    9.6062 H   0  0  0  0  0  0  0  0  0  0  0  0  # atno 3841 bound_to 3832
    4.8688   -9.4855    4.9268 LP  0  0  0  0  0  0  0  0  0  0  0  0  # atno 4297 bound_to 1298
    3.5232  -10.0900    4.2263 LP  0  0  0  0  0  0  0  0  0  0  0  0  # atno 4298 bound_to 1298
    1.3654   -9.2432    8.3975 LP  0  0  0  0  0  0  0  0  0  0  0  0  # atno 4299 bound_to 2456
    1.9721   -8.0699    7.4372 LP  0  0  0  0  0  0  0  0  0  0  0  0  # atno 4300 bound_to 2456
    2.7274   -9.1893    4.9631 LP  0  0  0  0  0  0  0  0  0  0  0  0  # atno 4301 bound_to 2510
    2.0461   -8.2075    6.0760 LP  0  0  0  0  0  0  0  0  0  0  0  0  # atno 4302 bound_to 2510
   -3.4935  -16.6163   14.3081 LP  0  0  0  0  0  0  0  0  0  0  0  0  # atno 4306 bound_to 3712
   -3.1309  -17.4588   12.9571 LP  0  0  0  0  0  0  0  0  0  0  0  0  # atno 4307 bound_to 3712
    1.9551  -19.6343    8.3484 LP  0  0  0  0  0  0  0  0  0  0  0  0  # atno 4314 bound_to 3832
    3.1226  -20.7436    8.6187 LP  0  0  0  0  0  0  0  0  0  0  0  0  # atno 4315 bound_to 3832
   -4.5158  -23.2985   10.2262 LP  0  0  0  0  0  0  0  0  0  0  0  0  # atno 4318 bound_to 3762
   -5.4801  -22.0918   10.7562 LP  0  0  0  0  0  0  0  0  0  0  0  0  # atno 4319 bound_to 3762
   -4.6239   -5.4551    9.4302 LP  0  0  0  0  0  0  0  0  0  0  0  0  # atno 4320 bound_to 2467
   -5.3573   -5.0325    8.0338 LP  0  0  0  0  0  0  0  0  0  0  0  0  # atno 4321 bound_to 2467

> <Gold.Score>
     Score     S(PLP)   S(hbond)     S(cho)   S(metal)  DE(clash)   DE(tors)     intcor
     37.25     -37.78       0.00       0.00       0.00       0.00       0.53       0.53

> <Gold.PLP.Fitness>
37.2453

> <Gold.PLP.PLP>
-37.7829

> <Gold.PLP.part.hbond>
-0.7257

> <Gold.PLP.part.metal>
0.0000

> <Gold.PLP.part.buried>
-5.3647

> <Gold.PLP.part.nonpolar>
-34.9132

> <Gold.PLP.part.repulsive>
2.2562

> <Gold.PLP.ligand.clash>
0.0000

> <Gold.PLP.ligand.torsion>
0.5328

> <Gold.PLP.Chemscore.Hbond>
0.0000

> <Gold.PLP.Chemscore.CHOScore>
0.0000

> <Gold.PLP.Chemscore.Metal>
0.0000

> <Gold.PLP.Chemscore.Internal.Correction>
0.5279

