#       Name:                EN300-266260_i002
#       Creating user name   fsindt
#       Creation time:       Wed Mar  1 08:11:24 2023


#       File generated by GOLD software.
#

@<TRIPOS>MOLECULE
EN300-266260_i002|acide_1|mol2|7357|dock3
    29    28     1
SMALL
USER_CHARGES


@<TRIPOS>ATOM
      1 C1           1.4520 -15.7064  12.3729 C.3            1 <1>                0.0000
      2 O2           1.3020 -17.1098  12.5971 O.3            1 <1>                0.0000
      3 C3           1.2385 -17.4744  13.9772 C.3            1 <1>                0.0000
      4 C4           2.4866 -16.9612  14.6982 C.3            1 <1>                0.0000
      5 C5           0.0107 -16.8639  14.6023 C.2            1 <1>                0.0000
      6 O6          -0.8910 -17.5811  15.0013 O.co2          1 <1>                0.0000
      7 O7          -0.0811 -15.6528  14.7091 O.co2          1 <1>               -1.0000
      8 C8           1.1702 -18.9751  14.0977 C.2            1 <1>                0.0000
      9 O9           1.1626 -19.4937  15.1890 O.2            1 <1>                0.0000
     10 O10          1.1178 -19.7354  12.9928 O.3            1 <1>                0.0000
     11 C11          0.4540 -21.0216  13.1086 C.3            1 <1>                0.0000
     12 C12          1.3434 -21.9856  13.8964 C.3            1 <1>                0.0000
     13 C13         -0.8783 -20.8439  13.8397 C.3            1 <1>                0.0000
     14 C14          0.1973 -21.5906  11.7116 C.3            1 <1>                0.0000
     15 H15          0.6043 -15.1764  12.8070 H              1 <1>                0.0000
     16 H16          2.3744 -15.3606  12.8397 H              1 <1>                0.0000
     17 H17          1.4921 -15.5118  11.3012 H              1 <1>                0.0000
     18 H18          2.5360 -15.8758  14.6111 H              1 <1>                0.0000
     19 H19          2.4382 -17.2394  15.7510 H              1 <1>                0.0000
     20 H20          3.3747 -17.4028  14.2462 H              1 <1>                0.0000
     21 H21          1.5263 -21.5802  14.8915 H              1 <1>                0.0000
     22 H22          0.8451 -22.9511  13.9833 H              1 <1>                0.0000
     23 H23          2.2926 -22.1122  13.3755 H              1 <1>                0.0000
     24 H24         -1.5119 -20.1572  13.2784 H              1 <1>                0.0000
     25 H25         -1.3766 -21.8093  13.9265 H              1 <1>                0.0000
     26 H26         -0.6953 -20.4385  14.8348 H              1 <1>                0.0000
     27 H27          1.1464 -21.7172  11.1909 H              1 <1>                0.0000
     28 H28         -0.3010 -22.5561  11.7986 H              1 <1>                0.0000
     29 H29         -0.4364 -20.9039  11.1505 H              1 <1>                0.0000
@<TRIPOS>BOND
    1    1    2 1     
    2    1   15 1     
    3    1   16 1     
    4    1   17 1     
    5    2    3 1     
    6    3    4 1     
    7    3    5 1     
    8    3    8 1     
    9    4   18 1     
   10    4   19 1     
   11    4   20 1     
   12    5    6 ar    
   13    5    7 ar    
   14    8    9 2     
   15    8   10 1     
   16   10   11 1     
   17   11   12 1     
   18   11   13 1     
   19   11   14 1     
   20   12   21 1     
   21   12   22 1     
   22   12   23 1     
   23   13   24 1     
   24   13   25 1     
   25   13   26 1     
   26   14   27 1     
   27   14   28 1     
   28   14   29 1     
@<TRIPOS>SUBSTRUCTURE
      1 ****           1
@<TRIPOS>COMMENT
> <Gold.Version>
2022.2.0

> <Gold.Id.Protein>
3pbl|protein|mol2

> <Gold.Protein.RotatedTorsions>
[ 1303 1298 1297 1294 ] final   59.09 input  179.99 | X-H torsion
[ 2461 2456 2455 2452 ] final -153.21 input   30.03 | X-H torsion
[ 2515 2510 2509 2506 ] final  -46.55 input  -89.99 | X-H torsion
[ 3721 3712 3711 3710 ] final  -16.04 input -179.91 | X-H torsion
[ 3841 3832 3831 3830 ] final  -38.88 input -179.91 | X-H torsion
[ 3767 3762 3761 3758 ] final   92.21 input  -89.99 | X-H torsion
[ 2472 2467 2466 2463 ] final -164.53 input  -89.97 | X-H torsion

> <Gold.Protein.ActiveResidues>
 VAL82   VAL86   LEU89   PHE106  VAL107  ASP110  VAL111  MET112  CYS114  THR115 
 CYS181  SER182  ILE183  PHE188  VAL189  ILE190  SER192  SER193  SER196  TRP342 
 PHE345  PHE346  HIS349  VAL350  TYR365  THR369  GLY372  TYR373 

> <Gold.Protein.RotatedAtoms>
    3.9956  -10.2707    4.6254 H   0  0  0  0  0  0  0  0  0  0  0  0  # atno 1303 bound_to 1298
    1.0266   -9.2888    8.3249 H   0  0  0  0  0  0  0  0  0  0  0  0  # atno 2461 bound_to 2456
   -5.1776   -5.4347    9.2024 H   0  0  0  0  0  0  0  0  0  0  0  0  # atno 2472 bound_to 2467
    2.7891   -8.2838    4.3542 H   0  0  0  0  0  0  0  0  0  0  0  0  # atno 2515 bound_to 2510
   -2.5365  -17.8384   14.4472 H   0  0  0  0  0  0  0  0  0  0  0  0  # atno 3721 bound_to 3712
   -4.1695  -23.3253   10.5290 H   0  0  0  0  0  0  0  0  0  0  0  0  # atno 3767 bound_to 3762
    1.5612  -20.0283    9.2567 H   0  0  0  0  0  0  0  0  0  0  0  0  # atno 3841 bound_to 3832
    3.5067   -8.9635    3.7777 LP  0  0  0  0  0  0  0  0  0  0  0  0  # atno 4297 bound_to 1298
    4.8600   -8.8868    4.6884 LP  0  0  0  0  0  0  0  0  0  0  0  0  # atno 4298 bound_to 1298
    2.1251   -8.2639    7.6844 LP  0  0  0  0  0  0  0  0  0  0  0  0  # atno 4299 bound_to 2456
    0.5860   -8.2558    7.1390 LP  0  0  0  0  0  0  0  0  0  0  0  0  # atno 4300 bound_to 2456
    2.4170   -9.1574    5.6824 LP  0  0  0  0  0  0  0  0  0  0  0  0  # atno 4301 bound_to 2510
    2.0904   -7.5580    5.6390 LP  0  0  0  0  0  0  0  0  0  0  0  0  # atno 4302 bound_to 2510
   -3.5175  -16.5884   14.2173 LP  0  0  0  0  0  0  0  0  0  0  0  0  # atno 4306 bound_to 3712
   -3.0817  -17.5431   12.9662 LP  0  0  0  0  0  0  0  0  0  0  0  0  # atno 4307 bound_to 3712
    2.7109  -19.9259    8.1414 LP  0  0  0  0  0  0  0  0  0  0  0  0  # atno 4314 bound_to 3832
    2.7150  -21.1437    9.2293 LP  0  0  0  0  0  0  0  0  0  0  0  0  # atno 4315 bound_to 3832
   -5.4931  -22.3782   10.3952 LP  0  0  0  0  0  0  0  0  0  0  0  0  # atno 4318 bound_to 3762
   -4.4646  -22.1718   11.6467 LP  0  0  0  0  0  0  0  0  0  0  0  0  # atno 4319 bound_to 3762
   -4.8901   -4.8611    7.7009 LP  0  0  0  0  0  0  0  0  0  0  0  0  # atno 4320 bound_to 2467
   -3.6494   -5.0977    8.7360 LP  0  0  0  0  0  0  0  0  0  0  0  0  # atno 4321 bound_to 2467

> <Gold.Score>
     Score     S(PLP)   S(hbond)     S(cho)   S(metal)  DE(clash)   DE(tors)     intcor
     37.01     -31.76       2.00       0.00       0.00       0.00       0.65       0.55

> <Gold.PLP.Fitness>
37.0111

> <Gold.PLP.PLP>
-31.7562

> <Gold.PLP.part.hbond>
-2.0000

> <Gold.PLP.part.metal>
0.0000

> <Gold.PLP.part.buried>
-5.1015

> <Gold.PLP.part.nonpolar>
-25.1181

> <Gold.PLP.part.repulsive>
0.3322

> <Gold.PLP.ligand.clash>
0.0000

> <Gold.PLP.ligand.torsion>
0.6466

> <Gold.PLP.Chemscore.Hbond>
2.0000

> <Gold.PLP.Chemscore.CHOScore>
0.0000

> <Gold.PLP.Chemscore.Metal>
0.0000

> <Gold.Chemscore.Hbonds>
donor molecule, donor type, donor heavy atom, donor atom, acceptor molecule, acceptor atom, score
      P1  H  2305  2313       L1     7  1.00
      P1  H  3712  3721       L1     6  1.00

> <Gold.PLP.Chemscore.Internal.Correction>
0.5482

