#       Name:                EN300-266260_i002
#       Creating user name   fsindt
#       Creation time:       Wed Mar  1 08:11:32 2023


#       File generated by GOLD software.
#

@<TRIPOS>MOLECULE
EN300-266260_i002|acide_1|mol2|7357|dock10
    29    28     1
SMALL
USER_CHARGES


@<TRIPOS>ATOM
      1 C1          -0.6875 -17.7936  11.8759 C.3            1 <1>                0.0000
      2 O2           0.6420 -17.4608  12.2808 O.3            1 <1>                0.0000
      3 C3           0.9562 -17.8492  13.6196 C.3            1 <1>                0.0000
      4 C4           2.3612 -17.3597  13.9762 C.3            1 <1>                0.0000
      5 C5          -0.0439 -17.2391  14.5676 C.2            1 <1>                0.0000
      6 O6          -0.7976 -17.9565  15.2032 O.co2          1 <1>                0.0000
      7 O7          -0.0993 -16.0283  14.6991 O.co2          1 <1>               -1.0000
      8 C8           0.9038 -19.3511  13.7324 C.2            1 <1>                0.0000
      9 O9           1.1213 -19.8850  14.7942 O.2            1 <1>                0.0000
     10 O10          0.6156 -20.0956  12.6533 O.3            1 <1>                0.0000
     11 C11          0.0351 -21.4049  12.8918 C.3            1 <1>                0.0000
     12 C12          1.0891 -22.3250  13.5112 C.3            1 <1>                0.0000
     13 C13         -1.1506 -21.2704  13.8493 C.3            1 <1>                0.0000
     14 C14         -0.4448 -21.9992  11.5660 C.3            1 <1>                0.0000
     15 H15         -0.8271 -18.8727  11.9389 H              1 <1>                0.0000
     16 H16         -1.4022 -17.2958  12.5313 H              1 <1>                0.0000
     17 H17         -0.8472 -17.4659  10.8487 H              1 <1>                0.0000
     18 H18          2.3992 -16.2734  13.8946 H              1 <1>                0.0000
     19 H19          2.6009 -17.6560  14.9974 H              1 <1>                0.0000
     20 H20          3.0846 -17.8010  13.2905 H              1 <1>                0.0000
     21 H21          1.4309 -21.9017  14.4556 H              1 <1>                0.0000
     22 H22          0.6533 -23.3079  13.6902 H              1 <1>                0.0000
     23 H23          1.9338 -22.4208  12.8290 H              1 <1>                0.0000
     24 H24         -1.9014 -20.6151  13.4080 H              1 <1>                0.0000
     25 H25         -1.5864 -22.2533  14.0283 H              1 <1>                0.0000
     26 H26         -0.8087 -20.8471  14.7938 H              1 <1>                0.0000
     27 H27          0.3999 -22.0950  10.8839 H              1 <1>                0.0000
     28 H28         -0.8805 -22.9821  11.7450 H              1 <1>                0.0000
     29 H29         -1.1957 -21.3438  11.1248 H              1 <1>                0.0000
@<TRIPOS>BOND
    1    1    2 1     
    2    1   15 1     
    3    1   16 1     
    4    1   17 1     
    5    2    3 1     
    6    3    4 1     
    7    3    5 1     
    8    3    8 1     
    9    4   18 1     
   10    4   19 1     
   11    4   20 1     
   12    5    6 ar    
   13    5    7 ar    
   14    8    9 2     
   15    8   10 1     
   16   10   11 1     
   17   11   12 1     
   18   11   13 1     
   19   11   14 1     
   20   12   21 1     
   21   12   22 1     
   22   12   23 1     
   23   13   24 1     
   24   13   25 1     
   25   13   26 1     
   26   14   27 1     
   27   14   28 1     
   28   14   29 1     
@<TRIPOS>SUBSTRUCTURE
      1 ****           1
@<TRIPOS>COMMENT
> <Gold.Version>
2022.2.0

> <Gold.Id.Protein>
3pbl|protein|mol2

> <Gold.Protein.RotatedTorsions>
[ 1303 1298 1297 1294 ] final -139.19 input  179.99 | X-H torsion
[ 2461 2456 2455 2452 ] final   98.27 input   30.03 | X-H torsion
[ 2515 2510 2509 2506 ] final -126.11 input  -89.99 | X-H torsion
[ 3721 3712 3711 3710 ] final   -5.87 input -179.91 | X-H torsion
[ 3841 3832 3831 3830 ] final   51.08 input -179.91 | X-H torsion
[ 3767 3762 3761 3758 ] final   29.83 input  -89.99 | X-H torsion
[ 2472 2467 2466 2463 ] final -100.98 input  -89.97 | X-H torsion

> <Gold.Protein.ActiveResidues>
 VAL82   VAL86   LEU89   PHE106  VAL107  ASP110  VAL111  MET112  CYS114  THR115 
 CYS181  SER182  ILE183  PHE188  VAL189  ILE190  SER192  SER193  SER196  TRP342 
 PHE345  PHE346  HIS349  VAL350  TYR365  THR369  GLY372  TYR373 

> <Gold.Protein.RotatedAtoms>
    4.4842   -8.5080    4.2809 H   0  0  0  0  0  0  0  0  0  0  0  0  # atno 1303 bound_to 1298
    2.1585   -8.3892    7.8213 H   0  0  0  0  0  0  0  0  0  0  0  0  # atno 2461 bound_to 2456
   -4.2006   -5.3889    9.3736 H   0  0  0  0  0  0  0  0  0  0  0  0  # atno 2472 bound_to 2467
    2.6824   -9.2319    5.0919 H   0  0  0  0  0  0  0  0  0  0  0  0  # atno 2515 bound_to 2510
   -2.5014  -17.9191   14.3214 H   0  0  0  0  0  0  0  0  0  0  0  0  # atno 3721 bound_to 3712
   -4.9851  -23.0550   10.0645 H   0  0  0  0  0  0  0  0  0  0  0  0  # atno 3767 bound_to 3762
    2.3489  -20.9138    9.5618 H   0  0  0  0  0  0  0  0  0  0  0  0  # atno 3841 bound_to 3832
    4.5475  -10.0141    4.9087 LP  0  0  0  0  0  0  0  0  0  0  0  0  # atno 4297 bound_to 1298
    3.3304   -9.5995    3.9020 LP  0  0  0  0  0  0  0  0  0  0  0  0  # atno 4298 bound_to 1298
    0.7254   -8.1450    7.0770 LP  0  0  0  0  0  0  0  0  0  0  0  0  # atno 4299 bound_to 2456
    0.8542   -9.2739    8.2498 LP  0  0  0  0  0  0  0  0  0  0  0  0  # atno 4300 bound_to 2456
    2.0327   -8.0703    6.0376 LP  0  0  0  0  0  0  0  0  0  0  0  0  # atno 4301 bound_to 2510
    2.5815   -7.6965    4.5458 LP  0  0  0  0  0  0  0  0  0  0  0  0  # atno 4302 bound_to 2510
   -3.4731  -16.6419   14.3721 LP  0  0  0  0  0  0  0  0  0  0  0  0  # atno 4306 bound_to 3712
   -3.1666  -17.3965   12.9567 LP  0  0  0  0  0  0  0  0  0  0  0  0  # atno 4307 bound_to 3712
    1.5166  -19.7965    8.7651 LP  0  0  0  0  0  0  0  0  0  0  0  0  # atno 4314 bound_to 3832
    2.9994  -20.2502    8.2532 LP  0  0  0  0  0  0  0  0  0  0  0  0  # atno 4315 bound_to 3832
   -5.2234  -21.9204   11.2145 LP  0  0  0  0  0  0  0  0  0  0  0  0  # atno 4318 bound_to 3762
   -3.9190  -22.8998   11.2918 LP  0  0  0  0  0  0  0  0  0  0  0  0  # atno 4319 bound_to 3762
   -5.5038   -5.1846    8.4111 LP  0  0  0  0  0  0  0  0  0  0  0  0  # atno 4320 bound_to 2467
   -4.0125   -4.8200    7.8546 LP  0  0  0  0  0  0  0  0  0  0  0  0  # atno 4321 bound_to 2467

> <Gold.Score>
     Score     S(PLP)   S(hbond)     S(cho)   S(metal)  DE(clash)   DE(tors)     intcor
     34.54     -29.04       2.00       0.00       0.00       0.00       0.52       0.53

> <Gold.PLP.Fitness>
34.5350

> <Gold.PLP.PLP>
-29.0371

> <Gold.PLP.part.hbond>
-2.0000

> <Gold.PLP.part.metal>
0.0000

> <Gold.PLP.part.buried>
-4.3888

> <Gold.PLP.part.nonpolar>
-22.9554

> <Gold.PLP.part.repulsive>
0.2638

> <Gold.PLP.ligand.clash>
0.0000

> <Gold.PLP.ligand.torsion>
0.5150

> <Gold.PLP.Chemscore.Hbond>
2.0000

> <Gold.PLP.Chemscore.CHOScore>
0.0000

> <Gold.PLP.Chemscore.Metal>
0.0000

> <Gold.Chemscore.Hbonds>
donor molecule, donor type, donor heavy atom, donor atom, acceptor molecule, acceptor atom, score
      P1  H  2305  2313       L1     7  1.00
      P1  H  3712  3721       L1     6  1.00

> <Gold.PLP.Chemscore.Internal.Correction>
0.5279

