#       Name:                EN300-266260_i002
#       Creating user name   fsindt
#       Creation time:       Wed Mar  1 08:11:25 2023


#       File generated by GOLD software.
#

@<TRIPOS>MOLECULE
EN300-266260_i002|acide_1|mol2|7357|dock4
    29    28     1
SMALL
USER_CHARGES


@<TRIPOS>ATOM
      1 C1          -0.0818 -14.8495  12.2959 C.3            1 <1>                0.0000
      2 O2          -0.3218 -16.2517  12.1602 O.3            1 <1>                0.0000
      3 C3           0.3203 -17.0503  13.1561 C.3            1 <1>                0.0000
      4 C4           1.8228 -16.7618  13.1506 C.3            1 <1>                0.0000
      5 C5          -0.2499 -16.7181  14.5110 C.2            1 <1>                0.0000
      6 O6          -0.1108 -15.5983  14.9729 O.co2          1 <1>                0.0000
      7 O7          -0.8503 -17.5688  15.1451 O.co2          1 <1>               -1.0000
      8 C8           0.0878 -18.5090  12.8572 C.2            1 <1>                0.0000
      9 O9          -0.4549 -18.8357  11.8283 O.2            1 <1>                0.0000
     10 O10          0.4834 -19.4451  13.7340 O.3            1 <1>                0.0000
     11 C11          0.7427 -20.7734  13.2080 C.3            1 <1>                0.0000
     12 C12         -0.5769 -21.4192  12.7804 C.3            1 <1>                0.0000
     13 C13          1.6752 -20.6702  11.9994 C.3            1 <1>                0.0000
     14 C14          1.4028 -21.6305  14.2899 C.3            1 <1>                0.0000
     15 H15         -0.4475 -14.5104  13.2650 H              1 <1>                0.0000
     16 H16          0.9883 -14.6554  12.2231 H              1 <1>                0.0000
     17 H17         -0.6031 -14.3133  11.5029 H              1 <1>                0.0000
     18 H18          1.9911 -15.7068  13.3668 H              1 <1>                0.0000
     19 H19          2.3126 -17.3710  13.9102 H              1 <1>                0.0000
     20 H20          2.2353 -17.0021  12.1706 H              1 <1>                0.0000
     21 H21         -1.0471 -20.8086  12.0096 H              1 <1>                0.0000
     22 H22         -0.3822 -22.4163  12.3854 H              1 <1>                0.0000
     23 H23         -1.2412 -21.4927  13.6414 H              1 <1>                0.0000
     24 H24          2.6152 -20.2102  12.3041 H              1 <1>                0.0000
     25 H25          1.8699 -21.6673  11.6045 H              1 <1>                0.0000
     26 H26          1.2048 -20.0596  11.2287 H              1 <1>                0.0000
     27 H27          0.7385 -21.7040  15.1508 H              1 <1>                0.0000
     28 H28          1.5975 -22.6276  13.8950 H              1 <1>                0.0000
     29 H29          2.3429 -21.1705  14.5945 H              1 <1>                0.0000
@<TRIPOS>BOND
    1    1    2 1     
    2    1   15 1     
    3    1   16 1     
    4    1   17 1     
    5    2    3 1     
    6    3    4 1     
    7    3    5 1     
    8    3    8 1     
    9    4   18 1     
   10    4   19 1     
   11    4   20 1     
   12    5    6 ar    
   13    5    7 ar    
   14    8    9 2     
   15    8   10 1     
   16   10   11 1     
   17   11   12 1     
   18   11   13 1     
   19   11   14 1     
   20   12   21 1     
   21   12   22 1     
   22   12   23 1     
   23   13   24 1     
   24   13   25 1     
   25   13   26 1     
   26   14   27 1     
   27   14   28 1     
   28   14   29 1     
@<TRIPOS>SUBSTRUCTURE
      1 ****           1
@<TRIPOS>COMMENT
> <Gold.Version>
2022.2.0

> <Gold.Id.Protein>
3pbl|protein|mol2

> <Gold.Protein.RotatedTorsions>
[ 1303 1298 1297 1294 ] final  153.60 input  179.99 | X-H torsion
[ 2461 2456 2455 2452 ] final -167.34 input   30.03 | X-H torsion
[ 2515 2510 2509 2506 ] final   43.73 input  -89.99 | X-H torsion
[ 3721 3712 3711 3710 ] final  -13.09 input -179.91 | X-H torsion
[ 3841 3832 3831 3830 ] final   64.51 input -179.91 | X-H torsion
[ 3767 3762 3761 3758 ] final   38.22 input  -89.99 | X-H torsion
[ 2472 2467 2466 2463 ] final  -35.87 input  -89.97 | X-H torsion

> <Gold.Protein.ActiveResidues>
 VAL82   VAL86   LEU89   PHE106  VAL107  ASP110  VAL111  MET112  CYS114  THR115 
 CYS181  SER182  ILE183  PHE188  VAL189  ILE190  SER192  SER193  SER196  TRP342 
 PHE345  PHE346  HIS349  VAL350  TYR365  THR369  GLY372  TYR373 

> <Gold.Protein.RotatedAtoms>
    4.9091   -9.2589    4.8676 H   0  0  0  0  0  0  0  0  0  0  0  0  # atno 1303 bound_to 1298
    1.2503   -9.2691    8.3833 H   0  0  0  0  0  0  0  0  0  0  0  0  # atno 2461 bound_to 2456
   -3.6348   -5.0490    8.6029 H   0  0  0  0  0  0  0  0  0  0  0  0  # atno 2472 bound_to 2467
    2.2421   -7.4102    5.2043 H   0  0  0  0  0  0  0  0  0  0  0  0  # atno 2515 bound_to 2510
   -2.5251  -17.8637   14.4123 H   0  0  0  0  0  0  0  0  0  0  0  0  # atno 3721 bound_to 3712
   -4.8723  -23.1329   10.0795 H   0  0  0  0  0  0  0  0  0  0  0  0  # atno 3767 bound_to 3762
    2.5314  -20.9520    9.4831 H   0  0  0  0  0  0  0  0  0  0  0  0  # atno 3841 bound_to 3832
    3.6718  -10.2028    4.3734 LP  0  0  0  0  0  0  0  0  0  0  0  0  # atno 4297 bound_to 1298
    3.7810   -8.6597    3.8504 LP  0  0  0  0  0  0  0  0  0  0  0  0  # atno 4298 bound_to 1298
    2.0364   -8.1285    7.5182 LP  0  0  0  0  0  0  0  0  0  0  0  0  # atno 4299 bound_to 2456
    0.4511   -8.4107    7.2468 LP  0  0  0  0  0  0  0  0  0  0  0  0  # atno 4300 bound_to 2456
    2.8357   -8.7481    4.4809 LP  0  0  0  0  0  0  0  0  0  0  0  0  # atno 4301 bound_to 2510
    2.2190   -8.8412    5.9901 LP  0  0  0  0  0  0  0  0  0  0  0  0  # atno 4302 bound_to 2510
   -3.5060  -16.6014   14.2634 LP  0  0  0  0  0  0  0  0  0  0  0  0  # atno 4306 bound_to 3712
   -3.1065  -17.5009   12.9604 LP  0  0  0  0  0  0  0  0  0  0  0  0  # atno 4307 bound_to 3712
    1.4318  -19.9220    8.9299 LP  0  0  0  0  0  0  0  0  0  0  0  0  # atno 4314 bound_to 3832
    2.8734  -20.0806    8.1793 LP  0  0  0  0  0  0  0  0  0  0  0  0  # atno 4315 bound_to 3832
   -5.3077  -21.9410   11.1074 LP  0  0  0  0  0  0  0  0  0  0  0  0  # atno 4318 bound_to 3762
   -3.9475  -22.8013   11.3839 LP  0  0  0  0  0  0  0  0  0  0  0  0  # atno 4319 bound_to 3762
   -5.0628   -5.4511    9.2852 LP  0  0  0  0  0  0  0  0  0  0  0  0  # atno 4320 bound_to 2467
   -5.0191   -4.8934    7.7510 LP  0  0  0  0  0  0  0  0  0  0  0  0  # atno 4321 bound_to 2467

> <Gold.Score>
     Score     S(PLP)   S(hbond)     S(cho)   S(metal)  DE(clash)   DE(tors)     intcor
     34.61     -29.26       2.00       0.00       0.00       0.00       0.60       0.55

> <Gold.PLP.Fitness>
34.6128

> <Gold.PLP.PLP>
-29.2578

> <Gold.PLP.part.hbond>
-2.0000

> <Gold.PLP.part.metal>
0.0000

> <Gold.PLP.part.buried>
-3.8613

> <Gold.PLP.part.nonpolar>
-24.5508

> <Gold.PLP.part.repulsive>
0.2797

> <Gold.PLP.ligand.clash>
0.0000

> <Gold.PLP.ligand.torsion>
0.5966

> <Gold.PLP.Chemscore.Hbond>
2.0000

> <Gold.PLP.Chemscore.CHOScore>
0.0000

> <Gold.PLP.Chemscore.Metal>
0.0000

> <Gold.Chemscore.Hbonds>
donor molecule, donor type, donor heavy atom, donor atom, acceptor molecule, acceptor atom, score
      P1  H  2305  2313       L1     6  1.00
      P1  H  3712  3721       L1     7  1.00

> <Gold.PLP.Chemscore.Internal.Correction>
0.5482

