#       Name:                EN300-266260_i002
#       Creating user name   fsindt
#       Creation time:       Wed Mar  1 08:11:22 2023


#       File generated by GOLD software.
#

@<TRIPOS>MOLECULE
EN300-266260_i002|acide_1|mol2|7357|dock1
    29    28     1
SMALL
USER_CHARGES


@<TRIPOS>ATOM
      1 C1          -0.1787  -9.8957  11.3987 C.3            1 <1>                0.0000
      2 O2          -1.0906 -10.9953  11.3597 O.3            1 <1>                0.0000
      3 C3          -1.6997 -11.2002  10.0835 C.3            1 <1>                0.0000
      4 C4          -2.7870 -12.2700  10.2032 C.3            1 <1>                0.0000
      5 C5          -2.3151  -9.9097   9.6074 C.2            1 <1>                0.0000
      6 O6          -1.6012  -9.0005   9.2196 O.co2          1 <1>                0.0000
      7 O7          -3.5268  -9.7746   9.6099 O.co2          1 <1>               -1.0000
      8 C8          -0.6558 -11.6534   9.0956 C.2            1 <1>                0.0000
      9 O9           0.3421 -10.9936   8.9258 O.2            1 <1>                0.0000
     10 O10         -0.8346 -12.7900   8.4041 O.3            1 <1>                0.0000
     11 C11          0.3598 -13.4999   7.9826 C.3            1 <1>                0.0000
     12 C12          1.2960 -13.6787   9.1795 C.3            1 <1>                0.0000
     13 C13         -0.0308 -14.8727   7.4311 C.3            1 <1>                0.0000
     14 C14          1.0728 -12.6965   6.8930 C.3            1 <1>                0.0000
     15 H15          0.6250 -10.0645  10.6821 H              1 <1>                0.0000
     16 H16         -0.7065  -8.9769  11.1429 H              1 <1>                0.0000
     17 H17          0.2407  -9.8067  12.4008 H              1 <1>                0.0000
     18 H18         -3.5420 -11.9423  10.9177 H              1 <1>                0.0000
     19 H19         -3.2516 -12.4264   9.2297 H              1 <1>                0.0000
     20 H20         -2.3418 -13.2035  10.5475 H              1 <1>                0.0000
     21 H21          0.7880 -14.2510   9.9557 H              1 <1>                0.0000
     22 H22          2.1926 -14.2117   8.8631 H              1 <1>                0.0000
     23 H23          1.5742 -12.7008   9.5724 H              1 <1>                0.0000
     24 H24         -0.6977 -14.7452   6.5784 H              1 <1>                0.0000
     25 H25          0.8657 -15.4056   7.1147 H              1 <1>                0.0000
     26 H26         -0.5387 -15.4449   8.2074 H              1 <1>                0.0000
     27 H27          1.3511 -11.7187   7.2859 H              1 <1>                0.0000
     28 H28          1.9694 -13.2295   6.5766 H              1 <1>                0.0000
     29 H29          0.4059 -12.5692   6.0403 H              1 <1>                0.0000
@<TRIPOS>BOND
    1    1    2 1     
    2    1   15 1     
    3    1   16 1     
    4    1   17 1     
    5    2    3 1     
    6    3    4 1     
    7    3    5 1     
    8    3    8 1     
    9    4   18 1     
   10    4   19 1     
   11    4   20 1     
   12    5    6 ar    
   13    5    7 ar    
   14    8    9 2     
   15    8   10 1     
   16   10   11 1     
   17   11   12 1     
   18   11   13 1     
   19   11   14 1     
   20   12   21 1     
   21   12   22 1     
   22   12   23 1     
   23   13   24 1     
   24   13   25 1     
   25   13   26 1     
   26   14   27 1     
   27   14   28 1     
   28   14   29 1     
@<TRIPOS>SUBSTRUCTURE
      1 ****           1
@<TRIPOS>COMMENT
> <Gold.Version>
2022.2.0

> <Gold.Id.Protein>
3pbl|protein|mol2

> <Gold.Protein.RotatedTorsions>
[ 1303 1298 1297 1294 ] final  150.91 input  179.99 | X-H torsion
[ 2461 2456 2455 2452 ] final -151.61 input   30.03 | X-H torsion
[ 2515 2510 2509 2506 ] final   96.81 input  -89.99 | X-H torsion
[ 3721 3712 3711 3710 ] final   54.22 input -179.91 | X-H torsion
[ 3841 3832 3831 3830 ] final  -28.00 input -179.91 | X-H torsion
[ 3767 3762 3761 3758 ] final  -10.86 input  -89.99 | X-H torsion
[ 2472 2467 2466 2463 ] final  102.36 input  -89.97 | X-H torsion

> <Gold.Protein.ActiveResidues>
 VAL82   VAL86   LEU89   PHE106  VAL107  ASP110  VAL111  MET112  CYS114  THR115 
 CYS181  SER182  ILE183  PHE188  VAL189  ILE190  SER192  SER193  SER196  TRP342 
 PHE345  PHE346  HIS349  VAL350  TYR365  THR369  GLY372  TYR373 

> <Gold.Protein.RotatedAtoms>
    4.9053   -9.3009    4.8812 H   0  0  0  0  0  0  0  0  0  0  0  0  # atno 1303 bound_to 1298
    1.0020   -9.2884    8.3159 H   0  0  0  0  0  0  0  0  0  0  0  0  # atno 2461 bound_to 2456
   -5.2546   -4.9788    7.9138 H   0  0  0  0  0  0  0  0  0  0  0  0  # atno 2472 bound_to 2467
    2.0336   -7.8216    5.9090 H   0  0  0  0  0  0  0  0  0  0  0  0  # atno 2515 bound_to 2510
   -2.5625  -17.9466   13.4566 H   0  0  0  0  0  0  0  0  0  0  0  0  # atno 3721 bound_to 3712
   -5.4094  -22.5822   10.2269 H   0  0  0  0  0  0  0  0  0  0  0  0  # atno 3767 bound_to 3762
    1.5758  -20.1545    9.3607 H   0  0  0  0  0  0  0  0  0  0  0  0  # atno 3841 bound_to 3832
    3.6416  -10.1856    4.3458 LP  0  0  0  0  0  0  0  0  0  0  0  0  # atno 4297 bound_to 1298
    3.8149   -8.6349    3.8644 LP  0  0  0  0  0  0  0  0  0  0  0  0  # atno 4298 bound_to 1298
    2.1319   -8.2806    7.7035 LP  0  0  0  0  0  0  0  0  0  0  0  0  # atno 4299 bound_to 2456
    0.6038   -8.2395    7.1290 LP  0  0  0  0  0  0  0  0  0  0  0  0  # atno 4300 bound_to 2456
    2.6851   -7.9217    4.4153 LP  0  0  0  0  0  0  0  0  0  0  0  0  # atno 4301 bound_to 2510
    2.5782   -9.2560    5.3507 LP  0  0  0  0  0  0  0  0  0  0  0  0  # atno 4302 bound_to 2510
   -3.0318  -17.3356   14.8652 LP  0  0  0  0  0  0  0  0  0  0  0  0  # atno 4306 bound_to 3712
   -3.5374  -16.6709   13.4620 LP  0  0  0  0  0  0  0  0  0  0  0  0  # atno 4307 bound_to 3712
    2.5625  -19.8211    8.1395 LP  0  0  0  0  0  0  0  0  0  0  0  0  # atno 4314 bound_to 3832
    2.8466  -21.1026    9.1110 LP  0  0  0  0  0  0  0  0  0  0  0  0  # atno 4315 bound_to 3832
   -4.6977  -22.0321   11.5899 LP  0  0  0  0  0  0  0  0  0  0  0  0  # atno 4318 bound_to 3762
   -4.0206  -23.2607   10.7540 LP  0  0  0  0  0  0  0  0  0  0  0  0  # atno 4319 bound_to 3762
   -3.6741   -4.9517    8.3232 LP  0  0  0  0  0  0  0  0  0  0  0  0  # atno 4320 bound_to 2467
   -4.7883   -5.4630    9.4020 LP  0  0  0  0  0  0  0  0  0  0  0  0  # atno 4321 bound_to 2467

> <Gold.Score>
     Score     S(PLP)   S(hbond)     S(cho)   S(metal)  DE(clash)   DE(tors)     intcor
     42.50     -40.92       1.00       0.00       0.00       0.00       1.01       0.60

> <Gold.PLP.Fitness>
42.5049

> <Gold.PLP.PLP>
-40.9244

> <Gold.PLP.part.hbond>
-2.9655

> <Gold.PLP.part.metal>
0.0000

> <Gold.PLP.part.buried>
-3.8767

> <Gold.PLP.part.nonpolar>
-35.6888

> <Gold.PLP.part.repulsive>
0.6292

> <Gold.PLP.ligand.clash>
0.0000

> <Gold.PLP.ligand.torsion>
1.0087

> <Gold.PLP.Chemscore.Hbond>
1.0000

> <Gold.PLP.Chemscore.CHOScore>
0.0000

> <Gold.PLP.Chemscore.Metal>
0.0000

> <Gold.Chemscore.Hbonds>
donor molecule, donor type, donor heavy atom, donor atom, acceptor molecule, acceptor atom, score
      P1  H  2456  2461       L1     9  1.00

> <Gold.PLP.Chemscore.Internal.Correction>
0.5980

