#       Name:                EN300-266260_i002
#       Creating user name   fsindt
#       Creation time:       Wed Mar  1 08:11:23 2023


#       File generated by GOLD software.
#

@<TRIPOS>MOLECULE
EN300-266260_i002|acide_1|mol2|7357|dock2
    29    28     1
SMALL
USER_CHARGES


@<TRIPOS>ATOM
      1 C1           0.9539 -15.4877  12.0190 C.3            1 <1>                0.0000
      2 O2           0.4782 -16.8341  12.0726 O.3            1 <1>                0.0000
      3 C3           0.6889 -17.4753  13.3320 C.3            1 <1>                0.0000
      4 C4           2.1776 -17.4336  13.6828 C.3            1 <1>                0.0000
      5 C5          -0.0986 -16.7589  14.3986 C.2            1 <1>                0.0000
      6 O6          -0.9944 -17.3391  14.9882 O.co2          1 <1>                0.0000
      7 O7           0.1598 -15.5992  14.6719 O.co2          1 <1>               -1.0000
      8 C8           0.2325 -18.9091  13.2484 C.2            1 <1>                0.0000
      9 O9          -0.9249 -19.1618  13.0110 O.2            1 <1>                0.0000
     10 O10          1.1118 -19.9055  13.4379 O.3            1 <1>                0.0000
     11 C11          0.5662 -21.2247  13.7027 C.3            1 <1>                0.0000
     12 C12         -0.4333 -21.1407  14.8581 C.3            1 <1>                0.0000
     13 C13         -0.1441 -21.7436  12.4507 C.3            1 <1>                0.0000
     14 C14          1.7008 -22.1800  14.0783 C.3            1 <1>                0.0000
     15 H15          0.4414 -14.8909  12.7735 H              1 <1>                0.0000
     16 H16          2.0267 -15.4735  12.2116 H              1 <1>                0.0000
     17 H17          0.7567 -15.0716  11.0310 H              1 <1>                0.0000
     18 H18          2.5077 -16.3966  13.7434 H              1 <1>                0.0000
     19 H19          2.3383 -17.9228  14.6436 H              1 <1>                0.0000
     20 H20          2.7473 -17.9518  12.9114 H              1 <1>                0.0000
     21 H21         -1.2416 -20.4602  14.5905 H              1 <1>                0.0000
     22 H22         -0.8430 -22.1311  15.0569 H              1 <1>                0.0000
     23 H23          0.0726 -20.7711  15.7500 H              1 <1>                0.0000
     24 H24          0.5680 -21.8035  11.6277 H              1 <1>                0.0000
     25 H25         -0.5536 -22.7339  12.6495 H              1 <1>                0.0000
     26 H26         -0.9523 -21.0631  12.1832 H              1 <1>                0.0000
     27 H27          2.2066 -21.8103  14.9702 H              1 <1>                0.0000
     28 H28          1.2912 -23.1703  14.2771 H              1 <1>                0.0000
     29 H29          2.4128 -22.2399  13.2552 H              1 <1>                0.0000
@<TRIPOS>BOND
    1    1    2 1     
    2    1   15 1     
    3    1   16 1     
    4    1   17 1     
    5    2    3 1     
    6    3    4 1     
    7    3    5 1     
    8    3    8 1     
    9    4   18 1     
   10    4   19 1     
   11    4   20 1     
   12    5    6 ar    
   13    5    7 ar    
   14    8    9 2     
   15    8   10 1     
   16   10   11 1     
   17   11   12 1     
   18   11   13 1     
   19   11   14 1     
   20   12   21 1     
   21   12   22 1     
   22   12   23 1     
   23   13   24 1     
   24   13   25 1     
   25   13   26 1     
   26   14   27 1     
   27   14   28 1     
   28   14   29 1     
@<TRIPOS>SUBSTRUCTURE
      1 ****           1
@<TRIPOS>COMMENT
> <Gold.Version>
2022.2.0

> <Gold.Id.Protein>
3pbl|protein|mol2

> <Gold.Protein.RotatedTorsions>
[ 1303 1298 1297 1294 ] final   40.04 input  179.99 | X-H torsion
[ 2461 2456 2455 2452 ] final  -37.15 input   30.03 | X-H torsion
[ 2515 2510 2509 2506 ] final   59.38 input  -89.99 | X-H torsion
[ 3721 3712 3711 3710 ] final   33.91 input -179.91 | X-H torsion
[ 3841 3832 3831 3830 ] final   15.56 input -179.91 | X-H torsion
[ 3767 3762 3761 3758 ] final  146.04 input  -89.99 | X-H torsion
[ 2472 2467 2466 2463 ] final   94.66 input  -89.97 | X-H torsion

> <Gold.Protein.ActiveResidues>
 VAL82   VAL86   LEU89   PHE106  VAL107  ASP110  VAL111  MET112  CYS114  THR115 
 CYS181  SER182  ILE183  PHE188  VAL189  ILE190  SER192  SER193  SER196  TRP342 
 PHE345  PHE346  HIS349  VAL350  TYR365  THR369  GLY372  TYR373 

> <Gold.Protein.RotatedAtoms>
    3.7475  -10.2360    4.4395 H   0  0  0  0  0  0  0  0  0  0  0  0  # atno 1303 bound_to 1298
    0.5436   -8.2972    7.1657 H   0  0  0  0  0  0  0  0  0  0  0  0  # atno 2461 bound_to 2456
   -5.1623   -4.9407    7.8361 H   0  0  0  0  0  0  0  0  0  0  0  0  # atno 2472 bound_to 2467
    2.1532   -7.4589    5.4400 H   0  0  0  0  0  0  0  0  0  0  0  0  # atno 2515 bound_to 2510
   -2.4907  -18.0277   13.7422 H   0  0  0  0  0  0  0  0  0  0  0  0  # atno 3721 bound_to 3712
   -3.9111  -22.9420   11.2467 H   0  0  0  0  0  0  0  0  0  0  0  0  # atno 3767 bound_to 3762
    1.8920  -20.6540    9.6122 H   0  0  0  0  0  0  0  0  0  0  0  0  # atno 3841 bound_to 3832
    3.7031   -8.7252    3.8218 LP  0  0  0  0  0  0  0  0  0  0  0  0  # atno 4297 bound_to 1298
    4.9117   -9.1598    4.8303 LP  0  0  0  0  0  0  0  0  0  0  0  0  # atno 4298 bound_to 1298
    1.0884   -9.2873    8.3449 LP  0  0  0  0  0  0  0  0  0  0  0  0  # atno 4299 bound_to 2456
    2.1055   -8.2236    7.6374 LP  0  0  0  0  0  0  0  0  0  0  0  0  # atno 4300 bound_to 2456
    2.8243   -8.5099    4.3861 LP  0  0  0  0  0  0  0  0  0  0  0  0  # atno 4301 bound_to 2510
    2.3194   -9.0308    5.8491 LP  0  0  0  0  0  0  0  0  0  0  0  0  # atno 4302 bound_to 2510
   -3.2008  -17.0507   14.8000 LP  0  0  0  0  0  0  0  0  0  0  0  0  # atno 4306 bound_to 3712
   -3.4513  -16.8623   13.1974 LP  0  0  0  0  0  0  0  0  0  0  0  0  # atno 4307 bound_to 3712
    1.9176  -19.6351    8.3723 LP  0  0  0  0  0  0  0  0  0  0  0  0  # atno 4314 bound_to 3832
    3.1263  -20.7117    8.5878 LP  0  0  0  0  0  0  0  0  0  0  0  0  # atno 4315 bound_to 3832
   -5.0345  -23.0172   10.0639 LP  0  0  0  0  0  0  0  0  0  0  0  0  # atno 4318 bound_to 3762
   -5.1815  -21.9160   11.2606 LP  0  0  0  0  0  0  0  0  0  0  0  0  # atno 4319 bound_to 3762
   -3.6461   -4.9908    8.4403 LP  0  0  0  0  0  0  0  0  0  0  0  0  # atno 4320 bound_to 2467
   -4.9086   -5.4621    9.3626 LP  0  0  0  0  0  0  0  0  0  0  0  0  # atno 4321 bound_to 2467

> <Gold.Score>
     Score     S(PLP)   S(hbond)     S(cho)   S(metal)  DE(clash)   DE(tors)     intcor
     35.69     -29.77       2.00       0.00       0.00       0.00       0.31       0.55

> <Gold.PLP.Fitness>
35.6931

> <Gold.PLP.PLP>
-29.7673

> <Gold.PLP.part.hbond>
-2.9214

> <Gold.PLP.part.metal>
0.0000

> <Gold.PLP.part.buried>
-4.6134

> <Gold.PLP.part.nonpolar>
-22.2945

> <Gold.PLP.part.repulsive>
0.2209

> <Gold.PLP.ligand.clash>
0.0000

> <Gold.PLP.ligand.torsion>
0.3112

> <Gold.PLP.Chemscore.Hbond>
2.0000

> <Gold.PLP.Chemscore.CHOScore>
0.0000

> <Gold.PLP.Chemscore.Metal>
0.0000

> <Gold.Chemscore.Hbonds>
donor molecule, donor type, donor heavy atom, donor atom, acceptor molecule, acceptor atom, score
      P1  H  2305  2313       L1     7  1.00
      P1  H  3712  3721       L1     9  1.00

> <Gold.PLP.Chemscore.Internal.Correction>
0.5482

