#       Name:                EN300-266260_i002
#       Creating user name   fsindt
#       Creation time:       Wed Mar  1 08:11:33 2023


#       File generated by GOLD software.
#

@<TRIPOS>MOLECULE
EN300-266260_i002|acide_1|mol2|7357|dock11
    29    28     1
SMALL
USER_CHARGES


@<TRIPOS>ATOM
      1 C1          -0.1953 -18.7855  11.2250 C.3            1 <1>                0.0000
      2 O2          -0.1318 -17.6403  12.0774 O.3            1 <1>                0.0000
      3 C3           0.6404 -17.8402  13.2630 C.3            1 <1>                0.0000
      4 C4           2.1250 -17.9075  12.8993 C.3            1 <1>                0.0000
      5 C5           0.4076 -16.6941  14.2134 C.2            1 <1>                0.0000
      6 O6           1.3292 -15.9541  14.5132 O.co2          1 <1>                0.0000
      7 O7          -0.7020 -16.5068  14.6826 O.co2          1 <1>               -1.0000
      8 C8           0.2254 -19.1308  13.9211 C.2            1 <1>                0.0000
      9 O9          -0.9020 -19.2626  14.3351 O.2            1 <1>                0.0000
     10 O10          1.1083 -20.1340  14.0475 O.3            1 <1>                0.0000
     11 C11          0.5675 -21.4727  14.2004 C.3            1 <1>                0.0000
     12 C12         -0.4589 -21.7373  13.0970 C.3            1 <1>                0.0000
     13 C13          1.7010 -22.4954  14.0985 C.3            1 <1>                0.0000
     14 C14         -0.1096 -21.5963  15.5670 C.3            1 <1>                0.0000
     15 H15          0.8113 -19.0607  10.9106 H              1 <1>                0.0000
     16 H16         -0.6468 -19.6168  11.7666 H              1 <1>                0.0000
     17 H17         -0.7991 -18.5526  10.3479 H              1 <1>                0.0000
     18 H18          2.4252 -16.9741  12.4233 H              1 <1>                0.0000
     19 H19          2.7141 -18.0601  13.8036 H              1 <1>                0.0000
     20 H20          2.2934 -18.7365  12.2118 H              1 <1>                0.0000
     21 H21          0.0234 -21.6493  12.1235 H              1 <1>                0.0000
     22 H22         -0.8649 -22.7423  13.2118 H              1 <1>                0.0000
     23 H23         -1.2664 -21.0087  13.1697 H              1 <1>                0.0000
     24 H24          2.4321 -22.3070  14.8846 H              1 <1>                0.0000
     25 H25          1.2950 -23.5004  14.2133 H              1 <1>                0.0000
     26 H26          2.1832 -22.4073  13.1250 H              1 <1>                0.0000
     27 H27         -0.9170 -20.8678  15.6395 H              1 <1>                0.0000
     28 H28         -0.5156 -22.6013  15.6818 H              1 <1>                0.0000
     29 H29          0.6217 -21.4079  16.3530 H              1 <1>                0.0000
@<TRIPOS>BOND
    1    1    2 1     
    2    1   15 1     
    3    1   16 1     
    4    1   17 1     
    5    2    3 1     
    6    3    4 1     
    7    3    5 1     
    8    3    8 1     
    9    4   18 1     
   10    4   19 1     
   11    4   20 1     
   12    5    6 ar    
   13    5    7 ar    
   14    8    9 2     
   15    8   10 1     
   16   10   11 1     
   17   11   12 1     
   18   11   13 1     
   19   11   14 1     
   20   12   21 1     
   21   12   22 1     
   22   12   23 1     
   23   13   24 1     
   24   13   25 1     
   25   13   26 1     
   26   14   27 1     
   27   14   28 1     
   28   14   29 1     
@<TRIPOS>SUBSTRUCTURE
      1 ****           1
@<TRIPOS>COMMENT
> <Gold.Version>
2022.2.0

> <Gold.Id.Protein>
3pbl|protein|mol2

> <Gold.Protein.RotatedTorsions>
[ 1303 1298 1297 1294 ] final   52.03 input  179.99 | X-H torsion
[ 2461 2456 2455 2452 ] final  -11.71 input   30.03 | X-H torsion
[ 2515 2510 2509 2506 ] final  114.98 input  -89.99 | X-H torsion
[ 3721 3712 3711 3710 ] final    2.67 input -179.91 | X-H torsion
[ 3841 3832 3831 3830 ] final -113.06 input -179.91 | X-H torsion
[ 3767 3762 3761 3758 ] final -171.53 input  -89.99 | X-H torsion
[ 2472 2467 2466 2463 ] final -107.39 input  -89.97 | X-H torsion

> <Gold.Protein.ActiveResidues>
 VAL82   VAL86   LEU89   PHE106  VAL107  ASP110  VAL111  MET112  CYS114  THR115 
 CYS181  SER182  ILE183  PHE188  VAL189  ILE190  SER192  SER193  SER196  TRP342 
 PHE345  PHE346  HIS349  VAL350  TYR365  THR369  GLY372  TYR373 

> <Gold.Protein.RotatedAtoms>
    3.9005  -10.2693    4.5588 H   0  0  0  0  0  0  0  0  0  0  0  0  # atno 1303 bound_to 1298
    0.8641   -8.0629    7.0436 H   0  0  0  0  0  0  0  0  0  0  0  0  # atno 2461 bound_to 2456
   -4.2990   -5.4108    9.4043 H   0  0  0  0  0  0  0  0  0  0  0  0  # atno 2472 bound_to 2467
    2.0342   -8.0872    6.0432 H   0  0  0  0  0  0  0  0  0  0  0  0  # atno 2515 bound_to 2510
   -2.4818  -17.9714   14.2052 H   0  0  0  0  0  0  0  0  0  0  0  0  # atno 3721 bound_to 3712
   -4.1773  -22.4299   11.6109 H   0  0  0  0  0  0  0  0  0  0  0  0  # atno 3767 bound_to 3762
    2.1308  -19.5818    8.5043 H   0  0  0  0  0  0  0  0  0  0  0  0  # atno 3841 bound_to 3832
    3.5726   -8.8684    3.7867 LP  0  0  0  0  0  0  0  0  0  0  0  0  # atno 4297 bound_to 1298
    4.8891   -8.9833    4.7461 LP  0  0  0  0  0  0  0  0  0  0  0  0  # atno 4298 bound_to 1298
    0.7163   -9.2392    8.1670 LP  0  0  0  0  0  0  0  0  0  0  0  0  # atno 4299 bound_to 2456
    2.1572   -8.5059    7.9374 LP  0  0  0  0  0  0  0  0  0  0  0  0  # atno 4300 bound_to 2456
    2.5745   -7.6841    4.5561 LP  0  0  0  0  0  0  0  0  0  0  0  0  # atno 4301 bound_to 2510
    2.6883   -9.2280    5.0755 LP  0  0  0  0  0  0  0  0  0  0  0  0  # atno 4302 bound_to 2510
   -3.4264  -16.7050   14.4910 LP  0  0  0  0  0  0  0  0  0  0  0  0  # atno 4306 bound_to 3712
   -3.2360  -17.2730   12.9719 LP  0  0  0  0  0  0  0  0  0  0  0  0  # atno 4307 bound_to 3712
    3.0967  -20.8445    8.7250 LP  0  0  0  0  0  0  0  0  0  0  0  0  # atno 4314 bound_to 3832
    1.6712  -20.7409    9.5149 LP  0  0  0  0  0  0  0  0  0  0  0  0  # atno 4315 bound_to 3832
   -4.4547  -23.3143   10.2664 LP  0  0  0  0  0  0  0  0  0  0  0  0  # atno 4318 bound_to 3762
   -5.4952  -22.1307   10.6941 LP  0  0  0  0  0  0  0  0  0  0  0  0  # atno 4319 bound_to 3762
   -5.4858   -5.1477    8.3140 LP  0  0  0  0  0  0  0  0  0  0  0  0  # atno 4320 bound_to 2467
   -3.9320   -4.8351    7.9210 LP  0  0  0  0  0  0  0  0  0  0  0  0  # atno 4321 bound_to 2467

> <Gold.Score>
     Score     S(PLP)   S(hbond)     S(cho)   S(metal)  DE(clash)   DE(tors)     intcor
     33.64     -28.24       2.00       0.00       0.00       0.00       0.56       0.53

> <Gold.PLP.Fitness>
33.6442

> <Gold.PLP.PLP>
-28.2417

> <Gold.PLP.part.hbond>
-3.0000

> <Gold.PLP.part.metal>
0.0000

> <Gold.PLP.part.buried>
-4.5126

> <Gold.PLP.part.nonpolar>
-20.9218

> <Gold.PLP.part.repulsive>
0.1887

> <Gold.PLP.ligand.clash>
0.0000

> <Gold.PLP.ligand.torsion>
0.5627

> <Gold.PLP.Chemscore.Hbond>
2.0000

> <Gold.PLP.Chemscore.CHOScore>
0.0000

> <Gold.PLP.Chemscore.Metal>
0.0000

> <Gold.Chemscore.Hbonds>
donor molecule, donor type, donor heavy atom, donor atom, acceptor molecule, acceptor atom, score
      P1  H  2305  2313       L1     6  1.00
      P1  H  3712  3721       L1     9  1.00

> <Gold.PLP.Chemscore.Internal.Correction>
0.5279

