#       Name:                EN300-266260_i002
#       Creating user name   fsindt
#       Creation time:       Wed Mar  1 08:11:38 2023


#       File generated by GOLD software.
#

@<TRIPOS>MOLECULE
EN300-266260_i002|acide_1|mol2|7357|dock15
    29    28     1
SMALL
USER_CHARGES


@<TRIPOS>ATOM
      1 C1           1.4183 -15.9011  12.3327 C.3            1 <1>                0.0000
      2 O2           1.2090 -17.2801  12.6436 O.3            1 <1>                0.0000
      3 C3           1.1087 -17.5517  14.0429 C.3            1 <1>                0.0000
      4 C4           2.3839 -17.0823  14.7462 C.3            1 <1>                0.0000
      5 C5          -0.0782 -16.8189  14.6132 C.2            1 <1>                0.0000
      6 O6          -1.0169 -17.4452  15.0751 O.co2          1 <1>                0.0000
      7 O7          -0.0999 -15.5999  14.6129 O.co2          1 <1>               -1.0000
      8 C8           0.9341 -19.0334  14.2558 C.2            1 <1>                0.0000
      9 O9           1.7020 -19.6360  14.9678 O.2            1 <1>                0.0000
     10 O10         -0.0746 -19.6835  13.6544 O.3            1 <1>                0.0000
     11 C11         -0.3665 -21.0260  14.1242 C.3            1 <1>                0.0000
     12 C12         -0.5871 -21.0000  15.6380 C.3            1 <1>                0.0000
     13 C13         -1.6294 -21.5448  13.4336 C.3            1 <1>                0.0000
     14 C14          0.8096 -21.9481  13.7961 C.3            1 <1>                0.0000
     15 H15          0.5854 -15.3117  12.7159 H              1 <1>                0.0000
     16 H16          2.3460 -15.5616  12.7935 H              1 <1>                0.0000
     17 H17          1.4835 -15.7781  11.2517 H              1 <1>                0.0000
     18 H18          2.5103 -16.0107  14.5923 H              1 <1>                0.0000
     19 H19          2.3074 -17.2895  15.8136 H              1 <1>                0.0000
     20 H20          3.2424 -17.6123  14.3337 H              1 <1>                0.0000
     21 H21         -1.4249 -20.3431  15.8718 H              1 <1>                0.0000
     22 H22         -0.8063 -22.0078  15.9907 H              1 <1>                0.0000
     23 H23          0.3126 -20.6305  16.1300 H              1 <1>                0.0000
     24 H24         -1.4721 -21.5634  12.3552 H              1 <1>                0.0000
     25 H25         -1.8485 -22.5525  13.7862 H              1 <1>                0.0000
     26 H26         -2.4672 -20.8878  13.6674 H              1 <1>                0.0000
     27 H27          1.7092 -21.5787  14.2881 H              1 <1>                0.0000
     28 H28          0.5905 -22.9560  14.1488 H              1 <1>                0.0000
     29 H29          0.9667 -21.9668  12.7177 H              1 <1>                0.0000
@<TRIPOS>BOND
    1    1    2 1     
    2    1   15 1     
    3    1   16 1     
    4    1   17 1     
    5    2    3 1     
    6    3    4 1     
    7    3    5 1     
    8    3    8 1     
    9    4   18 1     
   10    4   19 1     
   11    4   20 1     
   12    5    6 ar    
   13    5    7 ar    
   14    8    9 2     
   15    8   10 1     
   16   10   11 1     
   17   11   12 1     
   18   11   13 1     
   19   11   14 1     
   20   12   21 1     
   21   12   22 1     
   22   12   23 1     
   23   13   24 1     
   24   13   25 1     
   25   13   26 1     
   26   14   27 1     
   27   14   28 1     
   28   14   29 1     
@<TRIPOS>SUBSTRUCTURE
      1 ****           1
@<TRIPOS>COMMENT
> <Gold.Version>
2022.2.0

> <Gold.Id.Protein>
3pbl|protein|mol2

> <Gold.Protein.RotatedTorsions>
[ 1303 1298 1297 1294 ] final    8.87 input  179.99 | X-H torsion
[ 2461 2456 2455 2452 ] final -130.57 input   30.03 | X-H torsion
[ 2515 2510 2509 2506 ] final   -7.67 input  -89.99 | X-H torsion
[ 3721 3712 3711 3710 ] final  -28.66 input -179.91 | X-H torsion
[ 3841 3832 3831 3830 ] final  -47.96 input -179.91 | X-H torsion
[ 3767 3762 3761 3758 ] final  165.06 input  -89.99 | X-H torsion
[ 2472 2467 2466 2463 ] final  171.15 input  -89.97 | X-H torsion

> <Gold.Protein.ActiveResidues>
 VAL82   VAL86   LEU89   PHE106  VAL107  ASP110  VAL111  MET112  CYS114  THR115 
 CYS181  SER182  ILE183  PHE188  VAL189  ILE190  SER192  SER193  SER196  TRP342 
 PHE345  PHE346  HIS349  VAL350  TYR365  THR369  GLY372  TYR373 

> <Gold.Protein.RotatedAtoms>
    3.4403   -9.9817    4.1273 H   0  0  0  0  0  0  0  0  0  0  0  0  # atno 1303 bound_to 1298
    0.7013   -9.2341    8.1567 H   0  0  0  0  0  0  0  0  0  0  0  0  # atno 2461 bound_to 2456
   -5.4188   -5.3516    8.8981 H   0  0  0  0  0  0  0  0  0  0  0  0  # atno 2472 bound_to 2467
    2.5918   -7.7153    4.5314 H   0  0  0  0  0  0  0  0  0  0  0  0  # atno 2515 bound_to 2510
   -2.5959  -17.7143   14.5789 H   0  0  0  0  0  0  0  0  0  0  0  0  # atno 3721 bound_to 3712
   -3.9823  -22.7175   11.4506 H   0  0  0  0  0  0  0  0  0  0  0  0  # atno 3767 bound_to 3762
    1.5707  -19.9294    9.1623 H   0  0  0  0  0  0  0  0  0  0  0  0  # atno 3841 bound_to 3832
    4.1113   -8.4971    4.0169 LP  0  0  0  0  0  0  0  0  0  0  0  0  # atno 4297 bound_to 1298
    4.8109   -9.6423    4.9474 LP  0  0  0  0  0  0  0  0  0  0  0  0  # atno 4298 bound_to 1298
    2.1553   -8.5195    7.9504 LP  0  0  0  0  0  0  0  0  0  0  0  0  # atno 4299 bound_to 2456
    0.8809   -8.0548    7.0412 LP  0  0  0  0  0  0  0  0  0  0  0  0  # atno 4300 bound_to 2456
    2.6736   -9.2378    5.1154 LP  0  0  0  0  0  0  0  0  0  0  0  0  # atno 4301 bound_to 2510
    2.0313   -8.0463    6.0288 LP  0  0  0  0  0  0  0  0  0  0  0  0  # atno 4302 bound_to 2510
   -3.5538  -16.5570   14.0123 LP  0  0  0  0  0  0  0  0  0  0  0  0  # atno 4306 bound_to 3712
   -2.9769  -17.7179   13.0192 LP  0  0  0  0  0  0  0  0  0  0  0  0  # atno 4307 bound_to 3712
    2.8224  -20.0263    8.1623 LP  0  0  0  0  0  0  0  0  0  0  0  0  # atno 4314 bound_to 3832
    2.5925  -21.1575    9.3175 LP  0  0  0  0  0  0  0  0  0  0  0  0  # atno 4315 bound_to 3832
   -4.7779  -23.1889   10.1046 LP  0  0  0  0  0  0  0  0  0  0  0  0  # atno 4318 bound_to 3762
   -5.3669  -21.9687   11.0161 LP  0  0  0  0  0  0  0  0  0  0  0  0  # atno 4319 bound_to 3762
   -4.4985   -4.8051    7.6649 LP  0  0  0  0  0  0  0  0  0  0  0  0  # atno 4320 bound_to 2467
   -3.7997   -5.2369    9.0762 LP  0  0  0  0  0  0  0  0  0  0  0  0  # atno 4321 bound_to 2467

> <Gold.Score>
     Score     S(PLP)   S(hbond)     S(cho)   S(metal)  DE(clash)   DE(tors)     intcor
     33.64     -28.11       1.99       0.00       0.00       0.39       0.29       0.53

> <Gold.PLP.Fitness>
33.6389

> <Gold.PLP.PLP>
-28.1141

> <Gold.PLP.part.hbond>
-1.9580

> <Gold.PLP.part.metal>
0.0000

> <Gold.PLP.part.buried>
-4.6308

> <Gold.PLP.part.nonpolar>
-21.6729

> <Gold.PLP.part.repulsive>
0.2949

> <Gold.PLP.ligand.clash>
0.3933

> <Gold.PLP.ligand.torsion>
0.2929

> <Gold.PLP.Chemscore.Hbond>
1.9920

> <Gold.PLP.Chemscore.CHOScore>
0.0000

> <Gold.PLP.Chemscore.Metal>
0.0000

> <Gold.Chemscore.Hbonds>
donor molecule, donor type, donor heavy atom, donor atom, acceptor molecule, acceptor atom, score
      P1  H  2305  2313       L1     7  1.00
      P1  H  3712  3721       L1     6  0.99

> <Gold.PLP.Chemscore.Internal.Correction>
0.5279

