#       Name:                EN300-266260_i002
#       Creating user name   fsindt
#       Creation time:       Wed Mar  1 08:11:45 2023


#       File generated by GOLD software.
#

@<TRIPOS>MOLECULE
EN300-266260_i002|acide_1|mol2|7357|dock20
    29    28     1
SMALL
USER_CHARGES


@<TRIPOS>ATOM
      1 C1           1.0466 -11.8642   6.2981 C.3            1 <1>                0.0000
      2 O2           1.4439 -12.7955   7.3065 O.3            1 <1>                0.0000
      3 C3           0.3854 -13.1924   8.1806 C.3            1 <1>                0.0000
      4 C4          -0.6831 -13.9404   7.3808 C.3            1 <1>                0.0000
      5 C5           0.9332 -14.0963   9.2548 C.2            1 <1>                0.0000
      6 O6           2.1135 -14.4022   9.2508 O.co2          1 <1>                0.0000
      7 O7           0.1963 -14.5218  10.1280 O.co2          1 <1>               -1.0000
      8 C8          -0.2263 -11.9705   8.8160 C.2            1 <1>                0.0000
      9 O9           0.4848 -11.0986   9.2565 O.2            1 <1>                0.0000
     10 O10         -1.5610 -11.8507   8.8927 O.3            1 <1>                0.0000
     11 C11         -2.0918 -11.0946  10.0128 C.3            1 <1>                0.0000
     12 C12         -3.5913 -11.3672  10.1475 C.3            1 <1>                0.0000
     13 C13         -1.3788 -11.5190  11.2983 C.3            1 <1>                0.0000
     14 C14         -1.8646  -9.6006   9.7730 C.3            1 <1>                0.0000
     15 H15          0.2679 -12.3093   5.6789 H              1 <1>                0.0000
     16 H16          0.6629 -10.9596   6.7700 H              1 <1>                0.0000
     17 H17          1.9060 -11.6131   5.6765 H              1 <1>                0.0000
     18 H18         -0.2408 -14.8242   6.9212 H              1 <1>                0.0000
     19 H19         -1.4905 -14.2431   8.0476 H              1 <1>                0.0000
     20 H20         -1.0793 -13.2866   6.6038 H              1 <1>                0.0000
     21 H21         -3.7532 -12.4314  10.3183 H              1 <1>                0.0000
     22 H22         -3.9898 -10.7995  10.9883 H              1 <1>                0.0000
     23 H23         -4.0992 -11.0648   9.2317 H              1 <1>                0.0000
     24 H24         -0.3106 -11.3247  11.2024 H              1 <1>                0.0000
     25 H25         -1.7772 -10.9514  12.1391 H              1 <1>                0.0000
     26 H26         -1.5407 -12.5833  11.4691 H              1 <1>                0.0000
     27 H27         -2.3726  -9.2983   8.8573 H              1 <1>                0.0000
     28 H28         -2.2630  -9.0329  10.6139 H              1 <1>                0.0000
     29 H29         -0.7964  -9.4064   9.6771 H              1 <1>                0.0000
@<TRIPOS>BOND
    1    1    2 1     
    2    1   15 1     
    3    1   16 1     
    4    1   17 1     
    5    2    3 1     
    6    3    4 1     
    7    3    5 1     
    8    3    8 1     
    9    4   18 1     
   10    4   19 1     
   11    4   20 1     
   12    5    6 ar    
   13    5    7 ar    
   14    8    9 2     
   15    8   10 1     
   16   10   11 1     
   17   11   12 1     
   18   11   13 1     
   19   11   14 1     
   20   12   21 1     
   21   12   22 1     
   22   12   23 1     
   23   13   24 1     
   24   13   25 1     
   25   13   26 1     
   26   14   27 1     
   27   14   28 1     
   28   14   29 1     
@<TRIPOS>SUBSTRUCTURE
      1 ****           1
@<TRIPOS>COMMENT
> <Gold.Version>
2022.2.0

> <Gold.Id.Protein>
3pbl|protein|mol2

> <Gold.Protein.RotatedTorsions>
[ 1303 1298 1297 1294 ] final   33.90 input  179.99 | X-H torsion
[ 2461 2456 2455 2452 ] final -153.09 input   30.03 | X-H torsion
[ 2515 2510 2509 2506 ] final  -55.50 input  -89.99 | X-H torsion
[ 3721 3712 3711 3710 ] final   65.34 input -179.91 | X-H torsion
[ 3841 3832 3831 3830 ] final  156.07 input -179.91 | X-H torsion
[ 3767 3762 3761 3758 ] final   74.33 input  -89.99 | X-H torsion
[ 2472 2467 2466 2463 ] final  144.17 input  -89.97 | X-H torsion

> <Gold.Protein.ActiveResidues>
 VAL82   VAL86   LEU89   PHE106  VAL107  ASP110  VAL111  MET112  CYS114  THR115 
 CYS181  SER182  ILE183  PHE188  VAL189  ILE190  SER192  SER193  SER196  TRP342 
 PHE345  PHE346  HIS349  VAL350  TYR365  THR369  GLY372  TYR373 

> <Gold.Protein.RotatedAtoms>
    3.6751  -10.2043    4.3769 H   0  0  0  0  0  0  0  0  0  0  0  0  # atno 1303 bound_to 1298
    1.0248   -9.2887    8.3242 H   0  0  0  0  0  0  0  0  0  0  0  0  # atno 2461 bound_to 2456
   -5.5097   -5.2146    8.4901 H   0  0  0  0  0  0  0  0  0  0  0  0  # atno 2472 bound_to 2467
    2.8141   -8.4280    4.3687 H   0  0  0  0  0  0  0  0  0  0  0  0  # atno 2515 bound_to 2510
   -2.6207  -17.8662   13.3213 H   0  0  0  0  0  0  0  0  0  0  0  0  # atno 3721 bound_to 3712
   -4.3779  -23.3281   10.3230 H   0  0  0  0  0  0  0  0  0  0  0  0  # atno 3767 bound_to 3762
    3.1061  -20.3338    8.5736 H   0  0  0  0  0  0  0  0  0  0  0  0  # atno 3841 bound_to 3832
    3.7773   -8.6625    3.8490 LP  0  0  0  0  0  0  0  0  0  0  0  0  # atno 4297 bound_to 1298
    4.9099   -9.2542    4.8657 LP  0  0  0  0  0  0  0  0  0  0  0  0  # atno 4298 bound_to 1298
    2.1257   -8.2651    7.6858 LP  0  0  0  0  0  0  0  0  0  0  0  0  # atno 4299 bound_to 2456
    0.5873   -8.2545    7.1383 LP  0  0  0  0  0  0  0  0  0  0  0  0  # atno 4300 bound_to 2456
    2.3544   -9.0821    5.7923 LP  0  0  0  0  0  0  0  0  0  0  0  0  # atno 4301 bound_to 2510
    2.1280   -7.4889    5.5146 LP  0  0  0  0  0  0  0  0  0  0  0  0  # atno 4302 bound_to 2510
   -2.9408  -17.4966   14.8506 LP  0  0  0  0  0  0  0  0  0  0  0  0  # atno 4306 bound_to 3712
   -3.5612  -16.6028   13.6328 LP  0  0  0  0  0  0  0  0  0  0  0  0  # atno 4307 bound_to 3712
    2.0139  -21.0051    9.5393 LP  0  0  0  0  0  0  0  0  0  0  0  0  # atno 4314 bound_to 3832
    1.6273  -19.7116    8.6205 LP  0  0  0  0  0  0  0  0  0  0  0  0  # atno 4315 bound_to 3832
   -5.5075  -22.1856   10.6155 LP  0  0  0  0  0  0  0  0  0  0  0  0  # atno 4318 bound_to 3762
   -4.2419  -22.3617   11.6324 LP  0  0  0  0  0  0  0  0  0  0  0  0  # atno 4319 bound_to 3762
   -4.0824   -4.8107    7.8074 LP  0  0  0  0  0  0  0  0  0  0  0  0  # atno 4320 bound_to 2467
   -4.1249   -5.3683    9.3416 LP  0  0  0  0  0  0  0  0  0  0  0  0  # atno 4321 bound_to 2467

> <Gold.Score>
     Score     S(PLP)   S(hbond)     S(cho)   S(metal)  DE(clash)   DE(tors)     intcor
     45.16     -43.92       0.99       0.00       0.00       0.00       1.13       0.52

> <Gold.PLP.Fitness>
45.1554

> <Gold.PLP.PLP>
-43.9210

> <Gold.PLP.part.hbond>
-1.0000

> <Gold.PLP.part.metal>
0.0000

> <Gold.PLP.part.buried>
-4.6180

> <Gold.PLP.part.nonpolar>
-39.4628

> <Gold.PLP.part.repulsive>
0.3564

> <Gold.PLP.ligand.clash>
0.0000

> <Gold.PLP.ligand.torsion>
1.1306

> <Gold.PLP.Chemscore.Hbond>
0.9913

> <Gold.PLP.Chemscore.CHOScore>
0.0000

> <Gold.PLP.Chemscore.Metal>
0.0000

> <Gold.Chemscore.Hbonds>
donor molecule, donor type, donor heavy atom, donor atom, acceptor molecule, acceptor atom, score
      P1  H  2456  2461       L1     9  0.99

> <Gold.PLP.Chemscore.Internal.Correction>
0.5218

