#       Name:                EN300-266260_i002
#       Creating user name   fsindt
#       Creation time:       Wed Mar  1 08:11:34 2023


#       File generated by GOLD software.
#

@<TRIPOS>MOLECULE
EN300-266260_i002|acide_1|mol2|7357|dock12
    29    28     1
SMALL
USER_CHARGES


@<TRIPOS>ATOM
      1 C1          -4.0390 -11.0689  10.1911 C.3            1 <1>                0.0000
      2 O2          -2.8748 -11.7560   9.7278 O.3            1 <1>                0.0000
      3 C3          -1.6799 -10.9742   9.7779 C.3            1 <1>                0.0000
      4 C4          -1.9456  -9.5969   9.1669 C.3            1 <1>                0.0000
      5 C5          -1.2452 -10.8121  11.2117 C.2            1 <1>                0.0000
      6 O6          -0.3414 -10.0429  11.4914 O.co2          1 <1>                0.0000
      7 O7          -1.7971 -11.4500  12.0919 O.co2          1 <1>               -1.0000
      8 C8          -0.5924 -11.6680   8.9987 C.2            1 <1>                0.0000
      9 O9          -0.0975 -11.1263   8.0388 O.2            1 <1>                0.0000
     10 O10         -0.1738 -12.8878   9.3709 O.3            1 <1>                0.0000
     11 C11          0.3171 -13.7646   8.3229 C.3            1 <1>                0.0000
     12 C12          0.5145 -15.1731   8.8870 C.3            1 <1>                0.0000
     13 C13         -0.6984 -13.8109   7.1793 C.3            1 <1>                0.0000
     14 C14          1.6526 -13.2338   7.7978 C.3            1 <1>                0.0000
     15 H15         -3.8945 -10.7682  11.2287 H              1 <1>                0.0000
     16 H16         -4.2073 -10.1844   9.5766 H              1 <1>                0.0000
     17 H17         -4.9030 -11.7297  10.1211 H              1 <1>                0.0000
     18 H18         -2.7321  -9.0949   9.7304 H              1 <1>                0.0000
     19 H19         -1.0340  -9.0004   9.2050 H              1 <1>                0.0000
     20 H20         -2.2600  -9.7140   8.1297 H              1 <1>                0.0000
     21 H21         -0.4369 -15.5512   9.2611 H              1 <1>                0.0000
     22 H22          0.8830 -15.8313   8.1002 H              1 <1>                0.0000
     23 H23          1.2380 -15.1401   9.7017 H              1 <1>                0.0000
     24 H24         -0.8389 -12.8076   6.7775 H              1 <1>                0.0000
     25 H25         -0.3299 -14.4691   6.3926 H              1 <1>                0.0000
     26 H26         -1.6498 -14.1891   7.5535 H              1 <1>                0.0000
     27 H27          2.3760 -13.2009   8.6124 H              1 <1>                0.0000
     28 H28          2.0212 -13.8920   7.0110 H              1 <1>                0.0000
     29 H29          1.5120 -12.2304   7.3958 H              1 <1>                0.0000
@<TRIPOS>BOND
    1    1    2 1     
    2    1   15 1     
    3    1   16 1     
    4    1   17 1     
    5    2    3 1     
    6    3    4 1     
    7    3    5 1     
    8    3    8 1     
    9    4   18 1     
   10    4   19 1     
   11    4   20 1     
   12    5    6 ar    
   13    5    7 ar    
   14    8    9 2     
   15    8   10 1     
   16   10   11 1     
   17   11   12 1     
   18   11   13 1     
   19   11   14 1     
   20   12   21 1     
   21   12   22 1     
   22   12   23 1     
   23   13   24 1     
   24   13   25 1     
   25   13   26 1     
   26   14   27 1     
   27   14   28 1     
   28   14   29 1     
@<TRIPOS>SUBSTRUCTURE
      1 ****           1
@<TRIPOS>COMMENT
> <Gold.Version>
2022.2.0

> <Gold.Id.Protein>
3pbl|protein|mol2

> <Gold.Protein.RotatedTorsions>
[ 1303 1298 1297 1294 ] final  -12.73 input  179.99 | X-H torsion
[ 2461 2456 2455 2452 ] final -112.32 input   30.03 | X-H torsion
[ 2515 2510 2509 2506 ] final -113.58 input  -89.99 | X-H torsion
[ 3721 3712 3711 3710 ] final   85.42 input -179.91 | X-H torsion
[ 3841 3832 3831 3830 ] final -106.93 input -179.91 | X-H torsion
[ 3767 3762 3761 3758 ] final   95.37 input  -89.99 | X-H torsion
[ 2472 2467 2466 2463 ] final   79.45 input  -89.97 | X-H torsion

> <Gold.Protein.ActiveResidues>
 VAL82   VAL86   LEU89   PHE106  VAL107  ASP110  VAL111  MET112  CYS114  THR115 
 CYS181  SER182  ILE183  PHE188  VAL189  ILE190  SER192  SER193  SER196  TRP342 
 PHE345  PHE346  HIS349  VAL350  TYR365  THR369  GLY372  TYR373 

> <Gold.Protein.RotatedAtoms>
    3.3394   -9.6957    3.9463 H   0  0  0  0  0  0  0  0  0  0  0  0  # atno 1303 bound_to 1298
    0.4982   -9.1183    7.9701 H   0  0  0  0  0  0  0  0  0  0  0  0  # atno 2461 bound_to 2456
   -4.9504   -4.8759    7.7213 H   0  0  0  0  0  0  0  0  0  0  0  0  # atno 2472 bound_to 2467
    2.7451   -9.1637    4.9083 H   0  0  0  0  0  0  0  0  0  0  0  0  # atno 2515 bound_to 2510
   -2.7509  -17.6679   13.1344 H   0  0  0  0  0  0  0  0  0  0  0  0  # atno 3721 bound_to 3712
   -4.1376  -23.3177   10.5693 H   0  0  0  0  0  0  0  0  0  0  0  0  # atno 3767 bound_to 3762
    2.0514  -19.5799    8.5517 H   0  0  0  0  0  0  0  0  0  0  0  0  # atno 3841 bound_to 3832
    4.4032   -8.4865    4.2156 LP  0  0  0  0  0  0  0  0  0  0  0  0  # atno 4297 bound_to 1298
    4.6199   -9.9389    4.9299 LP  0  0  0  0  0  0  0  0  0  0  0  0  # atno 4298 bound_to 1298
    2.0771   -8.7369    8.1402 LP  0  0  0  0  0  0  0  0  0  0  0  0  # atno 4299 bound_to 2456
    1.1622   -7.9531    7.0379 LP  0  0  0  0  0  0  0  0  0  0  0  0  # atno 4300 bound_to 2456
    2.0548   -8.2689    6.0867 LP  0  0  0  0  0  0  0  0  0  0  0  0  # atno 4301 bound_to 2510
    2.4966   -7.5662    4.6804 LP  0  0  0  0  0  0  0  0  0  0  0  0  # atno 4302 bound_to 2510
   -2.7927  -17.7729   14.7359 LP  0  0  0  0  0  0  0  0  0  0  0  0  # atno 4306 bound_to 3712
   -3.5590  -16.5554   13.9633 LP  0  0  0  0  0  0  0  0  0  0  0  0  # atno 4307 bound_to 3712
    3.1167  -20.7762    8.6515 LP  0  0  0  0  0  0  0  0  0  0  0  0  # atno 4314 bound_to 3832
    1.7429  -20.8114    9.5336 LP  0  0  0  0  0  0  0  0  0  0  0  0  # atno 4315 bound_to 3832
   -5.4825  -22.4152   10.3604 LP  0  0  0  0  0  0  0  0  0  0  0  0  # atno 4318 bound_to 3762
   -4.5070  -22.1424   11.6412 LP  0  0  0  0  0  0  0  0  0  0  0  0  # atno 4319 bound_to 3762
   -3.6401   -5.0748    8.6752 LP  0  0  0  0  0  0  0  0  0  0  0  0  # atno 4320 bound_to 2467
   -5.1265   -5.4428    9.2425 LP  0  0  0  0  0  0  0  0  0  0  0  0  # atno 4321 bound_to 2467

> <Gold.Score>
     Score     S(PLP)   S(hbond)     S(cho)   S(metal)  DE(clash)   DE(tors)     intcor
     40.05     -38.12       1.00       0.00       0.00       0.00       0.80       0.53

> <Gold.PLP.Fitness>
40.0540

> <Gold.PLP.PLP>
-38.1232

> <Gold.PLP.part.hbond>
-2.0000

> <Gold.PLP.part.metal>
0.0000

> <Gold.PLP.part.buried>
-1.7213

> <Gold.PLP.part.nonpolar>
-35.9558

> <Gold.PLP.part.repulsive>
0.1270

> <Gold.PLP.ligand.clash>
0.0011

> <Gold.PLP.ligand.torsion>
0.7981

> <Gold.PLP.Chemscore.Hbond>
1.0000

> <Gold.PLP.Chemscore.CHOScore>
0.0000

> <Gold.PLP.Chemscore.Metal>
0.0000

> <Gold.Chemscore.Hbonds>
donor molecule, donor type, donor heavy atom, donor atom, acceptor molecule, acceptor atom, score
      P1  H  2456  2461       L1     9  1.00

> <Gold.PLP.Chemscore.Internal.Correction>
0.5279

