#       Name:                EN300-266260_i002
#       Creating user name   fsindt
#       Creation time:       Wed Mar  1 08:11:36 2023


#       File generated by GOLD software.
#

@<TRIPOS>MOLECULE
EN300-266260_i002|acide_1|mol2|7357|dock14
    29    28     1
SMALL
USER_CHARGES


@<TRIPOS>ATOM
      1 C1           2.8904 -17.0790  13.1971 C.3            1 <1>                0.0000
      2 O2           2.3083 -18.2282  12.5785 O.3            1 <1>                0.0000
      3 C3           1.0595 -18.6252  13.1483 C.3            1 <1>                0.0000
      4 C4           1.2316 -18.8424  14.6530 C.3            1 <1>                0.0000
      5 C5           0.0334 -17.5474  12.9106 C.2            1 <1>                0.0000
      6 O6          -0.9797 -17.7986  12.2804 O.co2          1 <1>                0.0000
      7 O7           0.2162 -16.4243  13.3484 O.co2          1 <1>               -1.0000
      8 C8           0.5989 -19.9079  12.5051 C.2            1 <1>                0.0000
      9 O9           1.2440 -20.4003  11.6100 O.2            1 <1>                0.0000
     10 O10         -0.5279 -20.5032  12.9266 O.3            1 <1>                0.0000
     11 C11         -0.5926 -21.9490  12.8106 C.3            1 <1>                0.0000
     12 C12         -1.8186 -22.4669  13.5655 C.3            1 <1>                0.0000
     13 C13         -0.7006 -22.3381  11.3348 C.3            1 <1>                0.0000
     14 C14          0.6731 -22.5659  13.4095 C.3            1 <1>                0.0000
     15 H15          2.2104 -16.2323  13.1035 H              1 <1>                0.0000
     16 H16          3.0696 -17.2861  14.2522 H              1 <1>                0.0000
     17 H17          3.8351 -16.8422  12.7078 H              1 <1>                0.0000
     18 H18          1.5647 -17.9147  15.1183 H              1 <1>                0.0000
     19 H19          0.2790 -19.1453  15.0877 H              1 <1>                0.0000
     20 H20          1.9738 -19.6220  14.8250 H              1 <1>                0.0000
     21 H21         -2.7203 -22.0275  13.1390 H              1 <1>                0.0000
     22 H22         -1.8672 -23.5523  13.4785 H              1 <1>                0.0000
     23 H23         -1.7417 -22.1898  14.6169 H              1 <1>                0.0000
     24 H24          0.1728 -21.9692  10.7971 H              1 <1>                0.0000
     25 H25         -0.7492 -23.4234  11.2478 H              1 <1>                0.0000
     26 H26         -1.6023 -21.8986  10.9083 H              1 <1>                0.0000
     27 H27          0.7499 -22.2888  14.4608 H              1 <1>                0.0000
     28 H28          0.6244 -23.6513  13.3224 H              1 <1>                0.0000
     29 H29          1.5464 -22.1971  12.8716 H              1 <1>                0.0000
@<TRIPOS>BOND
    1    1    2 1     
    2    1   15 1     
    3    1   16 1     
    4    1   17 1     
    5    2    3 1     
    6    3    4 1     
    7    3    5 1     
    8    3    8 1     
    9    4   18 1     
   10    4   19 1     
   11    4   20 1     
   12    5    6 ar    
   13    5    7 ar    
   14    8    9 2     
   15    8   10 1     
   16   10   11 1     
   17   11   12 1     
   18   11   13 1     
   19   11   14 1     
   20   12   21 1     
   21   12   22 1     
   22   12   23 1     
   23   13   24 1     
   24   13   25 1     
   25   13   26 1     
   26   14   27 1     
   27   14   28 1     
   28   14   29 1     
@<TRIPOS>SUBSTRUCTURE
      1 ****           1
@<TRIPOS>COMMENT
> <Gold.Version>
2022.2.0

> <Gold.Id.Protein>
3pbl|protein|mol2

> <Gold.Protein.RotatedTorsions>
[ 1303 1298 1297 1294 ] final  -49.81 input  179.99 | X-H torsion
[ 2461 2456 2455 2452 ] final -140.57 input   30.03 | X-H torsion
[ 2515 2510 2509 2506 ] final   14.75 input  -89.99 | X-H torsion
[ 3721 3712 3711 3710 ] final   70.23 input -179.91 | X-H torsion
[ 3841 3832 3831 3830 ] final    8.16 input -179.91 | X-H torsion
[ 3767 3762 3761 3758 ] final   86.49 input  -89.99 | X-H torsion
[ 2472 2467 2466 2463 ] final  -56.67 input  -89.97 | X-H torsion

> <Gold.Protein.ActiveResidues>
 VAL82   VAL86   LEU89   PHE106  VAL107  ASP110  VAL111  MET112  CYS114  THR115 
 CYS181  SER182  ILE183  PHE188  VAL189  ILE190  SER192  SER193  SER196  TRP342 
 PHE345  PHE346  HIS349  VAL350  TYR365  THR369  GLY372  TYR373 

> <Gold.Protein.RotatedAtoms>
    3.4219   -9.1251    3.7822 H   0  0  0  0  0  0  0  0  0  0  0  0  # atno 1303 bound_to 1298
    0.8374   -9.2711    8.2412 H   0  0  0  0  0  0  0  0  0  0  0  0  # atno 2461 bound_to 2456
   -3.7049   -5.1687    8.9138 H   0  0  0  0  0  0  0  0  0  0  0  0  # atno 2472 bound_to 2467
    2.4384   -7.4998    4.7849 H   0  0  0  0  0  0  0  0  0  0  0  0  # atno 2515 bound_to 2510
   -2.6498  -17.8236   13.2683 H   0  0  0  0  0  0  0  0  0  0  0  0  # atno 3721 bound_to 3712
   -4.2314  -23.3337   10.4587 H   0  0  0  0  0  0  0  0  0  0  0  0  # atno 3767 bound_to 3762
    1.8132  -20.5772    9.5922 H   0  0  0  0  0  0  0  0  0  0  0  0  # atno 3841 bound_to 3832
    4.7918   -8.7506    4.5881 LP  0  0  0  0  0  0  0  0  0  0  0  0  # atno 4297 bound_to 1298
    4.1487  -10.2457    4.7215 LP  0  0  0  0  0  0  0  0  0  0  0  0  # atno 4298 bound_to 1298
    2.1595   -8.4025    7.8349 LP  0  0  0  0  0  0  0  0  0  0  0  0  # atno 4299 bound_to 2456
    0.7407   -8.1347    7.0722 LP  0  0  0  0  0  0  0  0  0  0  0  0  # atno 4300 bound_to 2456
    2.7787   -9.0966    4.7939 LP  0  0  0  0  0  0  0  0  0  0  0  0  # atno 4301 bound_to 2510
    2.0796   -8.4032    6.0967 LP  0  0  0  0  0  0  0  0  0  0  0  0  # atno 4302 bound_to 2510
   -2.9023  -17.5665   14.8329 LP  0  0  0  0  0  0  0  0  0  0  0  0  # atno 4306 bound_to 3712
   -3.5661  -16.5821   13.7118 LP  0  0  0  0  0  0  0  0  0  0  0  0  # atno 4307 bound_to 3712
    2.0235  -19.6370    8.3085 LP  0  0  0  0  0  0  0  0  0  0  0  0  # atno 4314 bound_to 3832
    3.1114  -20.7985    8.6747 LP  0  0  0  0  0  0  0  0  0  0  0  0  # atno 4315 bound_to 3832
   -5.5061  -22.3130   10.4618 LP  0  0  0  0  0  0  0  0  0  0  0  0  # atno 4318 bound_to 3762
   -4.3897  -22.2286   11.6505 LP  0  0  0  0  0  0  0  0  0  0  0  0  # atno 4319 bound_to 3762
   -5.3147   -5.3985    9.0623 LP  0  0  0  0  0  0  0  0  0  0  0  0  # atno 4320 bound_to 2467
   -4.6972   -4.8263    7.6631 LP  0  0  0  0  0  0  0  0  0  0  0  0  # atno 4321 bound_to 2467

> <Gold.Score>
     Score     S(PLP)   S(hbond)     S(cho)   S(metal)  DE(clash)   DE(tors)     intcor
     33.41     -27.92       1.99       0.00       0.00       0.00       0.50       0.53

> <Gold.PLP.Fitness>
33.4130

> <Gold.PLP.PLP>
-27.9175

> <Gold.PLP.part.hbond>
-2.0000

> <Gold.PLP.part.metal>
0.0000

> <Gold.PLP.part.buried>
-5.6915

> <Gold.PLP.part.nonpolar>
-21.5583

> <Gold.PLP.part.repulsive>
0.7903

> <Gold.PLP.ligand.clash>
0.0000

> <Gold.PLP.ligand.torsion>
0.5031

> <Gold.PLP.Chemscore.Hbond>
1.9913

> <Gold.PLP.Chemscore.CHOScore>
0.0000

> <Gold.PLP.Chemscore.Metal>
0.0000

> <Gold.Chemscore.Hbonds>
donor molecule, donor type, donor heavy atom, donor atom, acceptor molecule, acceptor atom, score
      P1  H  3712  3721       L1     6  1.00
      P1  H  3832  3841       L1     9  0.99

> <Gold.PLP.Chemscore.Internal.Correction>
0.5279

