#       Name:                EN300-266260_i002
#       Creating user name   fsindt
#       Creation time:       Wed Mar  1 08:11:30 2023


#       File generated by GOLD software.
#

@<TRIPOS>MOLECULE
EN300-266260_i002|acide_1|mol2|7357|dock8
    29    28     1
SMALL
USER_CHARGES


@<TRIPOS>ATOM
      1 C1          -0.0543 -14.3590  11.5846 C.3            1 <1>                0.0000
      2 O2          -0.1071 -14.8418  10.2406 O.3            1 <1>                0.0000
      3 C3           0.4829 -13.9605   9.2830 C.3            1 <1>                0.0000
      4 C4           1.9938 -13.8938   9.5143 C.3            1 <1>                0.0000
      5 C5           0.2099 -14.4740   7.8927 C.2            1 <1>                0.0000
      6 O6          -0.3920 -13.7776   7.0930 O.co2          1 <1>                0.0000
      7 O7           0.5908 -15.5855   7.5674 O.co2          1 <1>               -1.0000
      8 C8          -0.1100 -12.5834   9.4353 C.2            1 <1>                0.0000
      9 O9           0.6104 -11.6346   9.6372 O.2            1 <1>                0.0000
     10 O10         -1.4382 -12.4109   9.3468 O.3            1 <1>                0.0000
     11 C11         -2.0074 -11.2909  10.0747 C.3            1 <1>                0.0000
     12 C12         -1.4967 -11.3075  11.5170 C.3            1 <1>                0.0000
     13 C13         -1.5920  -9.9811   9.4017 C.3            1 <1>                0.0000
     14 C14         -3.5332 -11.4039  10.0728 C.3            1 <1>                0.0000
     15 H15          0.9853 -14.2145  11.8782 H              1 <1>                0.0000
     16 H16         -0.5859 -13.4097  11.6508 H              1 <1>                0.0000
     17 H17         -0.5223 -15.0845  12.2500 H              1 <1>                0.0000
     18 H18          2.4226 -14.8898   9.4041 H              1 <1>                0.0000
     19 H19          2.4439 -13.2215   8.7837 H              1 <1>                0.0000
     20 H20          2.1913 -13.5224  10.5199 H              1 <1>                0.0000
     21 H21         -0.4097 -11.2271  11.5184 H              1 <1>                0.0000
     22 H22         -1.9240 -10.4668  12.0634 H              1 <1>                0.0000
     23 H23         -1.7926 -12.2406  11.9965 H              1 <1>                0.0000
     24 H24         -1.9559  -9.9693   8.3744 H              1 <1>                0.0000
     25 H25         -2.0192  -9.1404   9.9481 H              1 <1>                0.0000
     26 H26         -0.5050  -9.9008   9.4032 H              1 <1>                0.0000
     27 H27         -3.8291 -12.3369  10.5523 H              1 <1>                0.0000
     28 H28         -3.9605 -10.5631  10.6192 H              1 <1>                0.0000
     29 H29         -3.8970 -11.3920   9.0453 H              1 <1>                0.0000
@<TRIPOS>BOND
    1    1    2 1     
    2    1   15 1     
    3    1   16 1     
    4    1   17 1     
    5    2    3 1     
    6    3    4 1     
    7    3    5 1     
    8    3    8 1     
    9    4   18 1     
   10    4   19 1     
   11    4   20 1     
   12    5    6 ar    
   13    5    7 ar    
   14    8    9 2     
   15    8   10 1     
   16   10   11 1     
   17   11   12 1     
   18   11   13 1     
   19   11   14 1     
   20   12   21 1     
   21   12   22 1     
   22   12   23 1     
   23   13   24 1     
   24   13   25 1     
   25   13   26 1     
   26   14   27 1     
   27   14   28 1     
   28   14   29 1     
@<TRIPOS>SUBSTRUCTURE
      1 ****           1
@<TRIPOS>COMMENT
> <Gold.Version>
2022.2.0

> <Gold.Id.Protein>
3pbl|protein|mol2

> <Gold.Protein.RotatedTorsions>
[ 1303 1298 1297 1294 ] final  129.09 input  179.99 | X-H torsion
[ 2461 2456 2455 2452 ] final -150.73 input   30.03 | X-H torsion
[ 2515 2510 2509 2506 ] final  -89.87 input  -89.99 | X-H torsion
[ 3721 3712 3711 3710 ] final  -31.22 input -179.91 | X-H torsion
[ 3841 3832 3831 3830 ] final -100.25 input -179.91 | X-H torsion
[ 3767 3762 3761 3758 ] final   18.86 input  -89.99 | X-H torsion
[ 2472 2467 2466 2463 ] final -128.70 input  -89.97 | X-H torsion

> <Gold.Protein.ActiveResidues>
 VAL82   VAL86   LEU89   PHE106  VAL107  ASP110  VAL111  MET112  CYS114  THR115 
 CYS181  SER182  ILE183  PHE188  VAL189  ILE190  SER192  SER193  SER196  TRP342 
 PHE345  PHE346  HIS349  VAL350  TYR365  THR369  GLY372  TYR373 

> <Gold.Protein.RotatedAtoms>
    4.8119   -9.6388    4.9474 H   0  0  0  0  0  0  0  0  0  0  0  0  # atno 1303 bound_to 1298
    0.9885   -9.2879    8.3107 H   0  0  0  0  0  0  0  0  0  0  0  0  # atno 2461 bound_to 2456
   -4.6438   -5.4573    9.4281 H   0  0  0  0  0  0  0  0  0  0  0  0  # atno 2472 bound_to 2467
    2.8212   -8.9305    4.6087 H   0  0  0  0  0  0  0  0  0  0  0  0  # atno 2515 bound_to 2510
   -2.6098  -17.6864   14.6017 H   0  0  0  0  0  0  0  0  0  0  0  0  # atno 3721 bound_to 3712
   -5.1234  -22.9395   10.0705 H   0  0  0  0  0  0  0  0  0  0  0  0  # atno 3767 bound_to 3762
    1.9688  -19.5867    8.6090 H   0  0  0  0  0  0  0  0  0  0  0  0  # atno 3841 bound_to 3832
    3.4419   -9.9845    4.1289 LP  0  0  0  0  0  0  0  0  0  0  0  0  # atno 4297 bound_to 1298
    4.1081   -8.4979    4.0150 LP  0  0  0  0  0  0  0  0  0  0  0  0  # atno 4298 bound_to 1298
    2.1353   -8.2899    7.7140 LP  0  0  0  0  0  0  0  0  0  0  0  0  # atno 4299 bound_to 2456
    0.6139   -8.2306    7.1236 LP  0  0  0  0  0  0  0  0  0  0  0  0  # atno 4300 bound_to 2456
    2.1444   -8.6452    6.0669 LP  0  0  0  0  0  0  0  0  0  0  0  0  # atno 4301 bound_to 2510
    2.3309   -7.4231    5.0000 LP  0  0  0  0  0  0  0  0  0  0  0  0  # atno 4302 bound_to 2510
   -3.5584  -16.5555   13.9699 LP  0  0  0  0  0  0  0  0  0  0  0  0  # atno 4306 bound_to 3712
   -2.9562  -17.7515   13.0353 LP  0  0  0  0  0  0  0  0  0  0  0  0  # atno 4307 bound_to 3712
    3.1273  -20.6969    8.5739 LP  0  0  0  0  0  0  0  0  0  0  0  0  # atno 4314 bound_to 3832
    1.8278  -20.8828    9.5451 LP  0  0  0  0  0  0  0  0  0  0  0  0  # atno 4315 bound_to 3832
   -5.0968  -21.9161   11.3428 LP  0  0  0  0  0  0  0  0  0  0  0  0  # atno 4318 bound_to 3762
   -3.9073  -23.0195   11.1575 LP  0  0  0  0  0  0  0  0  0  0  0  0  # atno 4319 bound_to 3762
   -5.3464   -5.0259    8.0186 LP  0  0  0  0  0  0  0  0  0  0  0  0  # atno 4320 bound_to 2467
   -3.7268   -4.9104    8.1926 LP  0  0  0  0  0  0  0  0  0  0  0  0  # atno 4321 bound_to 2467

> <Gold.Score>
     Score     S(PLP)   S(hbond)     S(cho)   S(metal)  DE(clash)   DE(tors)     intcor
     35.32     -35.86       0.00       0.00       0.00       0.00       0.54       0.53

> <Gold.PLP.Fitness>
35.3204

> <Gold.PLP.PLP>
-35.8639

> <Gold.PLP.part.hbond>
0.0000

> <Gold.PLP.part.metal>
0.0000

> <Gold.PLP.part.buried>
-2.6070

> <Gold.PLP.part.nonpolar>
-34.2524

> <Gold.PLP.part.repulsive>
0.2346

> <Gold.PLP.ligand.clash>
0.0000

> <Gold.PLP.ligand.torsion>
0.5357

> <Gold.PLP.Chemscore.Hbond>
0.0000

> <Gold.PLP.Chemscore.CHOScore>
0.0000

> <Gold.PLP.Chemscore.Metal>
0.0000

> <Gold.PLP.Chemscore.Internal.Correction>
0.5279

