#       Name:                EN300-266260_i002
#       Creating user name   fsindt
#       Creation time:       Wed Mar  1 08:11:29 2023


#       File generated by GOLD software.
#

@<TRIPOS>MOLECULE
EN300-266260_i002|acide_1|mol2|7357|dock7
    29    28     1
SMALL
USER_CHARGES


@<TRIPOS>ATOM
      1 C1          -4.0152 -11.0795   9.9635 C.3            1 <1>                0.0000
      2 O2          -2.8813 -11.6371   9.2960 O.3            1 <1>                0.0000
      3 C3          -1.6258 -11.1862   9.8080 C.3            1 <1>                0.0000
      4 C4          -1.6038  -9.6565   9.8304 C.3            1 <1>                0.0000
      5 C5          -1.4359 -11.7118  11.2075 C.2            1 <1>                0.0000
      6 O6          -1.3016 -10.9346  12.1375 O.co2          1 <1>                0.0000
      7 O7          -1.4165 -12.9139  11.4100 O.co2          1 <1>               -1.0000
      8 C8          -0.5130 -11.6917   8.9263 C.2            1 <1>                0.0000
      9 O9           0.5646 -11.1453   8.9406 O.2            1 <1>                0.0000
     10 O10         -0.7190 -12.7487   8.1250 O.3            1 <1>                0.0000
     11 C11          0.4582 -13.4229   7.6075 C.3            1 <1>                0.0000
     12 C12          1.3959 -13.7723   8.7649 C.3            1 <1>                0.0000
     13 C13          0.0363 -14.7055   6.8878 C.3            1 <1>                0.0000
     14 C14          1.1829 -12.5012   6.6244 C.3            1 <1>                0.0000
     15 H15         -3.9834 -11.3477  11.0195 H              1 <1>                0.0000
     16 H16         -3.9982  -9.9942   9.8635 H              1 <1>                0.0000
     17 H17         -4.9289 -11.4712   9.5165 H              1 <1>                0.0000
     18 H18         -2.4086  -9.2909  10.4681 H              1 <1>                0.0000
     19 H19         -0.6460  -9.3126  10.2209 H              1 <1>                0.0000
     20 H20         -1.7412  -9.2763   8.8181 H              1 <1>                0.0000
     21 H21          0.8796 -14.4289   9.4652 H              1 <1>                0.0000
     22 H22          2.2796 -14.2785   8.3764 H              1 <1>                0.0000
     23 H23          1.6965 -12.8586   9.2776 H              1 <1>                0.0000
     24 H24         -0.6317 -14.4565   6.0633 H              1 <1>                0.0000
     25 H25          0.9200 -15.2116   6.4994 H              1 <1>                0.0000
     26 H26         -0.4800 -15.3620   7.5882 H              1 <1>                0.0000
     27 H27          1.4835 -11.5876   7.1371 H              1 <1>                0.0000
     28 H28          2.0667 -13.0074   6.2360 H              1 <1>                0.0000
     29 H29          0.5149 -12.2524   5.7999 H              1 <1>                0.0000
@<TRIPOS>BOND
    1    1    2 1     
    2    1   15 1     
    3    1   16 1     
    4    1   17 1     
    5    2    3 1     
    6    3    4 1     
    7    3    5 1     
    8    3    8 1     
    9    4   18 1     
   10    4   19 1     
   11    4   20 1     
   12    5    6 ar    
   13    5    7 ar    
   14    8    9 2     
   15    8   10 1     
   16   10   11 1     
   17   11   12 1     
   18   11   13 1     
   19   11   14 1     
   20   12   21 1     
   21   12   22 1     
   22   12   23 1     
   23   13   24 1     
   24   13   25 1     
   25   13   26 1     
   26   14   27 1     
   27   14   28 1     
   28   14   29 1     
@<TRIPOS>SUBSTRUCTURE
      1 ****           1
@<TRIPOS>COMMENT
> <Gold.Version>
2022.2.0

> <Gold.Id.Protein>
3pbl|protein|mol2

> <Gold.Protein.RotatedTorsions>
[ 1303 1298 1297 1294 ] final  -60.33 input  179.99 | X-H torsion
[ 2461 2456 2455 2452 ] final -165.72 input   30.03 | X-H torsion
[ 2515 2510 2509 2506 ] final  133.18 input  -89.99 | X-H torsion
[ 3721 3712 3711 3710 ] final -124.33 input -179.91 | X-H torsion
[ 3841 3832 3831 3830 ] final   62.88 input -179.91 | X-H torsion
[ 3767 3762 3761 3758 ] final -149.58 input  -89.99 | X-H torsion
[ 2472 2467 2466 2463 ] final  -50.38 input  -89.97 | X-H torsion

> <Gold.Protein.ActiveResidues>
 VAL82   VAL86   LEU89   PHE106  VAL107  ASP110  VAL111  MET112  CYS114  THR115 
 CYS181  SER182  ILE183  PHE188  VAL189  ILE190  SER192  SER193  SER196  TRP342 
 PHE345  PHE346  HIS349  VAL350  TYR365  THR369  GLY372  TYR373 

> <Gold.Protein.RotatedAtoms>
    3.5015   -8.9716    3.7779 H   0  0  0  0  0  0  0  0  0  0  0  0  # atno 1303 bound_to 1298
    1.2245   -9.2735    8.3787 H   0  0  0  0  0  0  0  0  0  0  0  0  # atno 2461 bound_to 2456
   -3.6710   -5.1322    8.8230 H   0  0  0  0  0  0  0  0  0  0  0  0  # atno 2472 bound_to 2467
    2.0746   -8.3778    6.0959 H   0  0  0  0  0  0  0  0  0  0  0  0  # atno 2515 bound_to 2510
   -3.2393  -16.6267   14.3511 H   0  0  0  0  0  0  0  0  0  0  0  0  # atno 3721 bound_to 3712
   -4.4405  -22.1885   11.6485 H   0  0  0  0  0  0  0  0  0  0  0  0  # atno 3767 bound_to 3762
    2.5096  -20.9494    9.4942 H   0  0  0  0  0  0  0  0  0  0  0  0  # atno 3841 bound_to 3832
    4.8571   -8.8793    4.6835 LP  0  0  0  0  0  0  0  0  0  0  0  0  # atno 4297 bound_to 1298
    4.0038  -10.2706    4.6304 LP  0  0  0  0  0  0  0  0  0  0  0  0  # atno 4298 bound_to 1298
    2.0491   -8.1427    7.5368 LP  0  0  0  0  0  0  0  0  0  0  0  0  # atno 4299 bound_to 2456
    0.4642   -8.3923    7.2329 LP  0  0  0  0  0  0  0  0  0  0  0  0  # atno 4300 bound_to 2456
    2.4493   -7.5108    4.7641 LP  0  0  0  0  0  0  0  0  0  0  0  0  # atno 4301 bound_to 2510
    2.7729   -9.1106    4.8148 LP  0  0  0  0  0  0  0  0  0  0  0  0  # atno 4302 bound_to 2510
   -3.1548  -17.4172   12.9562 LP  0  0  0  0  0  0  0  0  0  0  0  0  # atno 4306 bound_to 3712
   -2.6330  -18.1133   14.3382 LP  0  0  0  0  0  0  0  0  0  0  0  0  # atno 4307 bound_to 3712
    1.4397  -19.9052    8.9100 LP  0  0  0  0  0  0  0  0  0  0  0  0  # atno 4314 bound_to 3832
    2.8906  -20.1004    8.1864 LP  0  0  0  0  0  0  0  0  0  0  0  0  # atno 4315 bound_to 3832
   -4.1888  -23.3290   10.5072 LP  0  0  0  0  0  0  0  0  0  0  0  0  # atno 4318 bound_to 3762
   -5.4980  -22.3574   10.4157 LP  0  0  0  0  0  0  0  0  0  0  0  0  # atno 4319 bound_to 3762
   -5.2474   -5.4185    9.1384 LP  0  0  0  0  0  0  0  0  0  0  0  0  # atno 4320 bound_to 2467
   -4.7984   -4.8427    7.6778 LP  0  0  0  0  0  0  0  0  0  0  0  0  # atno 4321 bound_to 2467

> <Gold.Score>
     Score     S(PLP)   S(hbond)     S(cho)   S(metal)  DE(clash)   DE(tors)     intcor
     45.97     -44.85       1.00       0.00       0.00       0.00       1.20       0.53

> <Gold.PLP.Fitness>
45.9745

> <Gold.PLP.PLP>
-44.8511

> <Gold.PLP.part.hbond>
-1.0000

> <Gold.PLP.part.metal>
0.0000

> <Gold.PLP.part.buried>
-3.1174

> <Gold.PLP.part.nonpolar>
-41.6945

> <Gold.PLP.part.repulsive>
0.0992

> <Gold.PLP.ligand.clash>
0.0000

> <Gold.PLP.ligand.torsion>
1.2023

> <Gold.PLP.Chemscore.Hbond>
1.0000

> <Gold.PLP.Chemscore.CHOScore>
0.0000

> <Gold.PLP.Chemscore.Metal>
0.0000

> <Gold.Chemscore.Hbonds>
donor molecule, donor type, donor heavy atom, donor atom, acceptor molecule, acceptor atom, score
      P1  H  2456  2461       L1     9  1.00

> <Gold.PLP.Chemscore.Internal.Correction>
0.5279

