#       Name:                EN300-266260_i002
#       Creating user name   fsindt
#       Creation time:       Wed Mar  1 08:11:39 2023


#       File generated by GOLD software.
#

@<TRIPOS>MOLECULE
EN300-266260_i002|acide_1|mol2|7357|dock16
    29    28     1
SMALL
USER_CHARGES


@<TRIPOS>ATOM
      1 C1           2.0032 -15.9000  12.8074 C.3            1 <1>                0.0000
      2 O2           1.7121 -17.2953  12.7042 O.3            1 <1>                0.0000
      3 C3           1.3709 -17.9114  13.9475 C.3            1 <1>                0.0000
      4 C4           2.4878 -17.6629  14.9632 C.3            1 <1>                0.0000
      5 C5           0.0830 -17.3228  14.4632 C.2            1 <1>                0.0000
      6 O6           0.0098 -16.1286  14.6986 O.co2          1 <1>                0.0000
      7 O7          -0.8856 -18.0405  14.6451 O.co2          1 <1>               -1.0000
      8 C8           1.1989 -19.3945  13.7428 C.2            1 <1>                0.0000
      9 O9           1.3668 -19.8766  12.6477 O.2            1 <1>                0.0000
     10 O10          0.8592 -20.1798  14.7770 O.3            1 <1>                0.0000
     11 C11          0.3902 -21.5175  14.4626 C.3            1 <1>                0.0000
     12 C12          1.5392 -22.3342  13.8677 C.3            1 <1>                0.0000
     13 C13         -0.1099 -22.1959  15.7396 C.3            1 <1>                0.0000
     14 C14         -0.7529 -21.4321  13.4491 C.3            1 <1>                0.0000
     15 H15          1.1317 -15.3749  13.1982 H              1 <1>                0.0000
     16 H16          2.8476 -15.7540  13.4811 H              1 <1>                0.0000
     17 H17          2.2526 -15.5070  11.8218 H              1 <1>                0.0000
     18 H18          2.6122 -16.5902  15.1114 H              1 <1>                0.0000
     19 H19          2.2276 -18.1329  15.9117 H              1 <1>                0.0000
     20 H20          3.4194 -18.0886  14.5903 H              1 <1>                0.0000
     21 H21          2.3535 -22.3951  14.5897 H              1 <1>                0.0000
     22 H22          1.1871 -23.3384  13.6318 H              1 <1>                0.0000
     23 H23          1.8955 -21.8510  12.9580 H              1 <1>                0.0000
     24 H24         -0.9285 -21.6141  16.1633 H              1 <1>                0.0000
     25 H25         -0.4620 -23.2000  15.5037 H              1 <1>                0.0000
     26 H26          0.7045 -22.2566  16.4615 H              1 <1>                0.0000
     27 H27         -0.3966 -20.9490  12.5395 H              1 <1>                0.0000
     28 H28         -1.1050 -22.4363  13.2132 H              1 <1>                0.0000
     29 H29         -1.5715 -20.8504  13.8730 H              1 <1>                0.0000
@<TRIPOS>BOND
    1    1    2 1     
    2    1   15 1     
    3    1   16 1     
    4    1   17 1     
    5    2    3 1     
    6    3    4 1     
    7    3    5 1     
    8    3    8 1     
    9    4   18 1     
   10    4   19 1     
   11    4   20 1     
   12    5    6 ar    
   13    5    7 ar    
   14    8    9 2     
   15    8   10 1     
   16   10   11 1     
   17   11   12 1     
   18   11   13 1     
   19   11   14 1     
   20   12   21 1     
   21   12   22 1     
   22   12   23 1     
   23   13   24 1     
   24   13   25 1     
   25   13   26 1     
   26   14   27 1     
   27   14   28 1     
   28   14   29 1     
@<TRIPOS>SUBSTRUCTURE
      1 ****           1
@<TRIPOS>COMMENT
> <Gold.Version>
2022.2.0

> <Gold.Id.Protein>
3pbl|protein|mol2

> <Gold.Protein.RotatedTorsions>
[ 1303 1298 1297 1294 ] final -158.25 input  179.99 | X-H torsion
[ 2461 2456 2455 2452 ] final    5.77 input   30.03 | X-H torsion
[ 2515 2510 2509 2506 ] final  -95.04 input  -89.99 | X-H torsion
[ 3721 3712 3711 3710 ] final    3.16 input -179.91 | X-H torsion
[ 3841 3832 3831 3830 ] final   70.41 input -179.91 | X-H torsion
[ 3767 3762 3761 3758 ] final  152.72 input  -89.99 | X-H torsion
[ 2472 2467 2466 2463 ] final  -15.59 input  -89.97 | X-H torsion

> <Gold.Protein.ActiveResidues>
 VAL82   VAL86   LEU89   PHE106  VAL107  ASP110  VAL111  MET112  CYS114  THR115 
 CYS181  SER182  ILE183  PHE188  VAL189  ILE190  SER192  SER193  SER196  TRP342 
 PHE345  PHE346  HIS349  VAL350  TYR365  THR369  GLY372  TYR373 

> <Gold.Protein.RotatedAtoms>
    4.6937   -8.6336    4.4752 H   0  0  0  0  0  0  0  0  0  0  0  0  # atno 1303 bound_to 1298
    1.1317   -7.9607    7.0348 H   0  0  0  0  0  0  0  0  0  0  0  0  # atno 2461 bound_to 2456
   -3.6842   -4.9425    8.2924 H   0  0  0  0  0  0  0  0  0  0  0  0  # atno 2472 bound_to 2467
    2.8099   -8.9916    4.6667 H   0  0  0  0  0  0  0  0  0  0  0  0  # atno 2515 bound_to 2510
   -2.4809  -17.9740   14.1982 H   0  0  0  0  0  0  0  0  0  0  0  0  # atno 3721 bound_to 3712
   -3.9264  -22.8660   11.3244 H   0  0  0  0  0  0  0  0  0  0  0  0  # atno 3767 bound_to 3762
    2.6090  -20.9570    9.4395 H   0  0  0  0  0  0  0  0  0  0  0  0  # atno 3841 bound_to 3832
    4.3065  -10.1848    4.8074 LP  0  0  0  0  0  0  0  0  0  0  0  0  # atno 4297 bound_to 1298
    3.3618   -9.3032    3.8089 LP  0  0  0  0  0  0  0  0  0  0  0  0  # atno 4298 bound_to 1298
    0.5166   -9.1330    7.9912 LP  0  0  0  0  0  0  0  0  0  0  0  0  # atno 4299 bound_to 2456
    2.0895   -8.7143    8.1220 LP  0  0  0  0  0  0  0  0  0  0  0  0  # atno 4300 bound_to 2456
    2.1200   -8.5655    6.0838 LP  0  0  0  0  0  0  0  0  0  0  0  0  # atno 4301 bound_to 2510
    2.3666   -7.4417    4.9250 LP  0  0  0  0  0  0  0  0  0  0  0  0  # atno 4302 bound_to 2510
   -3.4234  -16.7092   14.4976 LP  0  0  0  0  0  0  0  0  0  0  0  0  # atno 4306 bound_to 3712
   -3.2400  -17.2658   12.9734 LP  0  0  0  0  0  0  0  0  0  0  0  0  # atno 4307 bound_to 3712
    1.4087  -19.9858    9.0014 LP  0  0  0  0  0  0  0  0  0  0  0  0  # atno 4314 bound_to 3832
    2.8068  -20.0109    8.1582 LP  0  0  0  0  0  0  0  0  0  0  0  0  # atno 4315 bound_to 3832
   -4.9471  -23.0834   10.0683 LP  0  0  0  0  0  0  0  0  0  0  0  0  # atno 4318 bound_to 3762
   -5.2536  -21.9258   11.1785 LP  0  0  0  0  0  0  0  0  0  0  0  0  # atno 4319 bound_to 3762
   -4.7553   -5.4623    9.4099 LP  0  0  0  0  0  0  0  0  0  0  0  0  # atno 4320 bound_to 2467
   -5.2772   -4.9888    7.9368 LP  0  0  0  0  0  0  0  0  0  0  0  0  # atno 4321 bound_to 2467

> <Gold.Score>
     Score     S(PLP)   S(hbond)     S(cho)   S(metal)  DE(clash)   DE(tors)     intcor
     34.29     -28.32       2.00       0.00       0.00       0.08       0.24       0.52

> <Gold.PLP.Fitness>
34.2881

> <Gold.PLP.PLP>
-28.3218

> <Gold.PLP.part.hbond>
-2.0000

> <Gold.PLP.part.metal>
0.0000

> <Gold.PLP.part.buried>
-4.9173

> <Gold.PLP.part.nonpolar>
-22.3741

> <Gold.PLP.part.repulsive>
0.2576

> <Gold.PLP.ligand.clash>
0.0763

> <Gold.PLP.ligand.torsion>
0.2411

> <Gold.PLP.Chemscore.Hbond>
2.0000

> <Gold.PLP.Chemscore.CHOScore>
0.0000

> <Gold.PLP.Chemscore.Metal>
0.0000

> <Gold.Chemscore.Hbonds>
donor molecule, donor type, donor heavy atom, donor atom, acceptor molecule, acceptor atom, score
      P1  H  2305  2313       L1     6  1.00
      P1  H  3712  3721       L1     7  1.00

> <Gold.PLP.Chemscore.Internal.Correction>
0.5249

