#       Name:                EN300-266260_i002
#       Creating user name   fsindt
#       Creation time:       Wed Mar  1 08:11:31 2023


#       File generated by GOLD software.
#

@<TRIPOS>MOLECULE
EN300-266260_i002|acide_1|mol2|7357|dock9
    29    28     1
SMALL
USER_CHARGES


@<TRIPOS>ATOM
      1 C1          -0.5600 -18.2164  11.6776 C.3            1 <1>                0.0000
      2 O2           0.7463 -17.7758  12.0543 O.3            1 <1>                0.0000
      3 C3           0.8430 -17.3368  13.4106 C.3            1 <1>                0.0000
      4 C4           2.2998 -16.9999  13.7350 C.3            1 <1>                0.0000
      5 C5          -0.0112 -16.1104  13.6039 C.2            1 <1>                0.0000
      6 O6          -0.1028 -15.5991  14.7070 O.co2          1 <1>                0.0000
      7 O7          -0.6104 -15.6294  12.6574 O.co2          1 <1>               -1.0000
      8 C8           0.3644 -18.4321  14.3285 C.2            1 <1>                0.0000
      9 O9          -0.6124 -18.2584  15.0181 O.2            1 <1>                0.0000
     10 O10          1.0233 -19.6004  14.3800 O.3            1 <1>                0.0000
     11 C11          0.2433 -20.7837  14.6956 C.3            1 <1>                0.0000
     12 C12          1.0711 -22.0351  14.3959 C.3            1 <1>                0.0000
     13 C13         -0.1345 -20.7651  16.1782 C.3            1 <1>                0.0000
     14 C14         -1.0286 -20.7979  13.8452 C.3            1 <1>                0.0000
     15 H15         -0.8570 -19.0539  12.3087 H              1 <1>                0.0000
     16 H16         -1.2692 -17.3981  11.8022 H              1 <1>                0.0000
     17 H17         -0.5500 -18.5329  10.6347 H              1 <1>                0.0000
     18 H18          2.6460 -16.2077  13.0712 H              1 <1>                0.0000
     19 H19          2.3736 -16.6651  14.7697 H              1 <1>                0.0000
     20 H20          2.9176 -17.8870  13.5952 H              1 <1>                0.0000
     21 H21          1.9772 -22.0250  15.0017 H              1 <1>                0.0000
     22 H22          0.4855 -22.9234  14.6328 H              1 <1>                0.0000
     23 H23          1.3402 -22.0484  13.3397 H              1 <1>                0.0000
     24 H24         -0.7242 -19.8736  16.3916 H              1 <1>                0.0000
     25 H25         -0.7200 -21.6533  16.4151 H              1 <1>                0.0000
     26 H26          0.7717 -20.7550  16.7838 H              1 <1>                0.0000
     27 H27         -0.7595 -20.8112  12.7892 H              1 <1>                0.0000
     28 H28         -1.6142 -21.6862  14.0822 H              1 <1>                0.0000
     29 H29         -1.6184 -19.9065  14.0588 H              1 <1>                0.0000
@<TRIPOS>BOND
    1    1    2 1     
    2    1   15 1     
    3    1   16 1     
    4    1   17 1     
    5    2    3 1     
    6    3    4 1     
    7    3    5 1     
    8    3    8 1     
    9    4   18 1     
   10    4   19 1     
   11    4   20 1     
   12    5    6 ar    
   13    5    7 ar    
   14    8    9 2     
   15    8   10 1     
   16   10   11 1     
   17   11   12 1     
   18   11   13 1     
   19   11   14 1     
   20   12   21 1     
   21   12   22 1     
   22   12   23 1     
   23   13   24 1     
   24   13   25 1     
   25   13   26 1     
   26   14   27 1     
   27   14   28 1     
   28   14   29 1     
@<TRIPOS>SUBSTRUCTURE
      1 ****           1
@<TRIPOS>COMMENT
> <Gold.Version>
2022.2.0

> <Gold.Id.Protein>
3pbl|protein|mol2

> <Gold.Protein.RotatedTorsions>
[ 1303 1298 1297 1294 ] final  163.90 input  179.99 | X-H torsion
[ 2461 2456 2455 2452 ] final  138.54 input   30.03 | X-H torsion
[ 2515 2510 2509 2506 ] final  -60.91 input  -89.99 | X-H torsion
[ 3721 3712 3711 3710 ] final  -16.24 input -179.91 | X-H torsion
[ 3841 3832 3831 3830 ] final  123.00 input -179.91 | X-H torsion
[ 3767 3762 3761 3758 ] final  138.75 input  -89.99 | X-H torsion
[ 2472 2467 2466 2463 ] final  140.82 input  -89.97 | X-H torsion

> <Gold.Protein.ActiveResidues>
 VAL82   VAL86   LEU89   PHE106  VAL107  ASP110  VAL111  MET112  CYS114  THR115 
 CYS181  SER182  ILE183  PHE188  VAL189  ILE190  SER192  SER193  SER196  TRP342 
 PHE345  PHE346  HIS349  VAL350  TYR365  THR369  GLY372  TYR373 

> <Gold.Protein.RotatedAtoms>
    4.9077   -9.1015    4.8055 H   0  0  0  0  0  0  0  0  0  0  0  0  # atno 1303 bound_to 1298
    1.9903   -8.8612    8.2342 H   0  0  0  0  0  0  0  0  0  0  0  0  # atno 2461 bound_to 2456
   -5.5067   -5.1956    8.4384 H   0  0  0  0  0  0  0  0  0  0  0  0  # atno 2472 bound_to 2467
    2.8247   -8.5143    4.3876 H   0  0  0  0  0  0  0  0  0  0  0  0  # atno 2515 bound_to 2510
   -2.5373  -17.8366   14.4495 H   0  0  0  0  0  0  0  0  0  0  0  0  # atno 3721 bound_to 3712
   -3.9068  -23.0201   11.1559 H   0  0  0  0  0  0  0  0  0  0  0  0  # atno 3767 bound_to 3762
    3.0950  -20.6974    8.9061 H   0  0  0  0  0  0  0  0  0  0  0  0  # atno 3841 bound_to 3832
    3.7955  -10.2513    4.4782 LP  0  0  0  0  0  0  0  0  0  0  0  0  # atno 4297 bound_to 1298
    3.6587   -8.7686    3.8077 LP  0  0  0  0  0  0  0  0  0  0  0  0  # atno 4298 bound_to 1298
    1.3353   -7.9233    7.0685 LP  0  0  0  0  0  0  0  0  0  0  0  0  # atno 4299 bound_to 2456
    0.4124   -9.0237    7.8456 LP  0  0  0  0  0  0  0  0  0  0  0  0  # atno 4300 bound_to 2456
    2.3174   -9.0277    5.8522 LP  0  0  0  0  0  0  0  0  0  0  0  0  # atno 4301 bound_to 2510
    2.1544   -7.4571    5.4359 LP  0  0  0  0  0  0  0  0  0  0  0  0  # atno 4302 bound_to 2510
   -3.5183  -16.5876   14.2141 LP  0  0  0  0  0  0  0  0  0  0  0  0  # atno 4306 bound_to 3712
   -3.0801  -17.5460   12.9667 LP  0  0  0  0  0  0  0  0  0  0  0  0  # atno 4307 bound_to 3712
    1.5984  -20.6566    9.4846 LP  0  0  0  0  0  0  0  0  0  0  0  0  # atno 4314 bound_to 3832
    2.0557  -19.6401    8.2912 LP  0  0  0  0  0  0  0  0  0  0  0  0  # atno 4315 bound_to 3832
   -5.1249  -22.9389   10.0712 LP  0  0  0  0  0  0  0  0  0  0  0  0  # atno 4318 bound_to 3762
   -5.0954  -21.9162   11.3440 LP  0  0  0  0  0  0  0  0  0  0  0  0  # atno 4319 bound_to 3762
   -4.0365   -4.8164    7.8374 LP  0  0  0  0  0  0  0  0  0  0  0  0  # atno 4320 bound_to 2467
   -4.1739   -5.3815    9.3633 LP  0  0  0  0  0  0  0  0  0  0  0  0  # atno 4321 bound_to 2467

> <Gold.Score>
     Score     S(PLP)   S(hbond)     S(cho)   S(metal)  DE(clash)   DE(tors)     intcor
     33.07     -27.68       2.00       0.00       0.00       0.00       0.57       0.53

> <Gold.PLP.Fitness>
33.0667

> <Gold.PLP.PLP>
-27.6779

> <Gold.PLP.part.hbond>
-2.0000

> <Gold.PLP.part.metal>
0.0000

> <Gold.PLP.part.buried>
-4.2129

> <Gold.PLP.part.nonpolar>
-21.9874

> <Gold.PLP.part.repulsive>
0.5002

> <Gold.PLP.ligand.clash>
0.0000

> <Gold.PLP.ligand.torsion>
0.5696

> <Gold.PLP.Chemscore.Hbond>
2.0000

> <Gold.PLP.Chemscore.CHOScore>
0.0000

> <Gold.PLP.Chemscore.Metal>
0.0000

> <Gold.Chemscore.Hbonds>
donor molecule, donor type, donor heavy atom, donor atom, acceptor molecule, acceptor atom, score
      P1  H  2305  2313       L1     6  1.00
      P1  H  3712  3721       L1     9  1.00

> <Gold.PLP.Chemscore.Internal.Correction>
0.5279

