#       Name:                plp ligand
#       Creating user name   fsindt
#       Creation time:       Wed Mar  1 08:11:21 2023


#       File generated by GOLD software.
#

@<TRIPOS>MOLECULE
plp ligand
    29    28     1
SMALL
USER_CHARGES


@<TRIPOS>ATOM
      1 C1           3.8710  -0.9509  -0.1963 NONPOLAR       1 <1>                0.0000
      2 O2           2.4774  -1.0799  -0.4851 ACCEPTOR       1 <1>                0.0000
      3 C3           1.6621  -0.0778   0.1255 NONPOLAR       1 <1>                0.0000
      4 C4           1.8167  -0.1512   1.6459 NONPOLAR       1 <1>                0.0000
      5 C5           2.0923   1.2832  -0.3579 NONPOLAR       1 <1>                0.0000
      6 O6           3.0120   1.3854  -1.1519 ACCEPTOR       1 <1>                0.0000
      7 O7           1.5208   2.2820   0.0448 ACCEPTOR       1 <1>               -1.0000
      8 C8           0.2197  -0.3095  -0.2445 NONPOLAR       1 <1>                0.0000
      9 O9          -0.0793  -1.2376  -0.9580 ACCEPTOR       1 <1>                0.0000
     10 O10         -0.7328   0.5152   0.2185 ACCEPTOR       1 <1>                0.0000
     11 C11         -2.1003   0.2316  -0.1786 NONPOLAR       1 <1>                0.0000
     12 C12         -2.4935  -1.1648   0.3078 NONPOLAR       1 <1>                0.0000
     13 C13         -3.0373   1.2702   0.4414 NONPOLAR       1 <1>                0.0000
     14 C14         -2.2112   0.2904  -1.7035 NONPOLAR       1 <1>                0.0000
     15 H15          4.2280   0.0153  -0.5526                1 <1>                0.0000
     16 H16          4.0269  -1.0214   0.8802                1 <1>                0.0000
     17 H17          4.4210  -1.7483  -0.6960                1 <1>                0.0000
     18 H18          2.8599   0.0164   1.9136                1 <1>                0.0000
     19 H19          1.1947   0.6132   2.1117                1 <1>                0.0000
     20 H20          1.5055  -1.1356   1.9956                1 <1>                0.0000
     21 H21         -2.4145  -1.2067   1.3941                1 <1>                0.0000
     22 H22         -3.5201  -1.3777   0.0097                1 <1>                0.0000
     23 H23         -1.8260  -1.9047  -0.1339                1 <1>                0.0000
     24 H24         -2.7572   2.2649   0.0948                1 <1>                0.0000
     25 H25         -4.0638   1.0573   0.1433                1 <1>                0.0000
     26 H26         -2.9582   1.2282   1.5277                1 <1>                0.0000
     27 H27         -1.5438  -0.4495  -2.1451                1 <1>                0.0000
     28 H28         -3.2378   0.0775  -2.0016                1 <1>                0.0000
     29 H29         -1.9312   1.2852  -2.0500                1 <1>                0.0000
@<TRIPOS>BOND
    1    1    2 1     
    2    1   15 1     
    3    1   16 1     
    4    1   17 1     
    5    2    3 1     
    6    3    4 1     
    7    3    5 1     
    8    3    8 1     
    9    4   18 1     
   10    4   19 1     
   11    4   20 1     
   12    5    6 ar    
   13    5    7 ar    
   14    8    9 2     
   15    8   10 1     
   16   10   11 1     
   17   11   12 1     
   18   11   13 1     
   19   11   14 1     
   20   12   21 1     
   21   12   22 1     
   22   12   23 1     
   23   13   24 1     
   24   13   25 1     
   25   13   26 1     
   26   14   27 1     
   27   14   28 1     
   28   14   29 1     
@<TRIPOS>SUBSTRUCTURE
      1 ****           1
@<TRIPOS>SET
DONOR_HYDROGENS      STATIC     ATOMS    <user>   **** ""
0
ATOM$RED        STATIC     ATOMS    COLORGROUP SYSTEM
0
