#       Name:                EN300-1165841_i001
#       Creating user name   fsindt
#       Creation time:       Mon Feb 27 18:29:23 2023


#       File generated by GOLD software.
#

@<TRIPOS>MOLECULE
EN300-1165841_i001|acide_1|mol2|324|dock18
    29    29     1
SMALL
USER_CHARGES


@<TRIPOS>ATOM
      1 C1           1.3966 -14.2800   9.9920 C.3            1 <1>                0.0000
      2 C2           0.2518 -15.2819  10.1545 C.3            1 <1>                0.0000
      3 N3           0.6693 -16.3598  11.0610 N.4            1 <1>                1.0000
      4 C4          -0.4874 -17.2057  11.3786 C.3            1 <1>                0.0000
      5 C5          -0.0421 -18.3766  12.2572 C.3            1 <1>                0.0000
      6 C6           0.5657 -17.8327  13.5534 C.3            1 <1>                0.0000
      7 O7          -0.4306 -17.1141  14.2835 O.3            1 <1>                0.0000
      8 C8           1.7244 -16.8931  13.2074 C.3            1 <1>                0.0000
      9 C9           1.2135 -15.7772  12.2935 C.3            1 <1>                0.0000
     10 C10          1.0639 -18.9511  14.3706 C.1            1 <1>                0.0000
     11 C11          1.4612 -19.8431  15.0224 C.1            1 <1>                0.0000
     12 C12         -0.1007 -15.8644   8.8102 C.2            1 <1>                0.0000
     13 O13         -0.3651 -15.1264   7.8763 O.co2          1 <1>                0.0000
     14 O14         -0.1215 -17.0738   8.6562 O.co2          1 <1>               -1.0000
     15 H15          2.2672 -14.7875   9.5764 H              1 <1>                0.0000
     16 H16          1.0868 -13.4802   9.3193 H              1 <1>                0.0000
     17 H17          1.6516 -13.8587  10.9644 H              1 <1>                0.0000
     18 H18         -0.6189 -14.7745  10.5701 H              1 <1>                0.0000
     19 H19         -1.2333 -16.6156  11.9110 H              1 <1>                0.0000
     20 H20         -0.9208 -17.5894  10.4549 H              1 <1>                0.0000
     21 H21         -0.9027 -19.0025  12.4933 H              1 <1>                0.0000
     22 H22          0.7037 -18.9676  11.7255 H              1 <1>                0.0000
     23 H23          2.1265 -16.4587  14.1226 H              1 <1>                0.0000
     24 H24          2.5068 -17.4534  12.6954 H              1 <1>                0.0000
     25 H25          2.0359 -15.1063  12.0454 H              1 <1>                0.0000
     26 H26          0.4315 -15.2175  12.8066 H              1 <1>                0.0000
     27 H27          1.8166 -20.6408  15.6053 H              1 <1>                0.0000
     28 H28         -1.2926 -17.5517  14.3077 H              1 <1>                0.0000
     29 H29          1.3802 -16.9182  10.6130 H              1 <1>                0.0000
@<TRIPOS>BOND
    1    1    2 1     
    2    1   15 1     
    3    1   16 1     
    4    1   17 1     
    5    2    3 1     
    6    2   12 1     
    7    2   18 1     
    8    3    4 1     
    9    3    9 1     
   10    3   29 1     
   11    4    5 1     
   12    4   19 1     
   13    4   20 1     
   14    5    6 1     
   15    5   21 1     
   16    5   22 1     
   17    6    7 1     
   18    6    8 1     
   19    6   10 1     
   20    7   28 1     
   21    8    9 1     
   22    8   23 1     
   23    8   24 1     
   24    9   25 1     
   25    9   26 1     
   26   10   11 3     
   27   11   27 1     
   28   12   13 ar    
   29   12   14 ar    
@<TRIPOS>SUBSTRUCTURE
      1 ****           1
@<TRIPOS>SET
DONOR_HYDROGENS      STATIC     ATOMS    <user>   **** ""
2 29 28
ATOM$RED        STATIC     ATOMS    COLORGROUP SYSTEM
2 29 28
@<TRIPOS>COMMENT
> <Gold.Version>
2022.2.0

> <Gold.Id.Protein>
3pbl|protein|mol2

> <Gold.Protein.RotatedTorsions>
[ 1303 1298 1297 1294 ] final -146.42 input  179.99 | X-H torsion
[ 2461 2456 2455 2452 ] final   59.88 input   30.03 | X-H torsion
[ 2515 2510 2509 2506 ] final -130.38 input  -89.99 | X-H torsion
[ 3721 3712 3711 3710 ] final -176.24 input -179.91 | X-H torsion
[ 3841 3832 3831 3830 ] final   46.10 input -179.91 | X-H torsion
[ 3767 3762 3761 3758 ] final   96.92 input  -89.99 | X-H torsion
[ 2472 2467 2466 2463 ] final   58.66 input  -89.97 | X-H torsion

> <Gold.Protein.ActiveResidues>
 VAL82   VAL86   LEU89   PHE106  VAL107  ASP110  VAL111  MET112  CYS114  THR115 
 CYS181  SER182  ILE183  PHE188  VAL189  ILE190  SER192  SER193  SER196  TRP342 
 PHE345  PHE346  HIS349  VAL350  TYR365  THR369  GLY372  TYR373 

> <Gold.Protein.RotatedAtoms>
    4.5697   -8.5450    4.3547 H   0  0  0  0  0  0  0  0  0  0  0  0  # atno 1303 bound_to 1298
    1.9150   -8.0305    7.3780 H   0  0  0  0  0  0  0  0  0  0  0  0  # atno 2461 bound_to 2456
   -4.6212   -4.8172    7.6587 H   0  0  0  0  0  0  0  0  0  0  0  0  # atno 2472 bound_to 2467
    2.6581   -9.2455    5.1564 H   0  0  0  0  0  0  0  0  0  0  0  0  # atno 2515 bound_to 2510
   -3.3288  -16.5872   13.5992 H   0  0  0  0  0  0  0  0  0  0  0  0  # atno 3721 bound_to 3712
   -4.1226  -23.3132   10.5894 H   0  0  0  0  0  0  0  0  0  0  0  0  # atno 3767 bound_to 3762
    2.2807  -20.8905    9.5832 H   0  0  0  0  0  0  0  0  0  0  0  0  # atno 3841 bound_to 3832
    4.4603  -10.0883    4.8769 LP  0  0  0  0  0  0  0  0  0  0  0  0  # atno 4297 bound_to 1298
    3.3321   -9.4884    3.8601 LP  0  0  0  0  0  0  0  0  0  0  0  0  # atno 4298 bound_to 1298
    0.3704   -8.5611    7.3688 LP  0  0  0  0  0  0  0  0  0  0  0  0  # atno 4299 bound_to 2456
    1.4526   -9.2164    8.4013 LP  0  0  0  0  0  0  0  0  0  0  0  0  # atno 4300 bound_to 2456
    2.0295   -8.0050    6.0119 LP  0  0  0  0  0  0  0  0  0  0  0  0  # atno 4301 bound_to 2510
    2.6091   -7.7483    4.5070 LP  0  0  0  0  0  0  0  0  0  0  0  0  # atno 4302 bound_to 2510
   -2.7547  -18.0596   13.3163 LP  0  0  0  0  0  0  0  0  0  0  0  0  # atno 4306 bound_to 3712
   -2.9298  -17.5165   14.8463 LP  0  0  0  0  0  0  0  0  0  0  0  0  # atno 4307 bound_to 3712
    1.5587  -19.7580    8.7045 LP  0  0  0  0  0  0  0  0  0  0  0  0  # atno 4314 bound_to 3832
    3.0361  -20.3156    8.2890 LP  0  0  0  0  0  0  0  0  0  0  0  0  # atno 4315 bound_to 3832
   -5.4765  -22.4337   10.3438 LP  0  0  0  0  0  0  0  0  0  0  0  0  # atno 4318 bound_to 3762
   -4.5281  -22.1285   11.6377 LP  0  0  0  0  0  0  0  0  0  0  0  0  # atno 4319 bound_to 3762
   -3.7368   -5.1947    8.9785 LP  0  0  0  0  0  0  0  0  0  0  0  0  # atno 4320 bound_to 2467
   -5.3589   -5.3816    9.0017 LP  0  0  0  0  0  0  0  0  0  0  0  0  # atno 4321 bound_to 2467

> <Gold.Score>
     Score     S(PLP)   S(hbond)     S(cho)   S(metal)  DE(clash)   DE(tors)     intcor
     35.99     -28.19       2.70       0.00       0.00       0.00       0.15       0.00

> <Gold.PLP.Fitness>
35.9890

> <Gold.PLP.PLP>
-28.1893

> <Gold.PLP.part.hbond>
-2.0000

> <Gold.PLP.part.metal>
0.0000

> <Gold.PLP.part.buried>
-4.3029

> <Gold.PLP.part.nonpolar>
-23.8753

> <Gold.PLP.part.repulsive>
1.4196

> <Gold.PLP.ligand.clash>
0.0000

> <Gold.PLP.ligand.torsion>
0.1503

> <Gold.PLP.Chemscore.Hbond>
2.7000

> <Gold.PLP.Chemscore.CHOScore>
0.0000

> <Gold.PLP.Chemscore.Metal>
0.0000

> <Gold.Chemscore.Hbonds>
donor molecule, donor type, donor heavy atom, donor atom, acceptor molecule, acceptor atom, score
      L1  H     3    29       P1  1227  2.00
      L1  H     7    28       P1  3712  0.70

> <Gold.PLP.Chemscore.Internal.Correction>
0.0003

