#       Name:                EN300-1165841_i001
#       Creating user name   fsindt
#       Creation time:       Mon Feb 27 18:29:21 2023


#       File generated by GOLD software.
#

@<TRIPOS>MOLECULE
EN300-1165841_i001|acide_1|mol2|324|dock16
    29    29     1
SMALL
USER_CHARGES


@<TRIPOS>ATOM
      1 C1           0.9399 -19.8042  15.0419 C.3            1 <1>                0.0000
      2 C2          -0.5423 -19.5318  14.7782 C.3            1 <1>                0.0000
      3 N3          -0.6785 -18.3315  13.9425 N.4            1 <1>                1.0000
      4 C4          -0.1866 -18.6203  12.5900 C.3            1 <1>                0.0000
      5 C5          -0.4006 -17.3989  11.6935 C.3            1 <1>                0.0000
      6 C6           0.3657 -16.2064  12.2732 C.3            1 <1>                0.0000
      7 O7           1.7661 -16.4908  12.2692 O.3            1 <1>                0.0000
      8 C8          -0.1029 -15.9609  13.7103 C.3            1 <1>                0.0000
      9 C9           0.1001 -17.2357  14.5321 C.3            1 <1>                0.0000
     10 C10          0.1042 -15.0096  11.4572 C.1            1 <1>                0.0000
     11 C11         -0.1043 -14.0549  10.8065 C.1            1 <1>                0.0000
     12 C12         -1.2542 -19.3149  16.0886 C.2            1 <1>                0.0000
     13 O13         -1.8983 -18.2959  16.2711 O.co2          1 <1>                0.0000
     14 O14         -1.1861 -20.1583  16.9665 O.co2          1 <1>               -1.0000
     15 H15          1.3801 -18.9506  15.5576 H              1 <1>                0.0000
     16 H16          1.0409 -20.6949  15.6622 H              1 <1>                0.0000
     17 H17          1.4548 -19.9611  14.0942 H              1 <1>                0.0000
     18 H18         -0.9826 -20.3854  14.2626 H              1 <1>                0.0000
     19 H19          0.8766 -18.8568  12.6333 H              1 <1>                0.0000
     20 H20         -0.7307 -19.4712  12.1800 H              1 <1>                0.0000
     21 H21         -0.0331 -17.6148  10.6903 H              1 <1>                0.0000
     22 H22         -1.4636 -17.1617  11.6493 H              1 <1>                0.0000
     23 H23          0.4773 -15.1490  14.1487 H              1 <1>                0.0000
     24 H24         -1.1597 -15.6938  13.7079 H              1 <1>                0.0000
     25 H25         -0.2323 -17.0643  15.5559 H              1 <1>                0.0000
     26 H26          1.1572 -17.5016  14.5340 H              1 <1>                0.0000
     27 H27         -0.2909 -13.2012  10.2244 H              1 <1>                0.0000
     28 H28          2.0988 -16.8173  11.4219 H              1 <1>                0.0000
     29 H29         -1.6501 -18.0637  13.8958 H              1 <1>                0.0000
@<TRIPOS>BOND
    1    1    2 1     
    2    1   15 1     
    3    1   16 1     
    4    1   17 1     
    5    2    3 1     
    6    2   12 1     
    7    2   18 1     
    8    3    4 1     
    9    3    9 1     
   10    3   29 1     
   11    4    5 1     
   12    4   19 1     
   13    4   20 1     
   14    5    6 1     
   15    5   21 1     
   16    5   22 1     
   17    6    7 1     
   18    6    8 1     
   19    6   10 1     
   20    7   28 1     
   21    8    9 1     
   22    8   23 1     
   23    8   24 1     
   24    9   25 1     
   25    9   26 1     
   26   10   11 3     
   27   11   27 1     
   28   12   13 ar    
   29   12   14 ar    
@<TRIPOS>SUBSTRUCTURE
      1 ****           1
@<TRIPOS>SET
DONOR_HYDROGENS      STATIC     ATOMS    <user>   **** ""
2 29 28
ATOM$RED        STATIC     ATOMS    COLORGROUP SYSTEM
2 29 28
@<TRIPOS>COMMENT
> <Gold.Version>
2022.2.0

> <Gold.Id.Protein>
3pbl|protein|mol2

> <Gold.Protein.RotatedTorsions>
[ 1303 1298 1297 1294 ] final  -82.63 input  179.99 | X-H torsion
[ 2461 2456 2455 2452 ] final  -92.92 input   30.03 | X-H torsion
[ 2515 2510 2509 2506 ] final  151.70 input  -89.99 | X-H torsion
[ 3721 3712 3711 3710 ] final -137.94 input -179.91 | X-H torsion
[ 3841 3832 3831 3830 ] final -137.02 input -179.91 | X-H torsion
[ 3767 3762 3761 3758 ] final    4.30 input  -89.99 | X-H torsion
[ 2472 2467 2466 2463 ] final -124.51 input  -89.97 | X-H torsion

> <Gold.Protein.ActiveResidues>
 VAL82   VAL86   LEU89   PHE106  VAL107  ASP110  VAL111  MET112  CYS114  THR115 
 CYS181  SER182  ILE183  PHE188  VAL189  ILE190  SER192  SER193  SER196  TRP342 
 PHE345  PHE346  HIS349  VAL350  TYR365  THR369  GLY372  TYR373 

> <Gold.Protein.RotatedAtoms>
    3.7346   -8.6970    3.8334 H   0  0  0  0  0  0  0  0  0  0  0  0  # atno 1303 bound_to 1298
    0.3652   -8.9386    7.7442 H   0  0  0  0  0  0  0  0  0  0  0  0  # atno 2461 bound_to 2456
   -4.5752   -5.4516    9.4331 H   0  0  0  0  0  0  0  0  0  0  0  0  # atno 2472 bound_to 2467
    2.1525   -8.6688    6.0601 H   0  0  0  0  0  0  0  0  0  0  0  0  # atno 2515 bound_to 2510
   -3.2950  -16.5582   14.1658 H   0  0  0  0  0  0  0  0  0  0  0  0  # atno 3721 bound_to 3712
   -5.2827  -22.7693   10.1226 H   0  0  0  0  0  0  0  0  0  0  0  0  # atno 3767 bound_to 3762
    2.4564  -19.6633    8.3756 H   0  0  0  0  0  0  0  0  0  0  0  0  # atno 3841 bound_to 3832
    4.9120   -9.2008    4.8464 LP  0  0  0  0  0  0  0  0  0  0  0  0  # atno 4297 bound_to 1298
    3.7157  -10.2238    4.4120 LP  0  0  0  0  0  0  0  0  0  0  0  0  # atno 4298 bound_to 1298
    1.9027   -8.9527    8.2949 LP  0  0  0  0  0  0  0  0  0  0  0  0  # atno 4299 bound_to 2456
    1.4697   -7.9169    7.1090 LP  0  0  0  0  0  0  0  0  0  0  0  0  # atno 4300 bound_to 2456
    2.3203   -7.4189    5.0230 LP  0  0  0  0  0  0  0  0  0  0  0  0  # atno 4301 bound_to 2510
    2.8240   -8.9112    4.5917 LP  0  0  0  0  0  0  0  0  0  0  0  0  # atno 4302 bound_to 2510
   -3.0410  -17.6119   12.9813 LP  0  0  0  0  0  0  0  0  0  0  0  0  # atno 4306 bound_to 3712
   -2.6825  -17.9977   14.5270 LP  0  0  0  0  0  0  0  0  0  0  0  0  # atno 4307 bound_to 3712
    2.9302  -21.0560    9.0175 LP  0  0  0  0  0  0  0  0  0  0  0  0  # atno 4314 bound_to 3832
    1.4617  -20.4353    9.3710 LP  0  0  0  0  0  0  0  0  0  0  0  0  # atno 4315 bound_to 3832
   -4.9079  -21.9504   11.4849 LP  0  0  0  0  0  0  0  0  0  0  0  0  # atno 4318 bound_to 3762
   -3.9370  -23.1554   10.9634 LP  0  0  0  0  0  0  0  0  0  0  0  0  # atno 4319 bound_to 3762
   -5.3830   -5.0492    8.0722 LP  0  0  0  0  0  0  0  0  0  0  0  0  # atno 4320 bound_to 2467
   -3.7587   -4.8928    8.1340 LP  0  0  0  0  0  0  0  0  0  0  0  0  # atno 4321 bound_to 2467

> <Gold.Score>
     Score     S(PLP)   S(hbond)     S(cho)   S(metal)  DE(clash)   DE(tors)     intcor
     37.71     -31.98       2.00       0.00       0.00       0.00       0.14       0.00

> <Gold.PLP.Fitness>
37.7120

> <Gold.PLP.PLP>
-31.9834

> <Gold.PLP.part.hbond>
-3.0000

> <Gold.PLP.part.metal>
0.0000

> <Gold.PLP.part.buried>
-4.7132

> <Gold.PLP.part.nonpolar>
-25.0023

> <Gold.PLP.part.repulsive>
0.0377

> <Gold.PLP.ligand.clash>
0.0000

> <Gold.PLP.ligand.torsion>
0.1358

> <Gold.PLP.Chemscore.Hbond>
2.0000

> <Gold.PLP.Chemscore.CHOScore>
0.0000

> <Gold.PLP.Chemscore.Metal>
0.0000

> <Gold.Chemscore.Hbonds>
donor molecule, donor type, donor heavy atom, donor atom, acceptor molecule, acceptor atom, score
      L1  H     3    29       P1  3712  1.00
      L1  H     7    28       P1  1227  1.00

> <Gold.PLP.Chemscore.Internal.Correction>
0.0003

