#       Name:                EN300-1165841_i001
#       Creating user name   fsindt
#       Creation time:       Mon Feb 27 18:29:25 2023


#       File generated by GOLD software.
#

@<TRIPOS>MOLECULE
EN300-1165841_i001|acide_1|mol2|324|dock20
    29    29     1
SMALL
USER_CHARGES


@<TRIPOS>ATOM
      1 C1           2.5764 -14.3098  10.1170 C.3            1 <1>                0.0000
      2 C2           1.1323 -14.6517  10.4890 C.3            1 <1>                0.0000
      3 N3           1.1179 -15.8348  11.3597 N.4            1 <1>                1.0000
      4 C4          -0.2523 -16.0819  11.8244 C.3            1 <1>                0.0000
      5 C5          -0.2871 -17.3595  12.6659 C.3            1 <1>                0.0000
      6 C6           0.6411 -17.1947  13.8728 C.3            1 <1>                0.0000
      7 O7           0.1639 -16.1325  14.7010 O.3            1 <1>                0.0000
      8 C8           2.0521 -16.8639  13.3779 C.3            1 <1>                0.0000
      9 C9           2.0000 -15.6046  12.5101 C.3            1 <1>                0.0000
     10 C10          0.6699 -18.4469  14.6460 C.1            1 <1>                0.0000
     11 C11          0.6930 -19.4456  15.2629 C.1            1 <1>                0.0000
     12 C12          0.3457 -14.9402   9.2365 C.2            1 <1>                0.0000
     13 O13          0.1574 -14.0566   8.4177 O.co2          1 <1>                0.0000
     14 O14         -0.1026 -16.0573   9.0417 O.co2          1 <1>               -1.0000
     15 H15          3.0257 -15.1528   9.5919 H              1 <1>                0.0000
     16 H16          2.5871 -13.4320   9.4709 H              1 <1>                0.0000
     17 H17          3.1454 -14.1011  11.0230 H              1 <1>                0.0000
     18 H18          0.6830 -13.8087  11.0141 H              1 <1>                0.0000
     19 H19         -0.5877 -15.2396  12.4295 H              1 <1>                0.0000
     20 H20         -0.9122 -16.1958  10.9644 H              1 <1>                0.0000
     21 H21         -1.3049 -17.5402  13.0114 H              1 <1>                0.0000
     22 H22          0.0479 -18.2025  12.0615 H              1 <1>                0.0000
     23 H23          2.7061 -16.6903  14.2323 H              1 <1>                0.0000
     24 H24          2.4355 -17.6966  12.7883 H              1 <1>                0.0000
     25 H25          3.0030 -15.3661  12.1562 H              1 <1>                0.0000
     26 H26          1.6167 -14.7725  13.1006 H              1 <1>                0.0000
     27 H27          0.7136 -20.3388  15.8144 H              1 <1>                0.0000
     28 H28         -0.7927 -16.1435  14.8426 H              1 <1>                0.0000
     29 H29          1.4460 -16.6362  10.8419 H              1 <1>                0.0000
@<TRIPOS>BOND
    1    1    2 1     
    2    1   15 1     
    3    1   16 1     
    4    1   17 1     
    5    2    3 1     
    6    2   12 1     
    7    2   18 1     
    8    3    4 1     
    9    3    9 1     
   10    3   29 1     
   11    4    5 1     
   12    4   19 1     
   13    4   20 1     
   14    5    6 1     
   15    5   21 1     
   16    5   22 1     
   17    6    7 1     
   18    6    8 1     
   19    6   10 1     
   20    7   28 1     
   21    8    9 1     
   22    8   23 1     
   23    8   24 1     
   24    9   25 1     
   25    9   26 1     
   26   10   11 3     
   27   11   27 1     
   28   12   13 ar    
   29   12   14 ar    
@<TRIPOS>SUBSTRUCTURE
      1 ****           1
@<TRIPOS>SET
DONOR_HYDROGENS      STATIC     ATOMS    <user>   **** ""
2 29 28
ATOM$RED        STATIC     ATOMS    COLORGROUP SYSTEM
2 29 28
@<TRIPOS>COMMENT
> <Gold.Version>
2022.2.0

> <Gold.Id.Protein>
3pbl|protein|mol2

> <Gold.Protein.RotatedTorsions>
[ 1303 1298 1297 1294 ] final -120.09 input  179.99 | X-H torsion
[ 2461 2456 2455 2452 ] final  -96.23 input   30.03 | X-H torsion
[ 2515 2510 2509 2506 ] final  -39.51 input  -89.99 | X-H torsion
[ 3721 3712 3711 3710 ] final  147.45 input -179.91 | X-H torsion
[ 3841 3832 3831 3830 ] final   34.49 input -179.91 | X-H torsion
[ 3767 3762 3761 3758 ] final   35.66 input  -89.99 | X-H torsion
[ 2472 2467 2466 2463 ] final  169.61 input  -89.97 | X-H torsion

> <Gold.Protein.ActiveResidues>
 VAL82   VAL86   LEU89   PHE106  VAL107  ASP110  VAL111  MET112  CYS114  THR115 
 CYS181  SER182  ILE183  PHE188  VAL189  ILE190  SER192  SER193  SER196  TRP342 
 PHE345  PHE346  HIS349  VAL350  TYR365  THR369  GLY372  TYR373 

> <Gold.Protein.RotatedAtoms>
    4.2342   -8.4774    4.0953 H   0  0  0  0  0  0  0  0  0  0  0  0  # atno 1303 bound_to 1298
    0.3811   -8.9726    7.7837 H   0  0  0  0  0  0  0  0  0  0  0  0  # atno 2461 bound_to 2456
   -5.4294   -5.3448    8.8761 H   0  0  0  0  0  0  0  0  0  0  0  0  # atno 2472 bound_to 2467
    2.7634   -8.1711    4.3577 H   0  0  0  0  0  0  0  0  0  0  0  0  # atno 2515 bound_to 2510
   -3.1914  -16.8927   13.1760 H   0  0  0  0  0  0  0  0  0  0  0  0  # atno 3721 bound_to 3712
   -4.9071  -23.1103   10.0731 H   0  0  0  0  0  0  0  0  0  0  0  0  # atno 3767 bound_to 3762
    2.1244  -20.8183    9.6153 H   0  0  0  0  0  0  0  0  0  0  0  0  # atno 3841 bound_to 3832
    4.7421   -9.7725    4.9502 LP  0  0  0  0  0  0  0  0  0  0  0  0  # atno 4297 bound_to 1298
    3.3858   -9.8717    4.0462 LP  0  0  0  0  0  0  0  0  0  0  0  0  # atno 4298 bound_to 1298
    1.9384   -8.9181    8.2728 LP  0  0  0  0  0  0  0  0  0  0  0  0  # atno 4299 bound_to 2456
    1.4181   -7.9176    7.0917 LP  0  0  0  0  0  0  0  0  0  0  0  0  # atno 4300 bound_to 2456
    2.4665   -9.2025    5.5881 LP  0  0  0  0  0  0  0  0  0  0  0  0  # atno 4301 bound_to 2510
    2.0667   -7.6256    5.7299 LP  0  0  0  0  0  0  0  0  0  0  0  0  # atno 4302 bound_to 2510
   -2.6141  -18.2184   13.8739 LP  0  0  0  0  0  0  0  0  0  0  0  0  # atno 4306 bound_to 3712
   -3.2290  -17.0050   14.7772 LP  0  0  0  0  0  0  0  0  0  0  0  0  # atno 4307 bound_to 3712
    1.6767  -19.6873    8.5682 LP  0  0  0  0  0  0  0  0  0  0  0  0  # atno 4314 bound_to 3832
    3.0986  -20.4698    8.3883 LP  0  0  0  0  0  0  0  0  0  0  0  0  # atno 4315 bound_to 3832
   -5.2833  -21.9332   11.1407 LP  0  0  0  0  0  0  0  0  0  0  0  0  # atno 4318 bound_to 3762
   -3.9370  -22.8318   11.3570 LP  0  0  0  0  0  0  0  0  0  0  0  0  # atno 4319 bound_to 3762
   -4.4734   -4.8035    7.6680 LP  0  0  0  0  0  0  0  0  0  0  0  0  # atno 4320 bound_to 2467
   -3.8143   -5.2453    9.0952 LP  0  0  0  0  0  0  0  0  0  0  0  0  # atno 4321 bound_to 2467

> <Gold.Score>
     Score     S(PLP)   S(hbond)     S(cho)   S(metal)  DE(clash)   DE(tors)     intcor
     38.54     -29.71       3.00       0.00       0.00       0.00       0.08       0.00

> <Gold.PLP.Fitness>
38.5406

> <Gold.PLP.PLP>
-29.7091

> <Gold.PLP.part.hbond>
-2.0000

> <Gold.PLP.part.metal>
0.0000

> <Gold.PLP.part.buried>
-4.0739

> <Gold.PLP.part.nonpolar>
-24.8629

> <Gold.PLP.part.repulsive>
0.1493

> <Gold.PLP.ligand.clash>
0.0000

> <Gold.PLP.ligand.torsion>
0.0844

> <Gold.PLP.Chemscore.Hbond>
3.0000

> <Gold.PLP.Chemscore.CHOScore>
0.0000

> <Gold.PLP.Chemscore.Metal>
0.0000

> <Gold.Chemscore.Hbonds>
donor molecule, donor type, donor heavy atom, donor atom, acceptor molecule, acceptor atom, score
      L1  H     3    29       P1  1227  2.00
      P1  H  2305  2313       L1     7  1.00

> <Gold.PLP.Chemscore.Internal.Correction>
0.0003

