#       Name:                EN300-1165841_i001
#       Creating user name   fsindt
#       Creation time:       Mon Feb 27 18:29:15 2023


#       File generated by GOLD software.
#

@<TRIPOS>MOLECULE
EN300-1165841_i001|acide_1|mol2|324|dock10
    29    29     1
SMALL
USER_CHARGES


@<TRIPOS>ATOM
      1 C1          -0.7086 -16.1151  14.9647 C.3            1 <1>                0.0000
      2 C2          -0.2456 -16.3017  13.5184 C.3            1 <1>                0.0000
      3 N3          -0.6091 -17.6484  13.0577 N.4            1 <1>                1.0000
      4 C4           0.1821 -18.6446  13.7899 C.3            1 <1>                0.0000
      5 C5          -0.2499 -20.0519  13.3722 C.3            1 <1>                0.0000
      6 C6          -0.0237 -20.2238  11.8674 C.3            1 <1>                0.0000
      7 O7           1.3709 -20.1085  11.5776 O.3            1 <1>                0.0000
      8 C8          -0.7944 -19.1335  11.1174 C.3            1 <1>                0.0000
      9 C9          -0.3422 -17.7602  11.6187 C.3            1 <1>                0.0000
     10 C10         -0.5062 -21.5488  11.4453 C.1            1 <1>                0.0000
     11 C11         -0.8911 -22.6057  11.1088 C.1            1 <1>                0.0000
     12 C12          1.2499 -16.1319  13.4438 C.2            1 <1>                0.0000
     13 O13          1.8211 -16.2244  12.3706 O.co2          1 <1>                0.0000
     14 O14          1.8887 -15.9021  14.4566 O.co2          1 <1>               -1.0000
     15 H15         -0.2264 -16.8588  15.5993 H              1 <1>                0.0000
     16 H16         -0.4388 -15.1159  15.3066 H              1 <1>                0.0000
     17 H17         -1.7903 -16.2380  15.0186 H              1 <1>                0.0000
     18 H18         -0.7277 -15.5581  12.8838 H              1 <1>                0.0000
     19 H19          1.2392 -18.5070  13.5624 H              1 <1>                0.0000
     20 H20          0.0225 -18.5189  14.8608 H              1 <1>                0.0000
     21 H21          0.3399 -20.7900  13.9156 H              1 <1>                0.0000
     22 H22         -1.3069 -20.1906  13.5996 H              1 <1>                0.0000
     23 H23         -0.5938 -19.2152  10.0492 H              1 <1>                0.0000
     24 H24         -1.8626 -19.2532  11.2980 H              1 <1>                0.0000
     25 H25         -0.8888 -16.9816  11.0867 H              1 <1>                0.0000
     26 H26          0.7260 -17.6415  11.4374 H              1 <1>                0.0000
     27 H27         -1.2353 -23.5508  10.8077 H              1 <1>                0.0000
     28 H28          1.5903 -20.2342  10.6442 H              1 <1>                0.0000
     29 H29         -1.5906 -17.8078  13.2291 H              1 <1>                0.0000
@<TRIPOS>BOND
    1    1    2 1     
    2    1   15 1     
    3    1   16 1     
    4    1   17 1     
    5    2    3 1     
    6    2   12 1     
    7    2   18 1     
    8    3    4 1     
    9    3    9 1     
   10    3   29 1     
   11    4    5 1     
   12    4   19 1     
   13    4   20 1     
   14    5    6 1     
   15    5   21 1     
   16    5   22 1     
   17    6    7 1     
   18    6    8 1     
   19    6   10 1     
   20    7   28 1     
   21    8    9 1     
   22    8   23 1     
   23    8   24 1     
   24    9   25 1     
   25    9   26 1     
   26   10   11 3     
   27   11   27 1     
   28   12   13 ar    
   29   12   14 ar    
@<TRIPOS>SUBSTRUCTURE
      1 ****           1
@<TRIPOS>SET
DONOR_HYDROGENS      STATIC     ATOMS    <user>   **** ""
2 29 28
ATOM$RED        STATIC     ATOMS    COLORGROUP SYSTEM
2 29 28
@<TRIPOS>COMMENT
> <Gold.Version>
2022.2.0

> <Gold.Id.Protein>
3pbl|protein|mol2

> <Gold.Protein.RotatedTorsions>
[ 1303 1298 1297 1294 ] final   -9.05 input  179.99 | X-H torsion
[ 2461 2456 2455 2452 ] final  141.35 input   30.03 | X-H torsion
[ 2515 2510 2509 2506 ] final  -87.05 input  -89.99 | X-H torsion
[ 3721 3712 3711 3710 ] final -108.59 input -179.91 | X-H torsion
[ 3841 3832 3831 3830 ] final  173.63 input -179.91 | X-H torsion
[ 3767 3762 3761 3758 ] final -174.96 input  -89.99 | X-H torsion
[ 2472 2467 2466 2463 ] final   12.20 input  -89.97 | X-H torsion

> <Gold.Protein.ActiveResidues>
 VAL82   VAL86   LEU89   PHE106  VAL107  ASP110  VAL111  MET112  CYS114  THR115 
 CYS181  SER182  ILE183  PHE188  VAL189  ILE190  SER192  SER193  SER196  TRP342 
 PHE345  PHE346  HIS349  VAL350  TYR365  THR369  GLY372  TYR373 

> <Gold.Protein.RotatedAtoms>
    3.3490   -9.7488    3.9736 H   0  0  0  0  0  0  0  0  0  0  0  0  # atno 1303 bound_to 1298
    1.9633   -8.8920    8.2555 H   0  0  0  0  0  0  0  0  0  0  0  0  # atno 2461 bound_to 2456
   -3.9271   -4.8368    7.9251 H   0  0  0  0  0  0  0  0  0  0  0  0  # atno 2472 bound_to 2467
    2.8261   -8.8951    4.5792 H   0  0  0  0  0  0  0  0  0  0  0  0  # atno 2515 bound_to 2510
   -3.1517  -16.7514   14.5329 H   0  0  0  0  0  0  0  0  0  0  0  0  # atno 3721 bound_to 3712
   -4.1423  -22.4711   11.5947 H   0  0  0  0  0  0  0  0  0  0  0  0  # atno 3767 bound_to 3762
    3.0089  -20.1238    8.4459 H   0  0  0  0  0  0  0  0  0  0  0  0  # atno 3841 bound_to 3832
    4.3552   -8.4793    4.1795 LP  0  0  0  0  0  0  0  0  0  0  0  0  # atno 4297 bound_to 1298
    4.6583   -9.8930    4.9387 LP  0  0  0  0  0  0  0  0  0  0  0  0  # atno 4298 bound_to 1298
    1.3798   -7.9195    7.0803 LP  0  0  0  0  0  0  0  0  0  0  0  0  # atno 4299 bound_to 2456
    0.3948   -8.9967    7.8125 LP  0  0  0  0  0  0  0  0  0  0  0  0  # atno 4300 bound_to 2456
    2.1586   -8.6877    6.0547 LP  0  0  0  0  0  0  0  0  0  0  0  0  # atno 4301 bound_to 2510
    2.3118   -7.4161    5.0417 LP  0  0  0  0  0  0  0  0  0  0  0  0  # atno 4302 bound_to 2510
   -3.2813  -17.1906   12.9940 LP  0  0  0  0  0  0  0  0  0  0  0  0  # atno 4306 bound_to 3712
   -2.6078  -18.1959   14.0906 LP  0  0  0  0  0  0  0  0  0  0  0  0  # atno 4307 bound_to 3712
    2.2770  -21.1148    9.4746 LP  0  0  0  0  0  0  0  0  0  0  0  0  # atno 4314 bound_to 3832
    1.4765  -19.8444    8.8328 LP  0  0  0  0  0  0  0  0  0  0  0  0  # atno 4315 bound_to 3832
   -4.5006  -23.3028   10.2358 LP  0  0  0  0  0  0  0  0  0  0  0  0  # atno 4318 bound_to 3762
   -5.4842  -22.1011   10.7409 LP  0  0  0  0  0  0  0  0  0  0  0  0  # atno 4319 bound_to 3762
   -4.3054   -5.4114    9.4061 LP  0  0  0  0  0  0  0  0  0  0  0  0  # atno 4320 bound_to 2467
   -5.4843   -5.1453    8.3078 LP  0  0  0  0  0  0  0  0  0  0  0  0  # atno 4321 bound_to 2467

> <Gold.Score>
     Score     S(PLP)   S(hbond)     S(cho)   S(metal)  DE(clash)   DE(tors)     intcor
     37.74     -29.62       2.75       0.00       0.00       0.00       0.06       0.00

> <Gold.PLP.Fitness>
37.7372

> <Gold.PLP.PLP>
-29.6200

> <Gold.PLP.part.hbond>
-3.0000

> <Gold.PLP.part.metal>
0.0000

> <Gold.PLP.part.buried>
-3.7347

> <Gold.PLP.part.nonpolar>
-23.7113

> <Gold.PLP.part.repulsive>
0.1269

> <Gold.PLP.ligand.clash>
0.0000

> <Gold.PLP.ligand.torsion>
0.0647

> <Gold.PLP.Chemscore.Hbond>
2.7488

> <Gold.PLP.Chemscore.CHOScore>
0.0000

> <Gold.PLP.Chemscore.Metal>
0.0000

> <Gold.Chemscore.Hbonds>
donor molecule, donor type, donor heavy atom, donor atom, acceptor molecule, acceptor atom, score
      L1  H     3    29       P1  3712  1.00
      L1  H     7    28       P1  3832  1.00
      P1  H  2305  2313       L1    14  0.75

> <Gold.PLP.Chemscore.Internal.Correction>
0.0003

