#       Name:                EN300-1165841_i001
#       Creating user name   fsindt
#       Creation time:       Mon Feb 27 18:29:20 2023


#       File generated by GOLD software.
#

@<TRIPOS>MOLECULE
EN300-1165841_i001|acide_1|mol2|324|dock15
    29    29     1
SMALL
USER_CHARGES


@<TRIPOS>ATOM
      1 C1           0.6384 -15.9161  13.9931 C.3            1 <1>                0.0000
      2 C2           1.2587 -16.9663  13.0695 C.3            1 <1>                0.0000
      3 N3           1.2755 -16.4578  11.6914 N.4            1 <1>                1.0000
      4 C4           1.9456 -15.1523  11.6613 C.3            1 <1>                0.0000
      5 C5           2.0379 -14.6552  10.2171 C.3            1 <1>                0.0000
      6 C6           0.6264 -14.5196   9.6385 C.3            1 <1>                0.0000
      7 O7          -0.1000 -13.5351  10.3766 O.3            1 <1>                0.0000
      8 C8          -0.0893 -15.8694   9.7431 C.3            1 <1>                0.0000
      9 C9          -0.1027 -16.3215  11.2050 C.3            1 <1>                0.0000
     10 C10          0.7103 -14.1134   8.2262 C.1            1 <1>                0.0000
     11 C11          0.7773 -13.7894   7.0997 C.1            1 <1>                0.0000
     12 C12          0.4426 -18.2318  13.1281 C.2            1 <1>                0.0000
     13 O13          0.7921 -19.2125  12.4935 O.co2          1 <1>                0.0000
     14 O14         -0.5672 -18.2751  13.8100 O.co2          1 <1>               -1.0000
     15 H15         -0.3816 -15.7060  13.6709 H              1 <1>                0.0000
     16 H16          0.6259 -16.2934  15.0157 H              1 <1>                0.0000
     17 H17          1.2287 -15.0008  13.9507 H              1 <1>                0.0000
     18 H18          2.2786 -17.1766  13.3916 H              1 <1>                0.0000
     19 H19          1.3756 -14.4379  12.2553 H              1 <1>                0.0000
     20 H20          2.9488 -15.2497  12.0763 H              1 <1>                0.0000
     21 H21          2.5341 -13.6849  10.1971 H              1 <1>                0.0000
     22 H22          2.6081 -15.3688   9.6222 H              1 <1>                0.0000
     23 H23         -1.1135 -15.7672   9.3844 H              1 <1>                0.0000
     24 H24          0.4368 -16.6082   9.1385 H              1 <1>                0.0000
     25 H25         -0.6118 -17.2822  11.2831 H              1 <1>                0.0000
     26 H26         -0.6292 -15.5823  11.8086 H              1 <1>                0.0000
     27 H27          0.8371 -13.4996   6.0924 H              1 <1>                0.0000
     28 H28          0.4608 -12.9017  10.8452 H              1 <1>                0.0000
     29 H29          1.7758 -17.1053  11.1011 H              1 <1>                0.0000
@<TRIPOS>BOND
    1    1    2 1     
    2    1   15 1     
    3    1   16 1     
    4    1   17 1     
    5    2    3 1     
    6    2   12 1     
    7    2   18 1     
    8    3    4 1     
    9    3    9 1     
   10    3   29 1     
   11    4    5 1     
   12    4   19 1     
   13    4   20 1     
   14    5    6 1     
   15    5   21 1     
   16    5   22 1     
   17    6    7 1     
   18    6    8 1     
   19    6   10 1     
   20    7   28 1     
   21    8    9 1     
   22    8   23 1     
   23    8   24 1     
   24    9   25 1     
   25    9   26 1     
   26   10   11 3     
   27   11   27 1     
   28   12   13 ar    
   29   12   14 ar    
@<TRIPOS>SUBSTRUCTURE
      1 ****           1
@<TRIPOS>SET
DONOR_HYDROGENS      STATIC     ATOMS    <user>   **** ""
2 29 28
ATOM$RED        STATIC     ATOMS    COLORGROUP SYSTEM
2 29 28
@<TRIPOS>COMMENT
> <Gold.Version>
2022.2.0

> <Gold.Id.Protein>
3pbl|protein|mol2

> <Gold.Protein.RotatedTorsions>
[ 1303 1298 1297 1294 ] final  -75.93 input  179.99 | X-H torsion
[ 2461 2456 2455 2452 ] final   86.38 input   30.03 | X-H torsion
[ 2515 2510 2509 2506 ] final  148.86 input  -89.99 | X-H torsion
[ 3721 3712 3711 3710 ] final    6.46 input -179.91 | X-H torsion
[ 3841 3832 3831 3830 ] final -173.21 input -179.91 | X-H torsion
[ 3767 3762 3761 3758 ] final   54.61 input  -89.99 | X-H torsion
[ 2472 2467 2466 2463 ] final   82.29 input  -89.97 | X-H torsion

> <Gold.Protein.ActiveResidues>
 VAL82   VAL86   LEU89   PHE106  VAL107  ASP110  VAL111  MET112  CYS114  THR115 
 CYS181  SER182  ILE183  PHE188  VAL189  ILE190  SER192  SER193  SER196  TRP342 
 PHE345  PHE346  HIS349  VAL350  TYR365  THR369  GLY372  TYR373 

> <Gold.Protein.RotatedAtoms>
    3.6566   -8.7706    3.8077 H   0  0  0  0  0  0  0  0  0  0  0  0  # atno 1303 bound_to 1298
    2.1235   -8.2594    7.6795 H   0  0  0  0  0  0  0  0  0  0  0  0  # atno 2461 bound_to 2456
   -4.9924   -4.8868    7.7385 H   0  0  0  0  0  0  0  0  0  0  0  0  # atno 2472 bound_to 2467
    2.1385   -8.6258    6.0714 H   0  0  0  0  0  0  0  0  0  0  0  0  # atno 2515 bound_to 2510
   -2.4760  -17.9898   14.1512 H   0  0  0  0  0  0  0  0  0  0  0  0  # atno 3721 bound_to 3712
   -4.6439  -23.2525   10.1562 H   0  0  0  0  0  0  0  0  0  0  0  0  # atno 3767 bound_to 3762
    2.8949  -19.9743    8.3825 H   0  0  0  0  0  0  0  0  0  0  0  0  # atno 3841 bound_to 3832
    4.9079   -9.0990    4.8041 LP  0  0  0  0  0  0  0  0  0  0  0  0  # atno 4297 bound_to 1298
    3.7978  -10.2519    4.4800 LP  0  0  0  0  0  0  0  0  0  0  0  0  # atno 4298 bound_to 1298
    0.5814   -8.2600    7.1417 LP  0  0  0  0  0  0  0  0  0  0  0  0  # atno 4299 bound_to 2456
    1.0331   -9.2886    8.3269 LP  0  0  0  0  0  0  0  0  0  0  0  0  # atno 4300 bound_to 2456
    2.3396   -7.4270    4.9813 LP  0  0  0  0  0  0  0  0  0  0  0  0  # atno 4301 bound_to 2510
    2.8188   -8.9462    4.6221 LP  0  0  0  0  0  0  0  0  0  0  0  0  # atno 4302 bound_to 2510
   -3.4032  -16.7380   14.5399 LP  0  0  0  0  0  0  0  0  0  0  0  0  # atno 4306 bound_to 3712
   -3.2659  -17.2188   12.9853 LP  0  0  0  0  0  0  0  0  0  0  0  0  # atno 4307 bound_to 3712
    2.4745  -21.1535    9.3870 LP  0  0  0  0  0  0  0  0  0  0  0  0  # atno 4314 bound_to 3832
    1.4108  -19.9785    8.9936 LP  0  0  0  0  0  0  0  0  0  0  0  0  # atno 4315 bound_to 3832
   -5.4341  -22.0230   10.8847 LP  0  0  0  0  0  0  0  0  0  0  0  0  # atno 4318 bound_to 3762
   -4.0493  -22.5998   11.5300 LP  0  0  0  0  0  0  0  0  0  0  0  0  # atno 4319 bound_to 3762
   -3.6362   -5.0586    8.6316 LP  0  0  0  0  0  0  0  0  0  0  0  0  # atno 4320 bound_to 2467
   -5.0884   -5.4481    9.2689 LP  0  0  0  0  0  0  0  0  0  0  0  0  # atno 4321 bound_to 2467

> <Gold.Score>
     Score     S(PLP)   S(hbond)     S(cho)   S(metal)  DE(clash)   DE(tors)     intcor
     37.90     -29.00       3.00       0.00       0.00       0.00       0.05       0.00

> <Gold.PLP.Fitness>
37.8997

> <Gold.PLP.PLP>
-28.9974

> <Gold.PLP.part.hbond>
-2.0000

> <Gold.PLP.part.metal>
0.0000

> <Gold.PLP.part.buried>
-0.3467

> <Gold.PLP.part.nonpolar>
-26.7190

> <Gold.PLP.part.repulsive>
0.0628

> <Gold.PLP.ligand.clash>
0.0000

> <Gold.PLP.ligand.torsion>
0.0490

> <Gold.PLP.Chemscore.Hbond>
3.0000

> <Gold.PLP.Chemscore.CHOScore>
0.0000

> <Gold.PLP.Chemscore.Metal>
0.0000

> <Gold.Chemscore.Hbonds>
donor molecule, donor type, donor heavy atom, donor atom, acceptor molecule, acceptor atom, score
      L1  H     3    29       P1  1227  2.00
      P1  H  3712  3721       L1    14  1.00

> <Gold.PLP.Chemscore.Internal.Correction>
0.0003

