#       Name:                EN300-1165841_i001
#       Creating user name   fsindt
#       Creation time:       Mon Feb 27 18:29:10 2023


#       File generated by GOLD software.
#

@<TRIPOS>MOLECULE
EN300-1165841_i001|acide_1|mol2|324|dock4
    29    29     1
SMALL
USER_CHARGES


@<TRIPOS>ATOM
      1 C1           1.3946 -14.0554   9.6203 C.3            1 <1>                0.0000
      2 C2           0.9893 -12.8021   8.8421 C.3            1 <1>                0.0000
      3 N3          -0.3884 -12.4321   9.1929 N.4            1 <1>                1.0000
      4 C4          -0.7970 -11.2657   8.4010 C.3            1 <1>                0.0000
      5 C5          -2.2580 -10.9256   8.7031 C.3            1 <1>                0.0000
      6 C6          -2.4048 -10.6090  10.1942 C.3            1 <1>                0.0000
      7 O7          -1.6288  -9.4531  10.5159 O.3            1 <1>                0.0000
      8 C8          -1.9062 -11.8043  11.0114 C.3            1 <1>                0.0000
      9 C9          -0.4582 -12.1118  10.6237 C.3            1 <1>                0.0000
     10 C10         -3.8206 -10.3537  10.5061 C.1            1 <1>                0.0000
     11 C11         -4.9498 -10.1501  10.7549 C.1            1 <1>                0.0000
     12 C12          1.0738 -13.0796   7.3634 C.2            1 <1>                0.0000
     13 O13          0.5172 -14.0575   6.8938 O.co2          1 <1>                0.0000
     14 O14          1.6989 -12.3263   6.6364 O.co2          1 <1>               -1.0000
     15 H15          0.7222 -14.8747   9.3653 H              1 <1>                0.0000
     16 H16          2.4168 -14.3300   9.3600 H              1 <1>                0.0000
     17 H17          1.3334 -13.8547  10.6899 H              1 <1>                0.0000
     18 H18          1.6616 -11.9828   9.0970 H              1 <1>                0.0000
     19 H19         -0.1659 -10.4145   8.6564 H              1 <1>                0.0000
     20 H20         -0.6889 -11.4915   7.3401 H              1 <1>                0.0000
     21 H21         -2.5589 -10.0583   8.1155 H              1 <1>                0.0000
     22 H22         -2.8900 -11.7762   8.4476 H              1 <1>                0.0000
     23 H23         -1.9556 -11.5651  12.0736 H              1 <1>                0.0000
     24 H24         -2.5309 -12.6731  10.8038 H              1 <1>                0.0000
     25 H25         -0.1000 -12.9622  11.2038 H              1 <1>                0.0000
     26 H26          0.1656 -11.2426  10.8319 H              1 <1>                0.0000
     27 H27         -5.9596  -9.9681  10.9773 H              1 <1>                0.0000
     28 H28         -2.1562  -8.6626  10.6950 H              1 <1>                0.0000
     29 H29         -1.0046 -13.2056   8.9930 H              1 <1>                0.0000
@<TRIPOS>BOND
    1    1    2 1     
    2    1   15 1     
    3    1   16 1     
    4    1   17 1     
    5    2    3 1     
    6    2   12 1     
    7    2   18 1     
    8    3    4 1     
    9    3    9 1     
   10    3   29 1     
   11    4    5 1     
   12    4   19 1     
   13    4   20 1     
   14    5    6 1     
   15    5   21 1     
   16    5   22 1     
   17    6    7 1     
   18    6    8 1     
   19    6   10 1     
   20    7   28 1     
   21    8    9 1     
   22    8   23 1     
   23    8   24 1     
   24    9   25 1     
   25    9   26 1     
   26   10   11 3     
   27   11   27 1     
   28   12   13 ar    
   29   12   14 ar    
@<TRIPOS>SUBSTRUCTURE
      1 ****           1
@<TRIPOS>SET
DONOR_HYDROGENS      STATIC     ATOMS    <user>   **** ""
2 29 28
ATOM$RED        STATIC     ATOMS    COLORGROUP SYSTEM
2 29 28
@<TRIPOS>COMMENT
> <Gold.Version>
2022.2.0

> <Gold.Id.Protein>
3pbl|protein|mol2

> <Gold.Protein.RotatedTorsions>
[ 1303 1298 1297 1294 ] final  -88.31 input  179.99 | X-H torsion
[ 2461 2456 2455 2452 ] final  -56.12 input   30.03 | X-H torsion
[ 2515 2510 2509 2506 ] final  -43.83 input  -89.99 | X-H torsion
[ 3721 3712 3711 3710 ] final -117.53 input -179.91 | X-H torsion
[ 3841 3832 3831 3830 ] final  151.32 input -179.91 | X-H torsion
[ 3767 3762 3761 3758 ] final -114.53 input  -89.99 | X-H torsion
[ 2472 2467 2466 2463 ] final  115.83 input  -89.97 | X-H torsion

> <Gold.Protein.ActiveResidues>
 VAL82   VAL86   LEU89   PHE106  VAL107  ASP110  VAL111  MET112  CYS114  THR115 
 CYS181  SER182  ILE183  PHE188  VAL189  ILE190  SER192  SER193  SER196  TRP342 
 PHE345  PHE346  HIS349  VAL350  TYR365  THR369  GLY372  TYR373 

> <Gold.Protein.RotatedAtoms>
    3.8049   -8.6419    3.8608 H   0  0  0  0  0  0  0  0  0  0  0  0  # atno 1303 bound_to 1298
    0.3908   -8.5135    7.3284 H   0  0  0  0  0  0  0  0  0  0  0  0  # atno 2461 bound_to 2456
   -5.3857   -5.0518    8.0763 H   0  0  0  0  0  0  0  0  0  0  0  0  # atno 2472 bound_to 2467
    2.7798   -8.2402    4.3540 H   0  0  0  0  0  0  0  0  0  0  0  0  # atno 2515 bound_to 2510
   -3.2042  -16.6750   14.4347 H   0  0  0  0  0  0  0  0  0  0  0  0  # atno 3721 bound_to 3712
   -4.9233  -21.9454   11.4746 H   0  0  0  0  0  0  0  0  0  0  0  0  # atno 3767 bound_to 3762
    3.1205  -20.3903    8.6153 H   0  0  0  0  0  0  0  0  0  0  0  0  # atno 3841 bound_to 3832
    4.9070   -9.2889    4.8771 LP  0  0  0  0  0  0  0  0  0  0  0  0  # atno 4297 bound_to 1298
    3.6503  -10.1908    4.3538 LP  0  0  0  0  0  0  0  0  0  0  0  0  # atno 4298 bound_to 1298
    1.3900   -9.2363    8.3992 LP  0  0  0  0  0  0  0  0  0  0  0  0  # atno 4299 bound_to 2456
    1.9567   -8.0584    7.4204 LP  0  0  0  0  0  0  0  0  0  0  0  0  # atno 4300 bound_to 2456
    2.4361   -9.1763    5.6468 LP  0  0  0  0  0  0  0  0  0  0  0  0  # atno 4301 bound_to 2510
    2.0806   -7.5827    5.6749 LP  0  0  0  0  0  0  0  0  0  0  0  0  # atno 4302 bound_to 2510
   -3.2106  -17.3186   12.9638 LP  0  0  0  0  0  0  0  0  0  0  0  0  # atno 4306 bound_to 3712
   -2.6178  -18.1561   14.2341 LP  0  0  0  0  0  0  0  0  0  0  0  0  # atno 4307 bound_to 3712
    1.9457  -20.9651    9.5457 LP  0  0  0  0  0  0  0  0  0  0  0  0  # atno 4314 bound_to 3832
    1.6789  -19.6863    8.5659 LP  0  0  0  0  0  0  0  0  0  0  0  0  # atno 4315 bound_to 3832
   -3.9327  -23.1455   10.9795 LP  0  0  0  0  0  0  0  0  0  0  0  0  # atno 4318 bound_to 3762
   -5.2714  -22.7839   10.1172 LP  0  0  0  0  0  0  0  0  0  0  0  0  # atno 4319 bound_to 3762
   -3.7615   -4.8914    8.1293 LP  0  0  0  0  0  0  0  0  0  0  0  0  # atno 4320 bound_to 2467
   -4.5698   -5.4503    9.4335 LP  0  0  0  0  0  0  0  0  0  0  0  0  # atno 4321 bound_to 2467

> <Gold.Score>
     Score     S(PLP)   S(hbond)     S(cho)   S(metal)  DE(clash)   DE(tors)     intcor
     42.64     -40.63       0.76       0.00       0.00       0.00       0.14       0.00

> <Gold.PLP.Fitness>
42.6360

> <Gold.PLP.PLP>
-40.6283

> <Gold.PLP.part.hbond>
-0.8864

> <Gold.PLP.part.metal>
0.0000

> <Gold.PLP.part.buried>
-7.4187

> <Gold.PLP.part.nonpolar>
-33.5463

> <Gold.PLP.part.repulsive>
0.1635

> <Gold.PLP.ligand.clash>
0.0000

> <Gold.PLP.ligand.torsion>
0.1419

> <Gold.PLP.Chemscore.Hbond>
0.7638

> <Gold.PLP.Chemscore.CHOScore>
0.0000

> <Gold.PLP.Chemscore.Metal>
0.0000

> <Gold.Chemscore.Hbonds>
donor molecule, donor type, donor heavy atom, donor atom, acceptor molecule, acceptor atom, score
      L1  H     7    28       P1  2398  0.76

> <Gold.PLP.Chemscore.Internal.Correction>
0.0003

