#       Name:                EN300-1165841_i001
#       Creating user name   fsindt
#       Creation time:       Mon Feb 27 18:29:24 2023


#       File generated by GOLD software.
#

@<TRIPOS>MOLECULE
EN300-1165841_i001|acide_1|mol2|324|dock19
    29    29     1
SMALL
USER_CHARGES


@<TRIPOS>ATOM
      1 C1           2.0216 -17.4883  13.0379 C.3            1 <1>                0.0000
      2 C2           0.6446 -17.9453  13.5234 C.3            1 <1>                0.0000
      3 N3          -0.2080 -18.2457  12.3655 N.4            1 <1>                1.0000
      4 C4           0.3347 -19.4053  11.6477 C.3            1 <1>                0.0000
      5 C5          -0.5936 -19.7725  10.4880 C.3            1 <1>                0.0000
      6 C6          -0.7008 -18.5821   9.5306 C.3            1 <1>                0.0000
      7 O7           0.5833 -18.3032   8.9693 O.3            1 <1>                0.0000
      8 C8          -1.1973 -17.3586  10.3065 C.3            1 <1>                0.0000
      9 C9          -0.2466 -17.0810  11.4730 C.3            1 <1>                0.0000
     10 C10         -1.6505 -18.9017   8.4523 C.1            1 <1>                0.0000
     11 C11         -2.4079 -19.1567   7.5923 C.1            1 <1>                0.0000
     12 C12          0.0117 -16.8502  14.3426 C.2            1 <1>                0.0000
     13 O13         -0.9886 -17.0814  15.0003 O.co2          1 <1>                0.0000
     14 O14          0.4999 -15.7330  14.3479 O.co2          1 <1>               -1.0000
     15 H15          1.9122 -16.5933  12.4254 H              1 <1>                0.0000
     16 H16          2.6542 -17.2654  13.8971 H              1 <1>                0.0000
     17 H17          2.4793 -18.2803  12.4454 H              1 <1>                0.0000
     18 H18          0.7539 -18.8403  14.1360 H              1 <1>                0.0000
     19 H19          1.3230 -19.1611  11.2582 H              1 <1>                0.0000
     20 H20          0.4134 -20.2508  12.3312 H              1 <1>                0.0000
     21 H21         -0.1880 -20.6326   9.9554 H              1 <1>                0.0000
     22 H22         -1.5822 -20.0173  10.8767 H              1 <1>                0.0000
     23 H23         -1.2232 -16.4934   9.6441 H              1 <1>                0.0000
     24 H24         -2.1984 -17.5534  10.6913 H              1 <1>                0.0000
     25 H25         -0.5970 -16.2104  12.0274 H              1 <1>                0.0000
     26 H26          0.7540 -16.8862  11.0871 H              1 <1>                0.0000
     27 H27         -3.0852 -19.3846   6.8231 H              1 <1>                0.0000
     28 H28          1.0931 -19.0928   8.7418 H              1 <1>                0.0000
     29 H29         -1.1427 -18.4549  12.6825 H              1 <1>                0.0000
@<TRIPOS>BOND
    1    1    2 1     
    2    1   15 1     
    3    1   16 1     
    4    1   17 1     
    5    2    3 1     
    6    2   12 1     
    7    2   18 1     
    8    3    4 1     
    9    3    9 1     
   10    3   29 1     
   11    4    5 1     
   12    4   19 1     
   13    4   20 1     
   14    5    6 1     
   15    5   21 1     
   16    5   22 1     
   17    6    7 1     
   18    6    8 1     
   19    6   10 1     
   20    7   28 1     
   21    8    9 1     
   22    8   23 1     
   23    8   24 1     
   24    9   25 1     
   25    9   26 1     
   26   10   11 3     
   27   11   27 1     
   28   12   13 ar    
   29   12   14 ar    
@<TRIPOS>SUBSTRUCTURE
      1 ****           1
@<TRIPOS>SET
DONOR_HYDROGENS      STATIC     ATOMS    <user>   **** ""
2 29 28
ATOM$RED        STATIC     ATOMS    COLORGROUP SYSTEM
2 29 28
@<TRIPOS>COMMENT
> <Gold.Version>
2022.2.0

> <Gold.Id.Protein>
3pbl|protein|mol2

> <Gold.Protein.RotatedTorsions>
[ 1303 1298 1297 1294 ] final -137.14 input  179.99 | X-H torsion
[ 2461 2456 2455 2452 ] final   75.68 input   30.03 | X-H torsion
[ 2515 2510 2509 2506 ] final   38.70 input  -89.99 | X-H torsion
[ 3721 3712 3711 3710 ] final  -40.25 input -179.91 | X-H torsion
[ 3841 3832 3831 3830 ] final   72.14 input -179.91 | X-H torsion
[ 3767 3762 3761 3758 ] final -148.13 input  -89.99 | X-H torsion
[ 2472 2467 2466 2463 ] final -155.96 input  -89.97 | X-H torsion

> <Gold.Protein.ActiveResidues>
 VAL82   VAL86   LEU89   PHE106  VAL107  ASP110  VAL111  MET112  CYS114  THR115 
 CYS181  SER182  ILE183  PHE188  VAL189  ILE190  SER192  SER193  SER196  TRP342 
 PHE345  PHE346  HIS349  VAL350  TYR365  THR369  GLY372  TYR373 

> <Gold.Protein.RotatedAtoms>
    4.4588   -8.5000    4.2602 H   0  0  0  0  0  0  0  0  0  0  0  0  # atno 1303 bound_to 1298
    2.0598   -8.1551    7.5530 H   0  0  0  0  0  0  0  0  0  0  0  0  # atno 2461 bound_to 2456
   -5.0640   -5.4517    9.2842 H   0  0  0  0  0  0  0  0  0  0  0  0  # atno 2472 bound_to 2467
    2.2741   -7.4090    5.1279 H   0  0  0  0  0  0  0  0  0  0  0  0  # atno 2515 bound_to 2510
   -2.6636  -17.5817   14.6708 H   0  0  0  0  0  0  0  0  0  0  0  0  # atno 3721 bound_to 3712
   -4.4597  -22.1744   11.6469 H   0  0  0  0  0  0  0  0  0  0  0  0  # atno 3767 bound_to 3762
    2.6312  -20.9571    9.4258 H   0  0  0  0  0  0  0  0  0  0  0  0  # atno 3841 bound_to 3832
    4.5711   -9.9911    4.9162 LP  0  0  0  0  0  0  0  0  0  0  0  0  # atno 4297 bound_to 1298
    3.3322   -9.6305    3.9153 LP  0  0  0  0  0  0  0  0  0  0  0  0  # atno 4298 bound_to 1298
    0.4761   -8.3763    7.2211 LP  0  0  0  0  0  0  0  0  0  0  0  0  # atno 4299 bound_to 2456
    1.2021   -9.2766    8.3739 LP  0  0  0  0  0  0  0  0  0  0  0  0  # atno 4300 bound_to 2456
    2.8329   -8.8191    4.5236 LP  0  0  0  0  0  0  0  0  0  0  0  0  # atno 4301 bound_to 2510
    2.1897   -8.7714    6.0238 LP  0  0  0  0  0  0  0  0  0  0  0  0  # atno 4302 bound_to 2510
   -3.5672  -16.5635   13.8195 LP  0  0  0  0  0  0  0  0  0  0  0  0  # atno 4306 bound_to 3712
   -2.8853  -17.8644   13.1059 LP  0  0  0  0  0  0  0  0  0  0  0  0  # atno 4307 bound_to 3712
    1.4036  -20.0053    9.0221 LP  0  0  0  0  0  0  0  0  0  0  0  0  # atno 4314 bound_to 3832
    2.7863  -19.9913    8.1533 LP  0  0  0  0  0  0  0  0  0  0  0  0  # atno 4315 bound_to 3832
   -4.1735  -23.3263   10.5253 LP  0  0  0  0  0  0  0  0  0  0  0  0  # atno 4318 bound_to 3762
   -5.4941  -22.3741   10.3991 LP  0  0  0  0  0  0  0  0  0  0  0  0  # atno 4319 bound_to 3762
   -5.0180   -4.8931    7.7505 LP  0  0  0  0  0  0  0  0  0  0  0  0  # atno 4320 bound_to 2467
   -3.6350   -5.0488    8.6046 LP  0  0  0  0  0  0  0  0  0  0  0  0  # atno 4321 bound_to 2467

> <Gold.Score>
     Score     S(PLP)   S(hbond)     S(cho)   S(metal)  DE(clash)   DE(tors)     intcor
     37.24     -29.44       2.78       0.00       0.00       0.00       0.28       0.00

> <Gold.PLP.Fitness>
37.2380

> <Gold.PLP.PLP>
-29.4436

> <Gold.PLP.part.hbond>
-3.5179

> <Gold.PLP.part.metal>
0.0000

> <Gold.PLP.part.buried>
-4.4087

> <Gold.PLP.part.nonpolar>
-22.2569

> <Gold.PLP.part.repulsive>
0.0863

> <Gold.PLP.ligand.clash>
0.0000

> <Gold.PLP.ligand.torsion>
0.2789

> <Gold.PLP.Chemscore.Hbond>
2.7840

> <Gold.PLP.Chemscore.CHOScore>
0.0000

> <Gold.PLP.Chemscore.Metal>
0.0000

> <Gold.Chemscore.Hbonds>
donor molecule, donor type, donor heavy atom, donor atom, acceptor molecule, acceptor atom, score
      L1  H     7    28       P1  3832  1.00
      P1  H  2305  2313       L1    14  1.00
      P1  H  3712  3721       L1    13  0.78

> <Gold.PLP.Chemscore.Internal.Correction>
0.0003

