#       Name:                EN300-1165841_i001
#       Creating user name   fsindt
#       Creation time:       Mon Feb 27 18:29:12 2023


#       File generated by GOLD software.
#

@<TRIPOS>MOLECULE
EN300-1165841_i001|acide_1|mol2|324|dock6
    29    29     1
SMALL
USER_CHARGES


@<TRIPOS>ATOM
      1 C1           1.3082 -15.4618  11.8295 C.3            1 <1>                0.0000
      2 C2           1.8605 -16.6474  12.6234 C.3            1 <1>                0.0000
      3 N3           1.3169 -17.8981  12.0775 N.4            1 <1>                1.0000
      4 C4          -0.1322 -17.9417  12.3076 C.3            1 <1>                0.0000
      5 C5          -0.7161 -19.2041  11.6699 C.3            1 <1>                0.0000
      6 C6          -0.0605 -20.4371  12.2986 C.3            1 <1>                0.0000
      7 O7          -0.3735 -20.4865  13.6920 O.3            1 <1>                0.0000
      8 C8           1.4574 -20.3442  12.1176 C.3            1 <1>                0.0000
      9 C9           1.9607 -19.0395  12.7389 C.3            1 <1>                0.0000
     10 C10         -0.5631 -21.6526  11.6378 C.1            1 <1>                0.0000
     11 C11         -0.9641 -22.6221  11.1108 C.1            1 <1>                0.0000
     12 C12          1.4590 -16.5141  14.0698 C.2            1 <1>                0.0000
     13 O13          0.7256 -15.6043  14.4176 O.co2          1 <1>                0.0000
     14 O14          1.8675 -17.3161  14.8923 O.co2          1 <1>               -1.0000
     15 H15          0.2208 -15.4489  11.9050 H              1 <1>                0.0000
     16 H16          1.7115 -14.5337  12.2345 H              1 <1>                0.0000
     17 H17          1.5985 -15.5582  10.7833 H              1 <1>                0.0000
     18 H18          2.9479 -16.6603  12.5479 H              1 <1>                0.0000
     19 H19         -0.3292 -17.9523  13.3796 H              1 <1>                0.0000
     20 H20         -0.5969 -17.0620  11.8624 H              1 <1>                0.0000
     21 H21         -1.7917 -19.2355  11.8434 H              1 <1>                0.0000
     22 H22         -0.5198 -19.1944  10.5977 H              1 <1>                0.0000
     23 H23          1.9353 -21.1904  12.6112 H              1 <1>                0.0000
     24 H24          1.6987 -20.3581  11.0548 H              1 <1>                0.0000
     25 H25          3.0410 -18.9702  12.6120 H              1 <1>                0.0000
     26 H26          1.7191 -19.0267  13.8017 H              1 <1>                0.0000
     27 H27         -1.3225 -23.4891  10.6395 H              1 <1>                0.0000
     28 H28         -0.2968 -21.3683  14.0813 H              1 <1>                0.0000
     29 H29          1.5003 -17.9391  11.0862 H              1 <1>                0.0000
@<TRIPOS>BOND
    1    1    2 1     
    2    1   15 1     
    3    1   16 1     
    4    1   17 1     
    5    2    3 1     
    6    2   12 1     
    7    2   18 1     
    8    3    4 1     
    9    3    9 1     
   10    3   29 1     
   11    4    5 1     
   12    4   19 1     
   13    4   20 1     
   14    5    6 1     
   15    5   21 1     
   16    5   22 1     
   17    6    7 1     
   18    6    8 1     
   19    6   10 1     
   20    7   28 1     
   21    8    9 1     
   22    8   23 1     
   23    8   24 1     
   24    9   25 1     
   25    9   26 1     
   26   10   11 3     
   27   11   27 1     
   28   12   13 ar    
   29   12   14 ar    
@<TRIPOS>SUBSTRUCTURE
      1 ****           1
@<TRIPOS>SET
DONOR_HYDROGENS      STATIC     ATOMS    <user>   **** ""
2 29 28
ATOM$RED        STATIC     ATOMS    COLORGROUP SYSTEM
2 29 28
@<TRIPOS>COMMENT
> <Gold.Version>
2022.2.0

> <Gold.Id.Protein>
3pbl|protein|mol2

> <Gold.Protein.RotatedTorsions>
[ 1303 1298 1297 1294 ] final -126.69 input  179.99 | X-H torsion
[ 2461 2456 2455 2452 ] final  -14.44 input   30.03 | X-H torsion
[ 2515 2510 2509 2506 ] final -123.54 input  -89.99 | X-H torsion
[ 3721 3712 3711 3710 ] final   41.74 input -179.91 | X-H torsion
[ 3841 3832 3831 3830 ] final -121.86 input -179.91 | X-H torsion
[ 3767 3762 3761 3758 ] final  -65.52 input  -89.99 | X-H torsion
[ 2472 2467 2466 2463 ] final -139.65 input  -89.97 | X-H torsion

> <Gold.Protein.ActiveResidues>
 VAL82   VAL86   LEU89   PHE106  VAL107  ASP110  VAL111  MET112  CYS114  THR115 
 CYS181  SER182  ILE183  PHE188  VAL189  ILE190  SER192  SER193  SER196  TRP342 
 PHE345  PHE346  HIS349  VAL350  TYR365  THR369  GLY372  TYR373 

> <Gold.Protein.RotatedAtoms>
    4.3235   -8.4768    4.1571 H   0  0  0  0  0  0  0  0  0  0  0  0  # atno 1303 bound_to 1298
    0.8250   -8.0837    7.0506 H   0  0  0  0  0  0  0  0  0  0  0  0  # atno 2461 bound_to 2456
   -4.8201   -5.4641    9.3929 H   0  0  0  0  0  0  0  0  0  0  0  0  # atno 2472 bound_to 2467
    2.6963   -9.2213    5.0536 H   0  0  0  0  0  0  0  0  0  0  0  0  # atno 2515 bound_to 2510
   -2.5127  -18.0071   13.6278 H   0  0  0  0  0  0  0  0  0  0  0  0  # atno 3721 bound_to 3712
   -5.4330  -22.0214   10.8862 H   0  0  0  0  0  0  0  0  0  0  0  0  # atno 3767 bound_to 3762
    2.2490  -19.5983    8.4458 H   0  0  0  0  0  0  0  0  0  0  0  0  # atno 3841 bound_to 3832
    4.6816   -9.8625    4.9431 LP  0  0  0  0  0  0  0  0  0  0  0  0  # atno 4297 bound_to 1298
    3.3570   -9.7824    3.9915 LP  0  0  0  0  0  0  0  0  0  0  0  0  # atno 4298 bound_to 1298
    0.7524   -9.2506    8.1910 LP  0  0  0  0  0  0  0  0  0  0  0  0  # atno 4299 bound_to 2456
    2.1603   -8.4737    7.9063 LP  0  0  0  0  0  0  0  0  0  0  0  0  # atno 4300 bound_to 2456
    2.0357   -8.1102    6.0509 LP  0  0  0  0  0  0  0  0  0  0  0  0  # atno 4301 bound_to 2510
    2.5646   -7.6672    4.5709 LP  0  0  0  0  0  0  0  0  0  0  0  0  # atno 4302 bound_to 2510
   -3.1362  -17.1575   14.8390 LP  0  0  0  0  0  0  0  0  0  0  0  0  # atno 4306 bound_to 3712
   -3.4906  -16.7792   13.2905 LP  0  0  0  0  0  0  0  0  0  0  0  0  # atno 4307 bound_to 3712
    3.0513  -20.9335    8.8328 LP  0  0  0  0  0  0  0  0  0  0  0  0  # atno 4314 bound_to 3832
    1.5801  -20.6329    9.4746 LP  0  0  0  0  0  0  0  0  0  0  0  0  # atno 4315 bound_to 3832
   -4.0483  -22.6014   11.5290 LP  0  0  0  0  0  0  0  0  0  0  0  0  # atno 4318 bound_to 3762
   -4.6463  -23.2520   10.1558 LP  0  0  0  0  0  0  0  0  0  0  0  0  # atno 4319 bound_to 3762
   -5.2317   -4.9679    7.8927 LP  0  0  0  0  0  0  0  0  0  0  0  0  # atno 4320 bound_to 2467
   -3.6652   -4.9617    8.3537 LP  0  0  0  0  0  0  0  0  0  0  0  0  # atno 4321 bound_to 2467

> <Gold.Score>
     Score     S(PLP)   S(hbond)     S(cho)   S(metal)  DE(clash)   DE(tors)     intcor
     40.99     -32.19       2.98       0.00       0.00       0.00       0.08       0.00

> <Gold.PLP.Fitness>
40.9894

> <Gold.PLP.PLP>
-32.1910

> <Gold.PLP.part.hbond>
-2.0000

> <Gold.PLP.part.metal>
0.0000

> <Gold.PLP.part.buried>
-3.5616

> <Gold.PLP.part.nonpolar>
-27.6895

> <Gold.PLP.part.repulsive>
0.1149

> <Gold.PLP.ligand.clash>
0.0000

> <Gold.PLP.ligand.torsion>
0.0770

> <Gold.PLP.Chemscore.Hbond>
2.9840

> <Gold.PLP.Chemscore.CHOScore>
0.0000

> <Gold.PLP.Chemscore.Metal>
0.0000

> <Gold.Chemscore.Hbonds>
donor molecule, donor type, donor heavy atom, donor atom, acceptor molecule, acceptor atom, score
      L1  H     3    29       P1  1227  1.98
      P1  H  2305  2313       L1    13  1.00

> <Gold.PLP.Chemscore.Internal.Correction>
0.0003

