#       Name:                EN300-1165841_i001
#       Creating user name   fsindt
#       Creation time:       Mon Feb 27 18:29:18 2023


#       File generated by GOLD software.
#

@<TRIPOS>MOLECULE
EN300-1165841_i001|acide_1|mol2|324|dock13
    29    29     1
SMALL
USER_CHARGES


@<TRIPOS>ATOM
      1 C1          -0.1000 -15.7033   8.2212 C.3            1 <1>                0.0000
      2 C2          -0.6989 -16.7348   9.1794 C.3            1 <1>                0.0000
      3 N3           0.1657 -16.8667  10.3596 N.4            1 <1>                1.0000
      4 C4          -0.4093 -17.8575  11.2774 C.3            1 <1>                0.0000
      5 C5           0.5282 -18.0583  12.4700 C.3            1 <1>                0.0000
      6 C6           0.7066 -16.7251  13.2022 C.3            1 <1>                0.0000
      7 O7          -0.5520 -16.2946  13.7243 O.3            1 <1>                0.0000
      8 C8           1.2368 -15.6797  12.2167 C.3            1 <1>                0.0000
      9 C9           0.2730 -15.5671  11.0335 C.3            1 <1>                0.0000
     10 C10          1.6655 -16.8943  14.3060 C.1            1 <1>                0.0000
     11 C11          2.4304 -17.0293  15.1864 C.1            1 <1>                0.0000
     12 C12         -0.8039 -18.0666   8.4822 C.2            1 <1>                0.0000
     13 O13          0.1920 -18.5873   8.0093 O.co2          1 <1>                0.0000
     14 O14         -1.8846 -18.6236   8.3911 O.co2          1 <1>               -1.0000
     15 H15          0.8924 -16.0297   7.9100 H              1 <1>                0.0000
     16 H16         -0.7415 -15.6054   7.3454 H              1 <1>                0.0000
     17 H17         -0.0240 -14.7400   8.7255 H              1 <1>                0.0000
     18 H18         -1.6913 -16.4084   9.4906 H              1 <1>                0.0000
     19 H19         -1.3776 -17.5044  11.6323 H              1 <1>                0.0000
     20 H20         -0.5386 -18.8048  10.7539 H              1 <1>                0.0000
     21 H21          0.0986 -18.7929  13.1510 H              1 <1>                0.0000
     22 H22          1.4967 -18.4117  12.1161 H              1 <1>                0.0000
     23 H23          1.3137 -14.7142  12.7166 H              1 <1>                0.0000
     24 H24          2.2200 -15.9837  11.8576 H              1 <1>                0.0000
     25 H25          0.6474 -14.8234  10.3300 H              1 <1>                0.0000
     26 H26         -0.7097 -15.2628  11.3936 H              1 <1>                0.0000
     27 H27          3.1144 -17.1500  15.9737 H              1 <1>                0.0000
     28 H28         -0.5867 -15.3526  13.9403 H              1 <1>                0.0000
     29 H29          1.0836 -17.1702  10.0707 H              1 <1>                0.0000
@<TRIPOS>BOND
    1    1    2 1     
    2    1   15 1     
    3    1   16 1     
    4    1   17 1     
    5    2    3 1     
    6    2   12 1     
    7    2   18 1     
    8    3    4 1     
    9    3    9 1     
   10    3   29 1     
   11    4    5 1     
   12    4   19 1     
   13    4   20 1     
   14    5    6 1     
   15    5   21 1     
   16    5   22 1     
   17    6    7 1     
   18    6    8 1     
   19    6   10 1     
   20    7   28 1     
   21    8    9 1     
   22    8   23 1     
   23    8   24 1     
   24    9   25 1     
   25    9   26 1     
   26   10   11 3     
   27   11   27 1     
   28   12   13 ar    
   29   12   14 ar    
@<TRIPOS>SUBSTRUCTURE
      1 ****           1
@<TRIPOS>SET
DONOR_HYDROGENS      STATIC     ATOMS    <user>   **** ""
2 29 28
ATOM$RED        STATIC     ATOMS    COLORGROUP SYSTEM
2 29 28
@<TRIPOS>COMMENT
> <Gold.Version>
2022.2.0

> <Gold.Id.Protein>
3pbl|protein|mol2

> <Gold.Protein.RotatedTorsions>
[ 1303 1298 1297 1294 ] final  -39.41 input  179.99 | X-H torsion
[ 2461 2456 2455 2452 ] final  -52.73 input   30.03 | X-H torsion
[ 2515 2510 2509 2506 ] final -155.88 input  -89.99 | X-H torsion
[ 3721 3712 3711 3710 ] final   -3.65 input -179.91 | X-H torsion
[ 3841 3832 3831 3830 ] final  -78.47 input -179.91 | X-H torsion
[ 3767 3762 3761 3758 ] final  -96.61 input  -89.99 | X-H torsion
[ 2472 2467 2466 2463 ] final -173.21 input  -89.97 | X-H torsion

> <Gold.Protein.ActiveResidues>
 VAL82   VAL86   LEU89   PHE106  VAL107  ASP110  VAL111  MET112  CYS114  THR115 
 CYS181  SER182  ILE183  PHE188  VAL189  ILE190  SER192  SER193  SER196  TRP342 
 PHE345  PHE346  HIS349  VAL350  TYR365  THR369  GLY372  TYR373 

> <Gold.Protein.RotatedAtoms>
    3.3664   -9.2849    3.8056 H   0  0  0  0  0  0  0  0  0  0  0  0  # atno 1303 bound_to 1298
    0.4117   -8.4734    7.2957 H   0  0  0  0  0  0  0  0  0  0  0  0  # atno 2461 bound_to 2456
   -5.2787   -5.4107    9.1048 H   0  0  0  0  0  0  0  0  0  0  0  0  # atno 2472 bound_to 2467
    2.4921   -9.2204    5.5370 H   0  0  0  0  0  0  0  0  0  0  0  0  # atno 2515 bound_to 2510
   -2.4954  -17.9341   14.2919 H   0  0  0  0  0  0  0  0  0  0  0  0  # atno 3721 bound_to 3712
   -5.1508  -21.9141   11.2914 H   0  0  0  0  0  0  0  0  0  0  0  0  # atno 3767 bound_to 3762
    1.7402  -19.6719    8.8269 H   0  0  0  0  0  0  0  0  0  0  0  0  # atno 3841 bound_to 3832
    4.7051   -8.6441    4.4866 LP  0  0  0  0  0  0  0  0  0  0  0  0  # atno 4297 bound_to 1298
    4.2910  -10.1924    4.7996 LP  0  0  0  0  0  0  0  0  0  0  0  0  # atno 4298 bound_to 1298
    1.3363   -9.2507    8.3949 LP  0  0  0  0  0  0  0  0  0  0  0  0  # atno 4299 bound_to 2456
    1.9895   -8.0840    7.4575 LP  0  0  0  0  0  0  0  0  0  0  0  0  # atno 4300 bound_to 2456
    2.0566   -7.6647    5.7738 LP  0  0  0  0  0  0  0  0  0  0  0  0  # atno 4301 bound_to 2510
    2.7480   -8.1136    4.3642 LP  0  0  0  0  0  0  0  0  0  0  0  0  # atno 4302 bound_to 2510
   -3.4617  -16.6568   14.4041 LP  0  0  0  0  0  0  0  0  0  0  0  0  # atno 4306 bound_to 3712
   -3.1849  -17.3643   12.9586 LP  0  0  0  0  0  0  0  0  0  0  0  0  # atno 4307 bound_to 3712
    3.0805  -20.4157    8.3511 LP  0  0  0  0  0  0  0  0  0  0  0  0  # atno 4314 bound_to 3832
    2.1387  -21.0655    9.5162 LP  0  0  0  0  0  0  0  0  0  0  0  0  # atno 4315 bound_to 3832
   -3.9086  -22.9714   11.2148 LP  0  0  0  0  0  0  0  0  0  0  0  0  # atno 4318 bound_to 3762
   -5.0681  -22.9893   10.0651 LP  0  0  0  0  0  0  0  0  0  0  0  0  # atno 4319 bound_to 3762
   -4.7533   -4.8349    7.6699 LP  0  0  0  0  0  0  0  0  0  0  0  0  # atno 4320 bound_to 2467
   -3.6850   -5.1480    8.8646 LP  0  0  0  0  0  0  0  0  0  0  0  0  # atno 4321 bound_to 2467

> <Gold.Score>
     Score     S(PLP)   S(hbond)     S(cho)   S(metal)  DE(clash)   DE(tors)     intcor
     39.06     -31.03       2.69       0.00       0.00       0.00       0.02       0.00

> <Gold.PLP.Fitness>
39.0621

> <Gold.PLP.PLP>
-31.0299

> <Gold.PLP.part.hbond>
-3.0000

> <Gold.PLP.part.metal>
0.0000

> <Gold.PLP.part.buried>
-3.0020

> <Gold.PLP.part.nonpolar>
-26.4000

> <Gold.PLP.part.repulsive>
0.7048

> <Gold.PLP.ligand.clash>
0.0000

> <Gold.PLP.ligand.torsion>
0.0160

> <Gold.PLP.Chemscore.Hbond>
2.6880

> <Gold.PLP.Chemscore.CHOScore>
0.0000

> <Gold.PLP.Chemscore.Metal>
0.0000

> <Gold.Chemscore.Hbonds>
donor molecule, donor type, donor heavy atom, donor atom, acceptor molecule, acceptor atom, score
      L1  H     3    29       P1  1227  2.00
      P1  H  3832  3841       L1    13  0.69

> <Gold.PLP.Chemscore.Internal.Correction>
0.0003

