#       Name:                EN300-1165841_i001
#       Creating user name   fsindt
#       Creation time:       Mon Feb 27 18:29:16 2023


#       File generated by GOLD software.
#

@<TRIPOS>MOLECULE
EN300-1165841_i001|acide_1|mol2|324|dock11
    29    29     1
SMALL
USER_CHARGES


@<TRIPOS>ATOM
      1 C1           0.0181 -18.0799  11.8242 C.3            1 <1>                0.0000
      2 C2           0.2625 -16.5900  12.0715 C.3            1 <1>                0.0000
      3 N3           0.6940 -15.9504  10.8215 N.4            1 <1>                1.0000
      4 C4           1.0547 -14.5527  11.0878 C.3            1 <1>                0.0000
      5 C5           1.5816 -13.9047   9.8056 C.3            1 <1>                0.0000
      6 C6           0.4932 -13.9565   8.7295 C.3            1 <1>                0.0000
      7 O7          -0.6358 -13.1907   9.1545 O.3            1 <1>                0.0000
      8 C8           0.0721 -15.4129   8.5130 C.3            1 <1>                0.0000
      9 C9          -0.3988 -16.0050   9.8431 C.3            1 <1>                0.0000
     10 C10          1.0186 -13.4022   7.4711 C.1            1 <1>                0.0000
     11 C11          1.4375 -12.9599   6.4675 C.1            1 <1>                0.0000
     12 C12          1.3349 -16.4236  13.1171 C.2            1 <1>                0.0000
     13 O13          2.4677 -16.8172  12.8966 O.co2          1 <1>                0.0000
     14 O14          1.0700 -15.8954  14.1836 O.co2          1 <1>               -1.0000
     15 H15          0.9399 -18.5465  11.4766 H              1 <1>                0.0000
     16 H16         -0.3020 -18.5545  12.7518 H              1 <1>                0.0000
     17 H17         -0.7575 -18.2003  11.0679 H              1 <1>                0.0000
     18 H18         -0.6592 -16.1233  12.4191 H              1 <1>                0.0000
     19 H19          0.1746 -14.0104  11.4333 H              1 <1>                0.0000
     20 H20          1.8270 -14.5173  11.8561 H              1 <1>                0.0000
     21 H21          1.8471 -12.8665  10.0050 H              1 <1>                0.0000
     22 H22          2.4620 -14.4462   9.4594 H              1 <1>                0.0000
     23 H23         -0.7412 -15.4528   7.7885 H              1 <1>                0.0000
     24 H24          0.9212 -15.9857   8.1399 H              1 <1>                0.0000
     25 H25         -0.6996 -17.0418   9.6926 H              1 <1>                0.0000
     26 H26         -1.2480 -15.4317  10.2151 H              1 <1>                0.0000
     27 H27          1.8122 -12.5645   5.5699 H              1 <1>                0.0000
     28 H28         -0.4336 -12.2645   9.3451 H              1 <1>                0.0000
     29 H29          1.4964 -16.4396  10.4541 H              1 <1>                0.0000
@<TRIPOS>BOND
    1    1    2 1     
    2    1   15 1     
    3    1   16 1     
    4    1   17 1     
    5    2    3 1     
    6    2   12 1     
    7    2   18 1     
    8    3    4 1     
    9    3    9 1     
   10    3   29 1     
   11    4    5 1     
   12    4   19 1     
   13    4   20 1     
   14    5    6 1     
   15    5   21 1     
   16    5   22 1     
   17    6    7 1     
   18    6    8 1     
   19    6   10 1     
   20    7   28 1     
   21    8    9 1     
   22    8   23 1     
   23    8   24 1     
   24    9   25 1     
   25    9   26 1     
   26   10   11 3     
   27   11   27 1     
   28   12   13 ar    
   29   12   14 ar    
@<TRIPOS>SUBSTRUCTURE
      1 ****           1
@<TRIPOS>SET
DONOR_HYDROGENS      STATIC     ATOMS    <user>   **** ""
2 29 28
ATOM$RED        STATIC     ATOMS    COLORGROUP SYSTEM
2 29 28
@<TRIPOS>COMMENT
> <Gold.Version>
2022.2.0

> <Gold.Id.Protein>
3pbl|protein|mol2

> <Gold.Protein.RotatedTorsions>
[ 1303 1298 1297 1294 ] final  -17.86 input  179.99 | X-H torsion
[ 2461 2456 2455 2452 ] final   88.45 input   30.03 | X-H torsion
[ 2515 2510 2509 2506 ] final  149.21 input  -89.99 | X-H torsion
[ 3721 3712 3711 3710 ] final -169.56 input -179.91 | X-H torsion
[ 3841 3832 3831 3830 ] final  159.08 input -179.91 | X-H torsion
[ 3767 3762 3761 3758 ] final  146.07 input  -89.99 | X-H torsion
[ 2472 2467 2466 2463 ] final  101.45 input  -89.97 | X-H torsion

> <Gold.Protein.ActiveResidues>
 VAL82   VAL86   LEU89   PHE106  VAL107  ASP110  VAL111  MET112  CYS114  THR115 
 CYS181  SER182  ILE183  PHE188  VAL189  ILE190  SER192  SER193  SER196  TRP342 
 PHE345  PHE346  HIS349  VAL350  TYR365  THR369  GLY372  TYR373 

> <Gold.Protein.RotatedAtoms>
    3.3313   -9.6195    3.9111 H   0  0  0  0  0  0  0  0  0  0  0  0  # atno 1303 bound_to 1298
    2.1324   -8.2811    7.7042 H   0  0  0  0  0  0  0  0  0  0  0  0  # atno 2461 bound_to 2456
   -5.2444   -4.9742    7.9041 H   0  0  0  0  0  0  0  0  0  0  0  0  # atno 2472 bound_to 2467
    2.1401   -8.6310    6.0701 H   0  0  0  0  0  0  0  0  0  0  0  0  # atno 2515 bound_to 2510
   -3.3367  -16.5584   13.6956 H   0  0  0  0  0  0  0  0  0  0  0  0  # atno 3721 bound_to 3712
   -3.9111  -22.9417   11.2471 H   0  0  0  0  0  0  0  0  0  0  0  0  # atno 3767 bound_to 3762
    3.0943  -20.2977    8.5486 H   0  0  0  0  0  0  0  0  0  0  0  0  # atno 3841 bound_to 3832
    4.4681   -8.5026    4.2670 LP  0  0  0  0  0  0  0  0  0  0  0  0  # atno 4297 bound_to 1298
    4.5630   -9.9991    4.9137 LP  0  0  0  0  0  0  0  0  0  0  0  0  # atno 4298 bound_to 1298
    0.6045   -8.2388    7.1286 LP  0  0  0  0  0  0  0  0  0  0  0  0  # atno 4299 bound_to 2456
    1.0011   -9.2882    8.3153 LP  0  0  0  0  0  0  0  0  0  0  0  0  # atno 4300 bound_to 2456
    2.3373   -7.4259    4.9863 LP  0  0  0  0  0  0  0  0  0  0  0  0  # atno 4301 bound_to 2510
    2.8194   -8.9421    4.6184 LP  0  0  0  0  0  0  0  0  0  0  0  0  # atno 4302 bound_to 2510
   -2.7972  -17.9982   13.2334 LP  0  0  0  0  0  0  0  0  0  0  0  0  # atno 4306 bound_to 3712
   -2.8781  -17.6111   14.8178 LP  0  0  0  0  0  0  0  0  0  0  0  0  # atno 4307 bound_to 3712
    2.0581  -21.0283    9.5327 LP  0  0  0  0  0  0  0  0  0  0  0  0  # atno 4314 bound_to 3832
    1.5968  -19.7301    8.6560 LP  0  0  0  0  0  0  0  0  0  0  0  0  # atno 4315 bound_to 3832
   -5.0341  -23.0175   10.0638 LP  0  0  0  0  0  0  0  0  0  0  0  0  # atno 4318 bound_to 3762
   -5.1818  -21.9160   11.2603 LP  0  0  0  0  0  0  0  0  0  0  0  0  # atno 4319 bound_to 3762
   -3.6700   -4.9561    8.3368 LP  0  0  0  0  0  0  0  0  0  0  0  0  # atno 4320 bound_to 2467
   -4.8027   -5.4632    9.3981 LP  0  0  0  0  0  0  0  0  0  0  0  0  # atno 4321 bound_to 2467

> <Gold.Score>
     Score     S(PLP)   S(hbond)     S(cho)   S(metal)  DE(clash)   DE(tors)     intcor
     38.83     -29.96       2.99       0.00       0.00       0.00       0.06       0.00

> <Gold.PLP.Fitness>
38.8250

> <Gold.PLP.PLP>
-29.9637

> <Gold.PLP.part.hbond>
-2.0000

> <Gold.PLP.part.metal>
0.0000

> <Gold.PLP.part.buried>
-4.7638

> <Gold.PLP.part.nonpolar>
-23.4846

> <Gold.PLP.part.repulsive>
0.1016

> <Gold.PLP.ligand.clash>
0.0000

> <Gold.PLP.ligand.torsion>
0.0563

> <Gold.PLP.Chemscore.Hbond>
2.9913

> <Gold.PLP.Chemscore.CHOScore>
0.0000

> <Gold.PLP.Chemscore.Metal>
0.0000

> <Gold.Chemscore.Hbonds>
donor molecule, donor type, donor heavy atom, donor atom, acceptor molecule, acceptor atom, score
      L1  H     3    29       P1  1227  2.00
      P1  H  2305  2313       L1    14  0.99

> <Gold.PLP.Chemscore.Internal.Correction>
0.0003

