#       Name:                EN300-1165841_i001
#       Creating user name   fsindt
#       Creation time:       Mon Feb 27 18:29:14 2023


#       File generated by GOLD software.
#

@<TRIPOS>MOLECULE
EN300-1165841_i001|acide_1|mol2|324|dock8
    29    29     1
SMALL
USER_CHARGES


@<TRIPOS>ATOM
      1 C1          -0.3818 -16.2066  13.0329 C.3            1 <1>                0.0000
      2 C2           0.5537 -17.0485  12.1630 C.3            1 <1>                0.0000
      3 N3           0.8362 -16.3319  10.9121 N.4            1 <1>                1.0000
      4 C4           1.3775 -15.0033  11.2225 C.3            1 <1>                0.0000
      5 C5           1.7491 -14.2837   9.9243 C.3            1 <1>                0.0000
      6 C6           0.4985 -14.1361   9.0529 C.3            1 <1>                0.0000
      7 O7          -0.4601 -13.3187   9.7273 O.3            1 <1>                0.0000
      8 C8          -0.1000 -15.5224   8.7972 C.3            1 <1>                0.0000
      9 C9          -0.4031 -16.1961  10.1373 C.3            1 <1>                0.0000
     10 C10          0.8628 -13.5114   7.7707 C.1            1 <1>                0.0000
     11 C11          1.1533 -13.0132   6.7481 C.1            1 <1>                0.0000
     12 C12         -0.1037 -18.3676  11.8488 C.2            1 <1>                0.0000
     13 O13          0.4584 -19.1718  11.1250 O.co2          1 <1>                0.0000
     14 O14         -1.1977 -18.6307  12.3184 O.co2          1 <1>               -1.0000
     15 H15         -1.3145 -16.0293  12.4972 H              1 <1>                0.0000
     16 H16         -0.5915 -16.7383  13.9611 H              1 <1>                0.0000
     17 H17          0.0937 -15.2526  13.2601 H              1 <1>                0.0000
     18 H18          1.4864 -17.2259  12.6986 H              1 <1>                0.0000
     19 H19          0.6271 -14.4217  11.7579 H              1 <1>                0.0000
     20 H20          2.2657 -15.1099  11.8454 H              1 <1>                0.0000
     21 H21          2.1492 -13.2968  10.1568 H              1 <1>                0.0000
     22 H22          2.4998 -14.8644   9.3882 H              1 <1>                0.0000
     23 H23         -1.0217 -15.4209   8.2242 H              1 <1>                0.0000
     24 H24          0.6123 -16.1288   8.2378 H              1 <1>                0.0000
     25 H25         -0.8295 -17.1832   9.9589 H              1 <1>                0.0000
     26 H26         -1.1156 -15.5891  10.6957 H              1 <1>                0.0000
     27 H27          1.4132 -12.5677   5.8336 H              1 <1>                0.0000
     28 H28         -0.1099 -12.4694  10.0291 H              1 <1>                0.0000
     29 H29          1.5122 -16.8519  10.3731 H              1 <1>                0.0000
@<TRIPOS>BOND
    1    1    2 1     
    2    1   15 1     
    3    1   16 1     
    4    1   17 1     
    5    2    3 1     
    6    2   12 1     
    7    2   18 1     
    8    3    4 1     
    9    3    9 1     
   10    3   29 1     
   11    4    5 1     
   12    4   19 1     
   13    4   20 1     
   14    5    6 1     
   15    5   21 1     
   16    5   22 1     
   17    6    7 1     
   18    6    8 1     
   19    6   10 1     
   20    7   28 1     
   21    8    9 1     
   22    8   23 1     
   23    8   24 1     
   24    9   25 1     
   25    9   26 1     
   26   10   11 3     
   27   11   27 1     
   28   12   13 ar    
   29   12   14 ar    
@<TRIPOS>SUBSTRUCTURE
      1 ****           1
@<TRIPOS>SET
DONOR_HYDROGENS      STATIC     ATOMS    <user>   **** ""
2 29 28
ATOM$RED        STATIC     ATOMS    COLORGROUP SYSTEM
2 29 28
@<TRIPOS>COMMENT
> <Gold.Version>
2022.2.0

> <Gold.Id.Protein>
3pbl|protein|mol2

> <Gold.Protein.RotatedTorsions>
[ 1303 1298 1297 1294 ] final -131.23 input  179.99 | X-H torsion
[ 2461 2456 2455 2452 ] final -101.99 input   30.03 | X-H torsion
[ 2515 2510 2509 2506 ] final   37.53 input  -89.99 | X-H torsion
[ 3721 3712 3711 3710 ] final   63.95 input -179.91 | X-H torsion
[ 3841 3832 3831 3830 ] final  -25.56 input -179.91 | X-H torsion
[ 3767 3762 3761 3758 ] final -174.15 input  -89.99 | X-H torsion
[ 2472 2467 2466 2463 ] final  -97.56 input  -89.97 | X-H torsion

> <Gold.Protein.ActiveResidues>
 VAL82   VAL86   LEU89   PHE106  VAL107  ASP110  VAL111  MET112  CYS114  THR115 
 CYS181  SER182  ILE183  PHE188  VAL189  ILE190  SER192  SER193  SER196  TRP342 
 PHE345  PHE346  HIS349  VAL350  TYR365  THR369  GLY372  TYR373 

> <Gold.Protein.RotatedAtoms>
    4.3834   -8.4832    4.2012 H   0  0  0  0  0  0  0  0  0  0  0  0  # atno 1303 bound_to 1298
    0.4156   -9.0288    7.8519 H   0  0  0  0  0  0  0  0  0  0  0  0  # atno 2461 bound_to 2456
   -4.1498   -5.3759    9.3529 H   0  0  0  0  0  0  0  0  0  0  0  0  # atno 2472 bound_to 2467
    2.2817   -7.4098    5.1104 H   0  0  0  0  0  0  0  0  0  0  0  0  # atno 2515 bound_to 2510
   -2.6127  -17.8775   13.3371 H   0  0  0  0  0  0  0  0  0  0  0  0  # atno 3721 bound_to 3712
   -4.1504  -22.4613   11.5988 H   0  0  0  0  0  0  0  0  0  0  0  0  # atno 3767 bound_to 3762
    1.5829  -20.1835    9.3823 H   0  0  0  0  0  0  0  0  0  0  0  0  # atno 3841 bound_to 3832
    4.6357   -9.9206    4.9337 LP  0  0  0  0  0  0  0  0  0  0  0  0  # atno 4297 bound_to 1298
    3.3430   -9.7178    3.9567 LP  0  0  0  0  0  0  0  0  0  0  0  0  # atno 4298 bound_to 1298
    1.9950   -8.8552    8.2298 LP  0  0  0  0  0  0  0  0  0  0  0  0  # atno 4299 bound_to 2456
    1.3268   -7.9242    7.0665 LP  0  0  0  0  0  0  0  0  0  0  0  0  # atno 4300 bound_to 2456
    2.8319   -8.8350    4.5342 LP  0  0  0  0  0  0  0  0  0  0  0  0  # atno 4301 bound_to 2510
    2.1833   -8.7548    6.0307 LP  0  0  0  0  0  0  0  0  0  0  0  0  # atno 4302 bound_to 2510
   -2.9520  -17.4766   14.8544 LP  0  0  0  0  0  0  0  0  0  0  0  0  # atno 4306 bound_to 3712
   -3.5592  -16.6098   13.6107 LP  0  0  0  0  0  0  0  0  0  0  0  0  # atno 4307 bound_to 3712
    2.5276  -19.8004    8.1426 LP  0  0  0  0  0  0  0  0  0  0  0  0  # atno 4314 bound_to 3832
    2.8733  -21.0899    9.0831 LP  0  0  0  0  0  0  0  0  0  0  0  0  # atno 4315 bound_to 3832
   -4.4897  -23.3057   10.2428 LP  0  0  0  0  0  0  0  0  0  0  0  0  # atno 4318 bound_to 3762
   -5.4871  -22.1080   10.7297 LP  0  0  0  0  0  0  0  0  0  0  0  0  # atno 4319 bound_to 3762
   -5.5086   -5.2041    8.4637 LP  0  0  0  0  0  0  0  0  0  0  0  0  # atno 4320 bound_to 2467
   -4.0584   -4.8135    7.8226 LP  0  0  0  0  0  0  0  0  0  0  0  0  # atno 4321 bound_to 2467

> <Gold.Score>
     Score     S(PLP)   S(hbond)     S(cho)   S(metal)  DE(clash)   DE(tors)     intcor
     39.81     -29.42       3.49       0.00       0.00       0.00       0.04       0.00

> <Gold.PLP.Fitness>
39.8112

> <Gold.PLP.PLP>
-29.4191

> <Gold.PLP.part.hbond>
-2.3184

> <Gold.PLP.part.metal>
0.0000

> <Gold.PLP.part.buried>
-3.4288

> <Gold.PLP.part.nonpolar>
-25.1305

> <Gold.PLP.part.repulsive>
0.2849

> <Gold.PLP.ligand.clash>
0.0000

> <Gold.PLP.ligand.torsion>
0.0353

> <Gold.PLP.Chemscore.Hbond>
3.4875

> <Gold.PLP.Chemscore.CHOScore>
0.0000

> <Gold.PLP.Chemscore.Metal>
0.0000

> <Gold.Chemscore.Hbonds>
donor molecule, donor type, donor heavy atom, donor atom, acceptor molecule, acceptor atom, score
      L1  H     3    29       P1  1227  2.00
      P1  H  3712  3721       L1    14  1.00
      P1  H  3832  3841       L1    13  0.49

> <Gold.PLP.Chemscore.Internal.Correction>
0.0003

