#       Name:                EN300-1165841_i001
#       Creating user name   fsindt
#       Creation time:       Mon Feb 27 18:29:08 2023


#       File generated by GOLD software.
#

@<TRIPOS>MOLECULE
EN300-1165841_i001|acide_1|mol2|324|dock1
    29    29     1
SMALL
USER_CHARGES


@<TRIPOS>ATOM
      1 C1           2.5866 -17.1489  13.3691 C.3            1 <1>                0.0000
      2 C2           1.2000 -17.1878  12.7235 C.3            1 <1>                0.0000
      3 N3           1.2375 -16.4751  11.4395 N.4            1 <1>                1.0000
      4 C4           1.7462 -15.1146  11.6514 C.3            1 <1>                0.0000
      5 C5           1.8638 -14.3946  10.3063 C.3            1 <1>                0.0000
      6 C6           0.4832 -14.3281   9.6468 C.3            1 <1>                0.0000
      7 O7          -0.3991 -13.5545  10.4622 O.3            1 <1>                0.0000
      8 C8          -0.0698 -15.7485   9.4984 C.3            1 <1>                0.0000
      9 C9          -0.1156 -16.4182  10.8735 C.3            1 <1>                0.0000
     10 C10          0.6015 -13.7031   8.3193 C.1            1 <1>                0.0000
     11 C11          0.6958 -13.2047   7.2605 C.1            1 <1>                0.0000
     12 C12          0.2017 -16.5248  13.6371 C.2            1 <1>                0.0000
     13 O13         -0.9924 -16.7036  13.4676 O.co2          1 <1>                0.0000
     14 O14          0.5879 -15.8096  14.5459 O.co2          1 <1>               -1.0000
     15 H15          2.8801 -16.1126  13.5371 H              1 <1>                0.0000
     16 H16          2.5588 -17.6776  14.3218 H              1 <1>                0.0000
     17 H17          3.3087 -17.6283  12.7083 H              1 <1>                0.0000
     18 H18          0.9064 -18.2240  12.5554 H              1 <1>                0.0000
     19 H19          1.0599 -14.5670  12.2974 H              1 <1>                0.0000
     20 H20          2.7273 -15.1636  12.1237 H              1 <1>                0.0000
     21 H21          2.2399 -13.3842  10.4660 H              1 <1>                0.0000
     22 H22          2.5501 -14.9414   9.6596 H              1 <1>                0.0000
     23 H23         -1.0756 -15.7057   9.0807 H              1 <1>                0.0000
     24 H24          0.5765 -16.3232   8.8350 H              1 <1>                0.0000
     25 H25         -0.5091 -17.4296  10.7716 H              1 <1>                0.0000
     26 H26         -0.7623 -15.8429  11.5360 H              1 <1>                0.0000
     27 H27          0.7803 -12.7589   6.3137 H              1 <1>                0.0000
     28 H28         -0.0841 -13.4222  11.3669 H              1 <1>                0.0000
     29 H29          1.8464 -16.9652  10.8016 H              1 <1>                0.0000
@<TRIPOS>BOND
    1    1    2 1     
    2    1   15 1     
    3    1   16 1     
    4    1   17 1     
    5    2    3 1     
    6    2   12 1     
    7    2   18 1     
    8    3    4 1     
    9    3    9 1     
   10    3   29 1     
   11    4    5 1     
   12    4   19 1     
   13    4   20 1     
   14    5    6 1     
   15    5   21 1     
   16    5   22 1     
   17    6    7 1     
   18    6    8 1     
   19    6   10 1     
   20    7   28 1     
   21    8    9 1     
   22    8   23 1     
   23    8   24 1     
   24    9   25 1     
   25    9   26 1     
   26   10   11 3     
   27   11   27 1     
   28   12   13 ar    
   29   12   14 ar    
@<TRIPOS>SUBSTRUCTURE
      1 ****           1
@<TRIPOS>SET
DONOR_HYDROGENS      STATIC     ATOMS    <user>   **** ""
2 29 28
ATOM$RED        STATIC     ATOMS    COLORGROUP SYSTEM
2 29 28
@<TRIPOS>COMMENT
> <Gold.Version>
2022.2.0

> <Gold.Id.Protein>
3pbl|protein|mol2

> <Gold.Protein.RotatedTorsions>
[ 1303 1298 1297 1294 ] final   73.05 input  179.99 | X-H torsion
[ 2461 2456 2455 2452 ] final   91.61 input   30.03 | X-H torsion
[ 2515 2510 2509 2506 ] final  161.92 input  -89.99 | X-H torsion
[ 3721 3712 3711 3710 ] final   82.83 input -179.91 | X-H torsion
[ 3841 3832 3831 3830 ] final   -2.80 input -179.91 | X-H torsion
[ 3767 3762 3761 3758 ] final  -11.34 input  -89.99 | X-H torsion
[ 2472 2467 2466 2463 ] final -129.10 input  -89.97 | X-H torsion

> <Gold.Protein.ActiveResidues>
 VAL82   VAL86   LEU89   PHE106  VAL107  ASP110  VAL111  MET112  CYS114  THR115 
 CYS181  SER182  ILE183  PHE188  VAL189  ILE190  SER192  SER193  SER196  TRP342 
 PHE345  PHE346  HIS349  VAL350  TYR365  THR369  GLY372  TYR373 

> <Gold.Protein.RotatedAtoms>
    4.1878  -10.2335    4.7445 H   0  0  0  0  0  0  0  0  0  0  0  0  # atno 1303 bound_to 1298
    2.1437   -8.3150    7.7420 H   0  0  0  0  0  0  0  0  0  0  0  0  # atno 2461 bound_to 2456
   -4.6502   -5.4578    9.4274 H   0  0  0  0  0  0  0  0  0  0  0  0  # atno 2472 bound_to 2467
    2.2085   -8.8163    6.0027 H   0  0  0  0  0  0  0  0  0  0  0  0  # atno 2515 bound_to 2510
   -2.7327  -17.6967   13.1536 H   0  0  0  0  0  0  0  0  0  0  0  0  # atno 3721 bound_to 3712
   -5.4126  -22.5763   10.2310 H   0  0  0  0  0  0  0  0  0  0  0  0  # atno 3767 bound_to 3762
    1.7133  -20.4545    9.5442 H   0  0  0  0  0  0  0  0  0  0  0  0  # atno 3841 bound_to 3832
    3.4044   -9.1685    3.7862 LP  0  0  0  0  0  0  0  0  0  0  0  0  # atno 4297 bound_to 1298
    4.7700   -8.7190    4.5607 LP  0  0  0  0  0  0  0  0  0  0  0  0  # atno 4298 bound_to 1298
    0.6415   -8.2073    7.1100 LP  0  0  0  0  0  0  0  0  0  0  0  0  # atno 4299 bound_to 2456
    0.9528   -9.2858    8.2961 LP  0  0  0  0  0  0  0  0  0  0  0  0  # atno 4300 bound_to 2456
    2.2533   -7.4086    5.1767 LP  0  0  0  0  0  0  0  0  0  0  0  0  # atno 4301 bound_to 2510
    2.8350   -8.7740    4.4955 LP  0  0  0  0  0  0  0  0  0  0  0  0  # atno 4302 bound_to 2510
   -2.8101  -17.7393   14.7568 LP  0  0  0  0  0  0  0  0  0  0  0  0  # atno 4306 bound_to 3712
   -3.5626  -16.5559   13.9202 LP  0  0  0  0  0  0  0  0  0  0  0  0  # atno 4307 bound_to 3712
    2.1868  -19.6631    8.2307 LP  0  0  0  0  0  0  0  0  0  0  0  0  # atno 4314 bound_to 3832
    3.0634  -20.9141    8.8080 LP  0  0  0  0  0  0  0  0  0  0  0  0  # atno 4315 bound_to 3832
   -4.6910  -22.0354   11.5924 LP  0  0  0  0  0  0  0  0  0  0  0  0  # atno 4318 bound_to 3762
   -4.0240  -23.2633   10.7474 LP  0  0  0  0  0  0  0  0  0  0  0  0  # atno 4319 bound_to 3762
   -5.3427   -5.0237    8.0137 LP  0  0  0  0  0  0  0  0  0  0  0  0  # atno 4320 bound_to 2467
   -3.7240   -4.9121    8.1982 LP  0  0  0  0  0  0  0  0  0  0  0  0  # atno 4321 bound_to 2467

> <Gold.Score>
     Score     S(PLP)   S(hbond)     S(cho)   S(metal)  DE(clash)   DE(tors)     intcor
     41.03     -32.40       3.18       0.00       0.00       0.00       0.45       0.00

> <Gold.PLP.Fitness>
41.0274

> <Gold.PLP.PLP>
-32.3980

> <Gold.PLP.part.hbond>
-2.7638

> <Gold.PLP.part.metal>
0.0000

> <Gold.PLP.part.buried>
-3.2887

> <Gold.PLP.part.nonpolar>
-26.8246

> <Gold.PLP.part.repulsive>
0.1132

> <Gold.PLP.ligand.clash>
0.0000

> <Gold.PLP.ligand.torsion>
0.4497

> <Gold.PLP.Chemscore.Hbond>
3.1760

> <Gold.PLP.Chemscore.CHOScore>
0.0000

> <Gold.PLP.Chemscore.Metal>
0.0000

> <Gold.Chemscore.Hbonds>
donor molecule, donor type, donor heavy atom, donor atom, acceptor molecule, acceptor atom, score
      L1  H     3    29       P1  1227  2.00
      P1  H  2305  2313       L1    14  1.00
      P1  H  3712  3721       L1    13  0.18

> <Gold.PLP.Chemscore.Internal.Correction>
0.0008

