#       Name:                EN300-1165841_i001
#       Creating user name   fsindt
#       Creation time:       Mon Feb 27 18:29:13 2023


#       File generated by GOLD software.
#

@<TRIPOS>MOLECULE
EN300-1165841_i001|acide_1|mol2|324|dock7
    29    29     1
SMALL
USER_CHARGES


@<TRIPOS>ATOM
      1 C1           0.9292 -14.9156  10.6732 C.3            1 <1>                0.0000
      2 C2           0.8430 -13.8618   9.5673 C.3            1 <1>                0.0000
      3 N3          -0.4583 -13.1839   9.6372 N.4            1 <1>                1.0000
      4 C4          -0.4627 -12.0402   8.7171 C.3            1 <1>                0.0000
      5 C5          -1.8425 -11.3789   8.7258 C.3            1 <1>                0.0000
      6 C6          -2.1625 -10.8966  10.1436 C.3            1 <1>                0.0000
      7 O7          -1.2160  -9.8999  10.5342 O.3            1 <1>                0.0000
      8 C8          -2.0822 -12.0845  11.1067 C.3            1 <1>                0.0000
      9 C9          -0.6933 -12.7197  11.0097 C.3            1 <1>                0.0000
     10 C10         -3.5192 -10.3263  10.1750 C.1            1 <1>                0.0000
     11 C11         -4.6012  -9.8715  10.2000 C.1            1 <1>                0.0000
     12 C12          0.9900 -14.5297   8.2244 C.2            1 <1>                0.0000
     13 O13          0.3991 -15.5709   7.9935 O.co2          1 <1>                0.0000
     14 O14          1.6997 -14.0288   7.3688 O.co2          1 <1>               -1.0000
     15 H15          0.1312 -15.6464  10.5416 H              1 <1>                0.0000
     16 H16          1.8947 -15.4187  10.6213 H              1 <1>                0.0000
     17 H17          0.8228 -14.4325  11.6445 H              1 <1>                0.0000
     18 H18          1.6410 -13.1310   9.6988 H              1 <1>                0.0000
     19 H19          0.2885 -11.3167   9.0339 H              1 <1>                0.0000
     20 H20         -0.2316 -12.3847   7.7091 H              1 <1>                0.0000
     21 H21         -1.8431 -10.5290   8.0434 H              1 <1>                0.0000
     22 H22         -2.5945 -12.1017   8.4088 H              1 <1>                0.0000
     23 H23         -2.2540 -11.7390  12.1260 H              1 <1>                0.0000
     24 H24         -2.8391 -12.8218  10.8391 H              1 <1>                0.0000
     25 H25         -0.6326 -13.5657  11.6943 H              1 <1>                0.0000
     26 H26          0.0627 -11.9817  11.2778 H              1 <1>                0.0000
     27 H27         -5.5689  -9.4646  10.2224 H              1 <1>                0.0000
     28 H28         -1.5775  -9.0034  10.5617 H              1 <1>                0.0000
     29 H29         -1.1874 -13.8294   9.3732 H              1 <1>                0.0000
@<TRIPOS>BOND
    1    1    2 1     
    2    1   15 1     
    3    1   16 1     
    4    1   17 1     
    5    2    3 1     
    6    2   12 1     
    7    2   18 1     
    8    3    4 1     
    9    3    9 1     
   10    3   29 1     
   11    4    5 1     
   12    4   19 1     
   13    4   20 1     
   14    5    6 1     
   15    5   21 1     
   16    5   22 1     
   17    6    7 1     
   18    6    8 1     
   19    6   10 1     
   20    7   28 1     
   21    8    9 1     
   22    8   23 1     
   23    8   24 1     
   24    9   25 1     
   25    9   26 1     
   26   10   11 3     
   27   11   27 1     
   28   12   13 ar    
   29   12   14 ar    
@<TRIPOS>SUBSTRUCTURE
      1 ****           1
@<TRIPOS>SET
DONOR_HYDROGENS      STATIC     ATOMS    <user>   **** ""
2 29 28
ATOM$RED        STATIC     ATOMS    COLORGROUP SYSTEM
2 29 28
@<TRIPOS>COMMENT
> <Gold.Version>
2022.2.0

> <Gold.Id.Protein>
3pbl|protein|mol2

> <Gold.Protein.RotatedTorsions>
[ 1303 1298 1297 1294 ] final -176.24 input  179.99 | X-H torsion
[ 2461 2456 2455 2452 ] final -172.25 input   30.03 | X-H torsion
[ 2515 2510 2509 2506 ] final  167.04 input  -89.99 | X-H torsion
[ 3721 3712 3711 3710 ] final  -35.38 input -179.91 | X-H torsion
[ 3841 3832 3831 3830 ] final   81.78 input -179.91 | X-H torsion
[ 3767 3762 3761 3758 ] final -166.21 input  -89.99 | X-H torsion
[ 2472 2467 2466 2463 ] final   67.81 input  -89.97 | X-H torsion

> <Gold.Protein.ActiveResidues>
 VAL82   VAL86   LEU89   PHE106  VAL107  ASP110  VAL111  MET112  CYS114  THR115 
 CYS181  SER182  ILE183  PHE188  VAL189  ILE190  SER192  SER193  SER196  TRP342 
 PHE345  PHE346  HIS349  VAL350  TYR365  THR369  GLY372  TYR373 

> <Gold.Protein.RotatedAtoms>
    4.8340   -8.8269    4.6478 H   0  0  0  0  0  0  0  0  0  0  0  0  # atno 1303 bound_to 1298
    1.3287   -9.2527    8.3943 H   0  0  0  0  0  0  0  0  0  0  0  0  # atno 2461 bound_to 2456
   -4.7696   -4.8384    7.6722 H   0  0  0  0  0  0  0  0  0  0  0  0  # atno 2472 bound_to 2467
    2.2394   -8.8847    5.9645 H   0  0  0  0  0  0  0  0  0  0  0  0  # atno 2515 bound_to 2510
   -2.6338  -17.6393   14.6358 H   0  0  0  0  0  0  0  0  0  0  0  0  # atno 3721 bound_to 3712
   -4.2353  -22.3673   11.6305 H   0  0  0  0  0  0  0  0  0  0  0  0  # atno 3767 bound_to 3762
    2.7500  -20.9462    9.3425 H   0  0  0  0  0  0  0  0  0  0  0  0  # atno 3841 bound_to 3832
    4.0599  -10.2645    4.6670 LP  0  0  0  0  0  0  0  0  0  0  0  0  # atno 4297 bound_to 1298
    3.4679   -9.0302    3.7767 LP  0  0  0  0  0  0  0  0  0  0  0  0  # atno 4298 bound_to 1298
    1.9940   -8.0878    7.4628 LP  0  0  0  0  0  0  0  0  0  0  0  0  # atno 4299 bound_to 2456
    0.4151   -8.4678    7.2913 LP  0  0  0  0  0  0  0  0  0  0  0  0  # atno 4300 bound_to 2456
    2.2217   -7.4145    5.2545 LP  0  0  0  0  0  0  0  0  0  0  0  0  # atno 4301 bound_to 2510
    2.8357   -8.6997    4.4559 LP  0  0  0  0  0  0  0  0  0  0  0  0  # atno 4302 bound_to 2510
   -3.5639  -16.5566   13.9006 LP  0  0  0  0  0  0  0  0  0  0  0  0  # atno 4306 bound_to 3712
   -2.9230  -17.8048   13.0652 LP  0  0  0  0  0  0  0  0  0  0  0  0  # atno 4307 bound_to 3712
    1.3896  -20.1203    9.1337 LP  0  0  0  0  0  0  0  0  0  0  0  0  # atno 4314 bound_to 3832
    2.6631  -19.8889    8.1380 LP  0  0  0  0  0  0  0  0  0  0  0  0  # atno 4315 bound_to 3832
   -4.3852  -23.3274   10.3181 LP  0  0  0  0  0  0  0  0  0  0  0  0  # atno 4318 bound_to 3762
   -5.5067  -22.1802   10.6228 LP  0  0  0  0  0  0  0  0  0  0  0  0  # atno 4319 bound_to 3762
   -3.6797   -5.1420    8.8497 LP  0  0  0  0  0  0  0  0  0  0  0  0  # atno 4320 bound_to 2467
   -5.2677   -5.4131    9.1171 LP  0  0  0  0  0  0  0  0  0  0  0  0  # atno 4321 bound_to 2467

> <Gold.Score>
     Score     S(PLP)   S(hbond)     S(cho)   S(metal)  DE(clash)   DE(tors)     intcor
     41.42     -42.44       0.00       0.00       0.00       0.00       0.51       0.00

> <Gold.PLP.Fitness>
41.4243

> <Gold.PLP.PLP>
-42.4394

> <Gold.PLP.part.hbond>
0.0000

> <Gold.PLP.part.metal>
0.0000

> <Gold.PLP.part.buried>
-5.7676

> <Gold.PLP.part.nonpolar>
-37.5012

> <Gold.PLP.part.repulsive>
0.3325

> <Gold.PLP.ligand.clash>
0.0000

> <Gold.PLP.ligand.torsion>
0.5077

> <Gold.PLP.Chemscore.Hbond>
0.0000

> <Gold.PLP.Chemscore.CHOScore>
0.0000

> <Gold.PLP.Chemscore.Metal>
0.0000

> <Gold.PLP.Chemscore.Internal.Correction>
0.0003

