#       Name:                EN300-1165841_i001
#       Creating user name   fsindt
#       Creation time:       Mon Feb 27 18:29:22 2023


#       File generated by GOLD software.
#

@<TRIPOS>MOLECULE
EN300-1165841_i001|acide_1|mol2|324|dock17
    29    29     1
SMALL
USER_CHARGES


@<TRIPOS>ATOM
      1 C1           2.2567 -16.4697  12.8580 C.3            1 <1>                0.0000
      2 C2           1.5323 -16.9489  14.1175 C.3            1 <1>                0.0000
      3 N3           1.6413 -18.4103  14.2191 N.4            1 <1>                1.0000
      4 C4           1.2081 -19.0207  12.9564 C.3            1 <1>                0.0000
      5 C5           1.3960 -20.5376  13.0279 C.3            1 <1>                0.0000
      6 C6           0.5575 -21.0966  14.1811 C.3            1 <1>                0.0000
      7 O7          -0.8276 -20.8560  13.9251 O.3            1 <1>                0.0000
      8 C8           0.9667 -20.3992  15.4816 C.3            1 <1>                0.0000
      9 C9           0.7947 -18.8873  15.3191 C.3            1 <1>                0.0000
     10 C10          0.7912 -22.5448  14.3027 C.1            1 <1>                0.0000
     11 C11          0.9776 -23.6999  14.3997 C.1            1 <1>                0.0000
     12 C12          0.0790 -16.5577  14.0408 C.2            1 <1>                0.0000
     13 O13         -0.4050 -15.8391  14.8987 O.co2          1 <1>                0.0000
     14 O14         -0.6129 -16.9597  13.1209 O.co2          1 <1>               -1.0000
     15 H15          1.8024 -16.9298  11.9804 H              1 <1>                0.0000
     16 H16          2.1758 -15.3853  12.7826 H              1 <1>                0.0000
     17 H17          3.3078 -16.7526  12.9135 H              1 <1>                0.0000
     18 H18          1.9865 -16.4888  14.9952 H              1 <1>                0.0000
     19 H19          0.1559 -18.7930  12.7855 H              1 <1>                0.0000
     20 H20          1.8036 -18.6195  12.1363 H              1 <1>                0.0000
     21 H21          1.0721 -20.9891  12.0902 H              1 <1>                0.0000
     22 H22          2.4480 -20.7664  13.1985 H              1 <1>                0.0000
     23 H23          0.3360 -20.7516  16.2977 H              1 <1>                0.0000
     24 H24          2.0097 -20.6251  15.7031 H              1 <1>                0.0000
     25 H25          1.0849 -18.3877  16.2434 H              1 <1>                0.0000
     26 H26         -0.2487 -18.6625  15.0979 H              1 <1>                0.0000
     27 H27          1.1443 -24.7329  14.4864 H              1 <1>                0.0000
     28 H28         -1.0191 -20.5899  13.0153 H              1 <1>                0.0000
     29 H29          2.6008 -18.6631  14.4019 H              1 <1>                0.0000
@<TRIPOS>BOND
    1    1    2 1     
    2    1   15 1     
    3    1   16 1     
    4    1   17 1     
    5    2    3 1     
    6    2   12 1     
    7    2   18 1     
    8    3    4 1     
    9    3    9 1     
   10    3   29 1     
   11    4    5 1     
   12    4   19 1     
   13    4   20 1     
   14    5    6 1     
   15    5   21 1     
   16    5   22 1     
   17    6    7 1     
   18    6    8 1     
   19    6   10 1     
   20    7   28 1     
   21    8    9 1     
   22    8   23 1     
   23    8   24 1     
   24    9   25 1     
   25    9   26 1     
   26   10   11 3     
   27   11   27 1     
   28   12   13 ar    
   29   12   14 ar    
@<TRIPOS>SUBSTRUCTURE
      1 ****           1
@<TRIPOS>SET
DONOR_HYDROGENS      STATIC     ATOMS    <user>   **** ""
2 29 28
ATOM$RED        STATIC     ATOMS    COLORGROUP SYSTEM
2 29 28
@<TRIPOS>COMMENT
> <Gold.Version>
2022.2.0

> <Gold.Id.Protein>
3pbl|protein|mol2

> <Gold.Protein.RotatedTorsions>
[ 1303 1298 1297 1294 ] final  129.19 input  179.99 | X-H torsion
[ 2461 2456 2455 2452 ] final  -83.70 input   30.03 | X-H torsion
[ 2515 2510 2509 2506 ] final    5.54 input  -89.99 | X-H torsion
[ 3721 3712 3711 3710 ] final   86.38 input -179.91 | X-H torsion
[ 3841 3832 3831 3830 ] final   68.31 input -179.91 | X-H torsion
[ 3767 3762 3761 3758 ] final  104.21 input  -89.99 | X-H torsion
[ 2472 2467 2466 2463 ] final -145.37 input  -89.97 | X-H torsion

> <Gold.Protein.ActiveResidues>
 VAL82   VAL86   LEU89   PHE106  VAL107  ASP110  VAL111  MET112  CYS114  THR115 
 CYS181  SER182  ILE183  PHE188  VAL189  ILE190  SER192  SER193  SER196  TRP342 
 PHE345  PHE346  HIS349  VAL350  TYR365  THR369  GLY372  TYR373 

> <Gold.Protein.RotatedAtoms>
    4.8126   -9.6372    4.9473 H   0  0  0  0  0  0  0  0  0  0  0  0  # atno 1303 bound_to 1298
    0.3365   -8.8385    7.6342 H   0  0  0  0  0  0  0  0  0  0  0  0  # atno 2461 bound_to 2456
   -4.9090   -5.4628    9.3622 H   0  0  0  0  0  0  0  0  0  0  0  0  # atno 2472 bound_to 2467
    2.5029   -7.5745    4.6703 H   0  0  0  0  0  0  0  0  0  0  0  0  # atno 2515 bound_to 2510
   -2.7578  -17.6570   13.1276 H   0  0  0  0  0  0  0  0  0  0  0  0  # atno 3721 bound_to 3712
   -4.0578  -23.2852   10.6865 H   0  0  0  0  0  0  0  0  0  0  0  0  # atno 3767 bound_to 3762
    2.5817  -20.9561    9.4555 H   0  0  0  0  0  0  0  0  0  0  0  0  # atno 3841 bound_to 3832
    3.4427   -9.9857    4.1299 LP  0  0  0  0  0  0  0  0  0  0  0  0  # atno 4297 bound_to 1298
    4.1067   -8.4983    4.0141 LP  0  0  0  0  0  0  0  0  0  0  0  0  # atno 4298 bound_to 1298
    1.7921   -9.0427    8.3462 LP  0  0  0  0  0  0  0  0  0  0  0  0  # atno 4299 bound_to 2456
    1.6089   -7.9271    7.1678 LP  0  0  0  0  0  0  0  0  0  0  0  0  # atno 4300 bound_to 2456
    2.7411   -9.1702    4.9207 LP  0  0  0  0  0  0  0  0  0  0  0  0  # atno 4301 bound_to 2510
    2.0527   -8.2548    6.0846 LP  0  0  0  0  0  0  0  0  0  0  0  0  # atno 4302 bound_to 2510
   -2.7864  -17.7853   14.7277 LP  0  0  0  0  0  0  0  0  0  0  0  0  # atno 4306 bound_to 3712
   -3.5574  -16.5557   13.9793 LP  0  0  0  0  0  0  0  0  0  0  0  0  # atno 4307 bound_to 3712
    1.4159  -19.9626    8.9762 LP  0  0  0  0  0  0  0  0  0  0  0  0  # atno 4314 bound_to 3832
    2.8312  -20.0352    8.1649 LP  0  0  0  0  0  0  0  0  0  0  0  0  # atno 4315 bound_to 3832
   -5.4406  -22.5221   10.2712 LP  0  0  0  0  0  0  0  0  0  0  0  0  # atno 4318 bound_to 3762
   -4.6288  -22.0680   11.6134 LP  0  0  0  0  0  0  0  0  0  0  0  0  # atno 4319 bound_to 3762
   -5.1620   -4.9398    7.8361 LP  0  0  0  0  0  0  0  0  0  0  0  0  # atno 4320 bound_to 2467
   -3.6460   -4.9910    8.4409 LP  0  0  0  0  0  0  0  0  0  0  0  0  # atno 4321 bound_to 2467

> <Gold.Score>
     Score     S(PLP)   S(hbond)     S(cho)   S(metal)  DE(clash)   DE(tors)     intcor
     38.36     -34.72       1.26       0.00       0.00       0.00       0.07       0.00

> <Gold.PLP.Fitness>
38.3584

> <Gold.PLP.PLP>
-34.7197

> <Gold.PLP.part.hbond>
-2.0000

> <Gold.PLP.part.metal>
0.0000

> <Gold.PLP.part.buried>
-3.7917

> <Gold.PLP.part.nonpolar>
-29.0362

> <Gold.PLP.part.repulsive>
0.1578

> <Gold.PLP.ligand.clash>
0.0000

> <Gold.PLP.ligand.torsion>
0.0661

> <Gold.PLP.Chemscore.Hbond>
1.2569

> <Gold.PLP.Chemscore.CHOScore>
0.0000

> <Gold.PLP.Chemscore.Metal>
0.0000

> <Gold.Chemscore.Hbonds>
donor molecule, donor type, donor heavy atom, donor atom, acceptor molecule, acceptor atom, score
      P1  H  2305  2313       L1    13  1.00
      P1  H  3712  3721       L1    14  0.26

> <Gold.PLP.Chemscore.Internal.Correction>
0.0003

