#       Name:                EN300-1165841_i001
#       Creating user name   fsindt
#       Creation time:       Mon Feb 27 18:29:19 2023


#       File generated by GOLD software.
#

@<TRIPOS>MOLECULE
EN300-1165841_i001|acide_1|mol2|324|dock14
    29    29     1
SMALL
USER_CHARGES


@<TRIPOS>ATOM
      1 C1           2.6524 -17.6630  14.1258 C.3            1 <1>                0.0000
      2 C2           1.3015 -17.7441  13.4121 C.3            1 <1>                0.0000
      3 N3           1.3462 -16.9366  12.1858 N.4            1 <1>                1.0000
      4 C4           1.8269 -15.5875  12.5074 C.3            1 <1>                0.0000
      5 C5           1.9525 -14.7667  11.2221 C.3            1 <1>                0.0000
      6 C6           0.5816 -14.6742  10.5459 C.3            1 <1>                0.0000
      7 O7          -0.3273 -13.9789  11.4017 O.3            1 <1>                0.0000
      8 C8           0.0568 -16.0886  10.2824 C.3            1 <1>                0.0000
      9 C9           0.0014 -16.8603  11.6027 C.3            1 <1>                0.0000
     10 C10          0.7095 -13.9495   9.2711 C.1            1 <1>                0.0000
     11 C11          0.8115 -13.3716   8.2543 C.1            1 <1>                0.0000
     12 C12          0.2207 -17.2180  14.3209 C.2            1 <1>                0.0000
     13 O13          0.2754 -16.0718  14.7332 O.co2          1 <1>                0.0000
     14 O14         -0.7085 -17.9382  14.6439 O.co2          1 <1>               -1.0000
     15 H15          2.8662 -16.6252  14.3818 H              1 <1>                0.0000
     16 H16          2.6191 -18.2621  15.0358 H              1 <1>                0.0000
     17 H17          3.4341 -18.0435  13.4685 H              1 <1>                0.0000
     18 H18          1.0875 -18.7819  13.1562 H              1 <1>                0.0000
     19 H19          1.1207 -15.1015  13.1807 H              1 <1>                0.0000
     20 H20          2.8012 -15.6552  12.9914 H              1 <1>                0.0000
     21 H21          2.3078 -13.7649  11.4632 H              1 <1>                0.0000
     22 H22          2.6588 -15.2517  10.5482 H              1 <1>                0.0000
     23 H23         -0.9430 -16.0316   9.8520 H              1 <1>                0.0000
     24 H24          0.7237 -16.6009   9.5891 H              1 <1>                0.0000
     25 H25         -0.3721 -17.8677  11.4187 H              1 <1>                0.0000
     26 H26         -0.6659 -16.3473  12.2951 H              1 <1>                0.0000
     27 H27          0.9027 -12.8546   7.3450 H              1 <1>                0.0000
     28 H28         -0.0187 -13.1044  11.6758 H              1 <1>                0.0000
     29 H29          1.9739 -17.3671  11.5235 H              1 <1>                0.0000
@<TRIPOS>BOND
    1    1    2 1     
    2    1   15 1     
    3    1   16 1     
    4    1   17 1     
    5    2    3 1     
    6    2   12 1     
    7    2   18 1     
    8    3    4 1     
    9    3    9 1     
   10    3   29 1     
   11    4    5 1     
   12    4   19 1     
   13    4   20 1     
   14    5    6 1     
   15    5   21 1     
   16    5   22 1     
   17    6    7 1     
   18    6    8 1     
   19    6   10 1     
   20    7   28 1     
   21    8    9 1     
   22    8   23 1     
   23    8   24 1     
   24    9   25 1     
   25    9   26 1     
   26   10   11 3     
   27   11   27 1     
   28   12   13 ar    
   29   12   14 ar    
@<TRIPOS>SUBSTRUCTURE
      1 ****           1
@<TRIPOS>SET
DONOR_HYDROGENS      STATIC     ATOMS    <user>   **** ""
2 29 28
ATOM$RED        STATIC     ATOMS    COLORGROUP SYSTEM
2 29 28
@<TRIPOS>COMMENT
> <Gold.Version>
2022.2.0

> <Gold.Id.Protein>
3pbl|protein|mol2

> <Gold.Protein.RotatedTorsions>
[ 1303 1298 1297 1294 ] final  -92.03 input  179.99 | X-H torsion
[ 2461 2456 2455 2452 ] final -116.61 input   30.03 | X-H torsion
[ 2515 2510 2509 2506 ] final  154.44 input  -89.99 | X-H torsion
[ 3721 3712 3711 3710 ] final    1.26 input -179.91 | X-H torsion
[ 3841 3832 3831 3830 ] final  -71.26 input -179.91 | X-H torsion
[ 3767 3762 3761 3758 ] final -175.79 input  -89.99 | X-H torsion
[ 2472 2467 2466 2463 ] final -105.53 input  -89.97 | X-H torsion

> <Gold.Protein.ActiveResidues>
 VAL82   VAL86   LEU89   PHE106  VAL107  ASP110  VAL111  MET112  CYS114  THR115 
 CYS181  SER182  ILE183  PHE188  VAL189  ILE190  SER192  SER193  SER196  TRP342 
 PHE345  PHE346  HIS349  VAL350  TYR365  THR369  GLY372  TYR373 

> <Gold.Protein.RotatedAtoms>
    3.8526   -8.6096    3.8814 H   0  0  0  0  0  0  0  0  0  0  0  0  # atno 1303 bound_to 1298
    0.5399   -9.1507    8.0171 H   0  0  0  0  0  0  0  0  0  0  0  0  # atno 2461 bound_to 2456
   -4.2700   -5.4048    9.3964 H   0  0  0  0  0  0  0  0  0  0  0  0  # atno 2472 bound_to 2467
    2.1667   -8.7096    6.0472 H   0  0  0  0  0  0  0  0  0  0  0  0  # atno 2515 bound_to 2510
   -2.4844  -17.9638   14.2249 H   0  0  0  0  0  0  0  0  0  0  0  0  # atno 3721 bound_to 3712
   -4.1342  -22.4811   11.5904 H   0  0  0  0  0  0  0  0  0  0  0  0  # atno 3767 bound_to 3762
    1.6823  -19.7199    8.9057 H   0  0  0  0  0  0  0  0  0  0  0  0  # atno 3841 bound_to 3832
    4.8996   -9.3471    4.8945 LP  0  0  0  0  0  0  0  0  0  0  0  0  # atno 4297 bound_to 1298
    3.6101  -10.1649    4.3158 LP  0  0  0  0  0  0  0  0  0  0  0  0  # atno 4298 bound_to 1298
    2.1035   -8.6861    8.0987 LP  0  0  0  0  0  0  0  0  0  0  0  0  # atno 4299 bound_to 2456
    1.0941   -7.9715    7.0324 LP  0  0  0  0  0  0  0  0  0  0  0  0  # atno 4300 bound_to 2456
    2.3019   -7.4133    5.0638 LP  0  0  0  0  0  0  0  0  0  0  0  0  # atno 4301 bound_to 2510
    2.8282   -8.8760    4.5638 LP  0  0  0  0  0  0  0  0  0  0  0  0  # atno 4302 bound_to 2510
   -3.4347  -16.6935   14.4722 LP  0  0  0  0  0  0  0  0  0  0  0  0  # atno 4306 bound_to 3712
   -3.2248  -17.2933   12.9679 LP  0  0  0  0  0  0  0  0  0  0  0  0  # atno 4307 bound_to 3712
    3.0383  -20.3199    8.2915 LP  0  0  0  0  0  0  0  0  0  0  0  0  # atno 4314 bound_to 3832
    2.2477  -21.1059    9.4848 LP  0  0  0  0  0  0  0  0  0  0  0  0  # atno 4315 bound_to 3832
   -4.5118  -23.2996   10.2287 LP  0  0  0  0  0  0  0  0  0  0  0  0  # atno 4318 bound_to 3762
   -5.4812  -22.0943   10.7522 LP  0  0  0  0  0  0  0  0  0  0  0  0  # atno 4319 bound_to 3762
   -5.4922   -5.1585    8.3420 LP  0  0  0  0  0  0  0  0  0  0  0  0  # atno 4320 bound_to 2467
   -3.9546   -4.8303    7.9008 LP  0  0  0  0  0  0  0  0  0  0  0  0  # atno 4321 bound_to 2467

> <Gold.Score>
     Score     S(PLP)   S(hbond)     S(cho)   S(metal)  DE(clash)   DE(tors)     intcor
     40.77     -28.90       4.00       0.00       0.00       0.00       0.07       0.00

> <Gold.PLP.Fitness>
40.7686

> <Gold.PLP.PLP>
-28.9028

> <Gold.PLP.part.hbond>
-3.0000

> <Gold.PLP.part.metal>
0.0000

> <Gold.PLP.part.buried>
-3.0180

> <Gold.PLP.part.nonpolar>
-24.8595

> <Gold.PLP.part.repulsive>
0.0567

> <Gold.PLP.ligand.clash>
0.0000

> <Gold.PLP.ligand.torsion>
0.0672

> <Gold.PLP.Chemscore.Hbond>
4.0000

> <Gold.PLP.Chemscore.CHOScore>
0.0000

> <Gold.PLP.Chemscore.Metal>
0.0000

> <Gold.Chemscore.Hbonds>
donor molecule, donor type, donor heavy atom, donor atom, acceptor molecule, acceptor atom, score
      L1  H     3    29       P1  1227  2.00
      P1  H  2305  2313       L1    13  1.00
      P1  H  3712  3721       L1    14  1.00

> <Gold.PLP.Chemscore.Internal.Correction>
0.0003

