#       Name:                EN300-1165841_i001
#       Creating user name   fsindt
#       Creation time:       Mon Feb 27 18:29:09 2023


#       File generated by GOLD software.
#

@<TRIPOS>MOLECULE
EN300-1165841_i001|acide_1|mol2|324|dock2
    29    29     1
SMALL
USER_CHARGES


@<TRIPOS>ATOM
      1 C1           1.0141 -14.7973  10.7120 C.3            1 <1>                0.0000
      2 C2           1.1952 -15.6163  11.9916 C.3            1 <1>                0.0000
      3 N3           0.9886 -17.0401  11.6951 N.4            1 <1>                1.0000
      4 C4          -0.4002 -17.2535  11.2705 C.3            1 <1>                0.0000
      5 C5          -0.5995 -18.7203  10.8828 C.3            1 <1>                0.0000
      6 C6          -0.2915 -19.6084  12.0918 C.3            1 <1>                0.0000
      7 O7          -1.2159 -19.3219  13.1431 O.3            1 <1>                0.0000
      8 C8           1.1346 -19.3236  12.5720 C.3            1 <1>                0.0000
      9 C9           1.2695 -17.8344  12.8970 C.3            1 <1>                0.0000
     10 C10         -0.4089 -21.0239  11.7052 C.1            1 <1>                0.0000
     11 C11         -0.5026 -22.1529  11.3969 C.1            1 <1>                0.0000
     12 C12          0.1915 -15.1669  13.0219 C.2            1 <1>                0.0000
     13 O13         -0.6805 -14.3712  12.7170 O.co2          1 <1>                0.0000
     14 O14          0.2514 -15.5990  14.1605 O.co2          1 <1>               -1.0000
     15 H15          0.0056 -14.9454  10.3256 H              1 <1>                0.0000
     16 H16          1.1674 -13.7408  10.9320 H              1 <1>                0.0000
     17 H17          1.7400 -15.1223   9.9667 H              1 <1>                0.0000
     18 H18          2.2037 -15.4682  12.3780 H              1 <1>                0.0000
     19 H19         -1.0731 -16.9999  12.0896 H              1 <1>                0.0000
     20 H20         -0.6188 -16.6183  10.4121 H              1 <1>                0.0000
     21 H21         -1.6317 -18.8770  10.5697 H              1 <1>                0.0000
     22 H22          0.0729 -18.9747  10.0634 H              1 <1>                0.0000
     23 H23          1.3419 -19.9116  13.4660 H              1 <1>                0.0000
     24 H24          1.8428 -19.5906  11.7876 H              1 <1>                0.0000
     25 H25          2.2836 -17.6282  13.2394 H              1 <1>                0.0000
     26 H26          0.5611 -17.5686  13.6815 H              1 <1>                0.0000
     27 H27         -0.5863 -23.1625  11.1212 H              1 <1>                0.0000
     28 H28         -1.1450 -19.9168  13.9022 H              1 <1>                0.0000
     29 H29          1.6128 -17.3224  10.9543 H              1 <1>                0.0000
@<TRIPOS>BOND
    1    1    2 1     
    2    1   15 1     
    3    1   16 1     
    4    1   17 1     
    5    2    3 1     
    6    2   12 1     
    7    2   18 1     
    8    3    4 1     
    9    3    9 1     
   10    3   29 1     
   11    4    5 1     
   12    4   19 1     
   13    4   20 1     
   14    5    6 1     
   15    5   21 1     
   16    5   22 1     
   17    6    7 1     
   18    6    8 1     
   19    6   10 1     
   20    7   28 1     
   21    8    9 1     
   22    8   23 1     
   23    8   24 1     
   24    9   25 1     
   25    9   26 1     
   26   10   11 3     
   27   11   27 1     
   28   12   13 ar    
   29   12   14 ar    
@<TRIPOS>SUBSTRUCTURE
      1 ****           1
@<TRIPOS>SET
DONOR_HYDROGENS      STATIC     ATOMS    <user>   **** ""
2 29 28
ATOM$RED        STATIC     ATOMS    COLORGROUP SYSTEM
2 29 28
@<TRIPOS>COMMENT
> <Gold.Version>
2022.2.0

> <Gold.Id.Protein>
3pbl|protein|mol2

> <Gold.Protein.RotatedTorsions>
[ 1303 1298 1297 1294 ] final   -7.50 input  179.99 | X-H torsion
[ 2461 2456 2455 2452 ] final   73.34 input   30.03 | X-H torsion
[ 2515 2510 2509 2506 ] final  123.63 input  -89.99 | X-H torsion
[ 3721 3712 3711 3710 ] final   35.37 input -179.91 | X-H torsion
[ 3841 3832 3831 3830 ] final -112.47 input -179.91 | X-H torsion
[ 3767 3762 3761 3758 ] final   -7.61 input  -89.99 | X-H torsion
[ 2472 2467 2466 2463 ] final  112.83 input  -89.97 | X-H torsion

> <Gold.Protein.ActiveResidues>
 VAL82   VAL86   LEU89   PHE106  VAL107  ASP110  VAL111  MET112  CYS114  THR115 
 CYS181  SER182  ILE183  PHE188  VAL189  ILE190  SER192  SER193  SER196  TRP342 
 PHE345  PHE346  HIS349  VAL350  TYR365  THR369  GLY372  TYR373 

> <Gold.Protein.RotatedAtoms>
    3.3540   -9.7707    3.9855 H   0  0  0  0  0  0  0  0  0  0  0  0  # atno 1303 bound_to 1298
    2.0420   -8.1342    7.5260 H   0  0  0  0  0  0  0  0  0  0  0  0  # atno 2461 bound_to 2456
   -5.3602   -5.0350    8.0376 H   0  0  0  0  0  0  0  0  0  0  0  0  # atno 2472 bound_to 2467
    2.0486   -8.2240    6.0790 H   0  0  0  0  0  0  0  0  0  0  0  0  # atno 2515 bound_to 2510
   -2.4942  -18.0249   13.7206 H   0  0  0  0  0  0  0  0  0  0  0  0  # atno 3721 bound_to 3712
   -5.3861  -22.6225   10.2006 H   0  0  0  0  0  0  0  0  0  0  0  0  # atno 3767 bound_to 3762
    2.1230  -19.5813    8.5086 H   0  0  0  0  0  0  0  0  0  0  0  0  # atno 3841 bound_to 3832
    4.3347   -8.4774    4.1645 LP  0  0  0  0  0  0  0  0  0  0  0  0  # atno 4297 bound_to 1298
    4.6738   -9.8730    4.9417 LP  0  0  0  0  0  0  0  0  0  0  0  0  # atno 4298 bound_to 1298
    0.4565   -8.4030    7.2409 LP  0  0  0  0  0  0  0  0  0  0  0  0  # atno 4299 bound_to 2456
    1.2395   -9.2708    8.3812 LP  0  0  0  0  0  0  0  0  0  0  0  0  # atno 4300 bound_to 2456
    2.5160   -7.5923    4.6478 LP  0  0  0  0  0  0  0  0  0  0  0  0  # atno 4301 bound_to 2510
    2.7323   -9.1828    4.9481 LP  0  0  0  0  0  0  0  0  0  0  0  0  # atno 4302 bound_to 2510
   -3.1889  -17.0702   14.8086 LP  0  0  0  0  0  0  0  0  0  0  0  0  # atno 4306 bound_to 3712
   -3.4592  -16.8460   13.2138 LP  0  0  0  0  0  0  0  0  0  0  0  0  # atno 4307 bound_to 3712
    3.0991  -20.8381    8.7179 LP  0  0  0  0  0  0  0  0  0  0  0  0  # atno 4314 bound_to 3832
    1.6779  -20.7479    9.5171 LP  0  0  0  0  0  0  0  0  0  0  0  0  # atno 4315 bound_to 3832
   -4.7432  -22.0109   11.5715 LP  0  0  0  0  0  0  0  0  0  0  0  0  # atno 4318 bound_to 3762
   -3.9984  -23.2416   10.7987 LP  0  0  0  0  0  0  0  0  0  0  0  0  # atno 4319 bound_to 3762
   -3.7380   -4.9038    8.1708 LP  0  0  0  0  0  0  0  0  0  0  0  0  # atno 4320 bound_to 2467
   -4.6188   -5.4547    9.4307 LP  0  0  0  0  0  0  0  0  0  0  0  0  # atno 4321 bound_to 2467

> <Gold.Score>
     Score     S(PLP)   S(hbond)     S(cho)   S(metal)  DE(clash)   DE(tors)     intcor
     42.92     -31.17       4.00       0.00       0.00       0.00       0.12       0.00

> <Gold.PLP.Fitness>
42.9221

> <Gold.PLP.PLP>
-31.1702

> <Gold.PLP.part.hbond>
-3.4677

> <Gold.PLP.part.metal>
0.0000

> <Gold.PLP.part.buried>
-2.9585

> <Gold.PLP.part.nonpolar>
-26.4052

> <Gold.PLP.part.repulsive>
0.1761

> <Gold.PLP.ligand.clash>
0.0000

> <Gold.PLP.ligand.torsion>
0.1241

> <Gold.PLP.Chemscore.Hbond>
4.0000

> <Gold.PLP.Chemscore.CHOScore>
0.0000

> <Gold.PLP.Chemscore.Metal>
0.0000

> <Gold.Chemscore.Hbonds>
donor molecule, donor type, donor heavy atom, donor atom, acceptor molecule, acceptor atom, score
      L1  H     3    29       P1  1227  2.00
      P1  H  2305  2313       L1    14  1.00
      P1  H  3712  3721       L1     7  1.00

> <Gold.PLP.Chemscore.Internal.Correction>
0.0003

