#       Name:                EN300-1165841_i001
#       Creating user name   fsindt
#       Creation time:       Mon Feb 27 18:29:09 2023


#       File generated by GOLD software.
#

@<TRIPOS>MOLECULE
EN300-1165841_i001|acide_1|mol2|324|dock3
    29    29     1
SMALL
USER_CHARGES


@<TRIPOS>ATOM
      1 C1           1.8912 -14.0694   9.0731 C.3            1 <1>                0.0000
      2 C2           0.6204 -14.7261   9.6159 C.3            1 <1>                0.0000
      3 N3           0.9784 -15.7001  10.6558 N.4            1 <1>                1.0000
      4 C4          -0.2414 -16.1755  11.3196 C.3            1 <1>                0.0000
      5 C5           0.1186 -17.2498  12.3481 C.3            1 <1>                0.0000
      6 C6           1.0692 -16.6531  13.3900 C.3            1 <1>                0.0000
      7 O7           0.4063 -15.6014  14.0947 O.3            1 <1>                0.0000
      8 C8           2.3045 -16.0936  12.6785 C.3            1 <1>                0.0000
      9 C9           1.8634 -15.0621  11.6377 C.3            1 <1>                0.0000
     10 C10          1.4784 -17.7005  14.3398 C.1            1 <1>                0.0000
     11 C11          1.8049 -18.5360  15.0973 C.1            1 <1>                0.0000
     12 C12         -0.0996 -15.4301   8.4948 C.2            1 <1>                0.0000
     13 O13         -0.4031 -14.8171   7.4855 O.co2          1 <1>                0.0000
     14 O14         -0.3786 -16.6126   8.5969 O.co2          1 <1>               -1.0000
     15 H15          2.5414 -14.8335   8.6469 H              1 <1>                0.0000
     16 H16          1.6256 -13.3467   8.3015 H              1 <1>                0.0000
     17 H17          2.4120 -13.5603   9.8840 H              1 <1>                0.0000
     18 H18         -0.0299 -13.9621  10.0421 H              1 <1>                0.0000
     19 H19         -0.7298 -15.3408  11.8225 H              1 <1>                0.0000
     20 H20         -0.9183 -16.5969  10.5764 H              1 <1>                0.0000
     21 H21         -0.7882 -17.6001  12.8410 H              1 <1>                0.0000
     22 H22          0.6068 -18.0852  11.8460 H              1 <1>                0.0000
     23 H23          2.9601 -15.6176  13.4076 H              1 <1>                0.0000
     24 H24          2.8380 -16.9050  12.1834 H              1 <1>                0.0000
     25 H25          2.7405 -14.6616  11.1294 H              1 <1>                0.0000
     26 H26          1.3303 -14.2511  12.1339 H              1 <1>                0.0000
     27 H27          2.0968 -19.2830  15.7748 H              1 <1>                0.0000
     28 H28         -0.5563 -15.6901  14.1192 H              1 <1>                0.0000
     29 H29          1.4564 -16.4816  10.2330 H              1 <1>                0.0000
@<TRIPOS>BOND
    1    1    2 1     
    2    1   15 1     
    3    1   16 1     
    4    1   17 1     
    5    2    3 1     
    6    2   12 1     
    7    2   18 1     
    8    3    4 1     
    9    3    9 1     
   10    3   29 1     
   11    4    5 1     
   12    4   19 1     
   13    4   20 1     
   14    5    6 1     
   15    5   21 1     
   16    5   22 1     
   17    6    7 1     
   18    6    8 1     
   19    6   10 1     
   20    7   28 1     
   21    8    9 1     
   22    8   23 1     
   23    8   24 1     
   24    9   25 1     
   25    9   26 1     
   26   10   11 3     
   27   11   27 1     
   28   12   13 ar    
   29   12   14 ar    
@<TRIPOS>SUBSTRUCTURE
      1 ****           1
@<TRIPOS>SET
DONOR_HYDROGENS      STATIC     ATOMS    <user>   **** ""
2 29 28
ATOM$RED        STATIC     ATOMS    COLORGROUP SYSTEM
2 29 28
@<TRIPOS>COMMENT
> <Gold.Version>
2022.2.0

> <Gold.Id.Protein>
3pbl|protein|mol2

> <Gold.Protein.RotatedTorsions>
[ 1303 1298 1297 1294 ] final  101.28 input  179.99 | X-H torsion
[ 2461 2456 2455 2452 ] final   92.79 input   30.03 | X-H torsion
[ 2515 2510 2509 2506 ] final   51.84 input  -89.99 | X-H torsion
[ 3721 3712 3711 3710 ] final   51.22 input -179.91 | X-H torsion
[ 3841 3832 3831 3830 ] final   52.98 input -179.91 | X-H torsion
[ 3767 3762 3761 3758 ] final   19.48 input  -89.99 | X-H torsion
[ 2472 2467 2466 2463 ] final   88.68 input  -89.97 | X-H torsion

> <Gold.Protein.ActiveResidues>
 VAL82   VAL86   LEU89   PHE106  VAL107  ASP110  VAL111  MET112  CYS114  THR115 
 CYS181  SER182  ILE183  PHE188  VAL189  ILE190  SER192  SER193  SER196  TRP342 
 PHE345  PHE346  HIS349  VAL350  TYR365  THR369  GLY372  TYR373 

> <Gold.Protein.RotatedAtoms>
    4.5526  -10.0085    4.9107 H   0  0  0  0  0  0  0  0  0  0  0  0  # atno 1303 bound_to 1298
    2.1472   -8.3278    7.7561 H   0  0  0  0  0  0  0  0  0  0  0  0  # atno 2461 bound_to 2456
   -5.0832   -4.9134    7.7845 H   0  0  0  0  0  0  0  0  0  0  0  0  # atno 2472 bound_to 2467
    2.1939   -7.4270    5.3273 H   0  0  0  0  0  0  0  0  0  0  0  0  # atno 2515 bound_to 2510
   -2.5489  -17.9642   13.4962 H   0  0  0  0  0  0  0  0  0  0  0  0  # atno 3721 bound_to 3712
   -5.1159  -22.9464   10.0694 H   0  0  0  0  0  0  0  0  0  0  0  0  # atno 3767 bound_to 3762
    2.3750  -20.9214    9.5525 H   0  0  0  0  0  0  0  0  0  0  0  0  # atno 3841 bound_to 3832
    3.3307   -9.6066    3.9050 LP  0  0  0  0  0  0  0  0  0  0  0  0  # atno 4297 bound_to 1298
    4.4787   -8.5060    4.2757 LP  0  0  0  0  0  0  0  0  0  0  0  0  # atno 4298 bound_to 1298
    0.6558   -8.1959    7.1036 LP  0  0  0  0  0  0  0  0  0  0  0  0  # atno 4299 bound_to 2456
    0.9351   -9.2843    8.2885 LP  0  0  0  0  0  0  0  0  0  0  0  0  # atno 4300 bound_to 2456
    2.8335   -8.6275    4.4243 LP  0  0  0  0  0  0  0  0  0  0  0  0  # atno 4301 bound_to 2510
    2.2695   -8.9451    5.9236 LP  0  0  0  0  0  0  0  0  0  0  0  0  # atno 4302 bound_to 2510
   -3.0569  -17.2922   14.8630 LP  0  0  0  0  0  0  0  0  0  0  0  0  # atno 4306 bound_to 3712
   -3.5280  -16.6941   13.4184 LP  0  0  0  0  0  0  0  0  0  0  0  0  # atno 4307 bound_to 3712
    1.5020  -19.8124    8.7884 LP  0  0  0  0  0  0  0  0  0  0  0  0  # atno 4314 bound_to 3832
    2.9838  -20.2254    8.2406 LP  0  0  0  0  0  0  0  0  0  0  0  0  # atno 4315 bound_to 3832
   -5.1044  -21.9157   11.3359 LP  0  0  0  0  0  0  0  0  0  0  0  0  # atno 4318 bound_to 3762
   -3.9072  -23.0131   11.1655 LP  0  0  0  0  0  0  0  0  0  0  0  0  # atno 4319 bound_to 3762
   -3.6359   -5.0229    8.5326 LP  0  0  0  0  0  0  0  0  0  0  0  0  # atno 4320 bound_to 2467
   -4.9979   -5.4572    9.3218 LP  0  0  0  0  0  0  0  0  0  0  0  0  # atno 4321 bound_to 2467

> <Gold.Score>
     Score     S(PLP)   S(hbond)     S(cho)   S(metal)  DE(clash)   DE(tors)     intcor
     40.22     -31.48       3.00       0.00       0.00       0.00       0.13       0.00

> <Gold.PLP.Fitness>
40.2231

> <Gold.PLP.PLP>
-31.4829

> <Gold.PLP.part.hbond>
-2.0000

> <Gold.PLP.part.metal>
0.0000

> <Gold.PLP.part.buried>
-4.7771

> <Gold.PLP.part.nonpolar>
-25.3384

> <Gold.PLP.part.repulsive>
0.1381

> <Gold.PLP.ligand.clash>
0.0000

> <Gold.PLP.ligand.torsion>
0.1301

> <Gold.PLP.Chemscore.Hbond>
3.0000

> <Gold.PLP.Chemscore.CHOScore>
0.0000

> <Gold.PLP.Chemscore.Metal>
0.0000

> <Gold.Chemscore.Hbonds>
donor molecule, donor type, donor heavy atom, donor atom, acceptor molecule, acceptor atom, score
      L1  H     3    29       P1  1227  2.00
      P1  H  2305  2313       L1     7  1.00

> <Gold.PLP.Chemscore.Internal.Correction>
0.0003

