#       Name:                EN300-1165841_i001
#       Creating user name   fsindt
#       Creation time:       Mon Feb 27 18:29:11 2023


#       File generated by GOLD software.
#

@<TRIPOS>MOLECULE
EN300-1165841_i001|acide_1|mol2|324|dock5
    29    29     1
SMALL
USER_CHARGES


@<TRIPOS>ATOM
      1 C1          -1.6185 -11.5347  10.1236 C.3            1 <1>                0.0000
      2 C2          -0.6288 -12.5067   9.4782 C.3            1 <1>                0.0000
      3 N3           0.0978 -13.2342  10.5274 N.4            1 <1>                1.0000
      4 C4           1.0734 -14.1389   9.9075 C.3            1 <1>                0.0000
      5 C5           1.8889 -14.8394  10.9964 C.3            1 <1>                0.0000
      6 C6           0.9452 -15.6428  11.8960 C.3            1 <1>                0.0000
      7 O7           0.3058 -16.6635  11.1272 O.3            1 <1>                0.0000
      8 C8          -0.1132 -14.7016  12.4785 C.3            1 <1>                0.0000
      9 C9          -0.8545 -14.0062  11.3346 C.3            1 <1>                0.0000
     10 C10          1.7137 -16.2590  12.9898 C.1            1 <1>                0.0000
     11 C11          2.3268 -16.7504  13.8622 C.1            1 <1>                0.0000
     12 C12          0.3507 -11.7372   8.6301 C.2            1 <1>                0.0000
     13 O13          1.0059 -10.8346   9.1227 O.co2          1 <1>                0.0000
     14 O14          0.4881 -12.0170   7.4514 O.co2          1 <1>               -1.0000
     15 H15         -1.0758 -10.8252  10.7485 H              1 <1>                0.0000
     16 H16         -2.1576 -10.9949   9.3451 H              1 <1>                0.0000
     17 H17         -2.3269 -12.0913  10.7370 H              1 <1>                0.0000
     18 H18         -1.1713 -13.2162   8.8533 H              1 <1>                0.0000
     19 H19          0.5485 -14.8849   9.3108 H              1 <1>                0.0000
     20 H20          1.7423 -13.5662   9.2651 H              1 <1>                0.0000
     21 H21          2.6114 -15.5120  10.5341 H              1 <1>                0.0000
     22 H22          2.4146 -14.0942  11.5936 H              1 <1>                0.0000
     23 H23         -0.8217 -15.2756  13.0756 H              1 <1>                0.0000
     24 H24          0.3709 -13.9536  13.1064 H              1 <1>                0.0000
     25 H25         -1.6089 -13.3355  11.7458 H              1 <1>                0.0000
     26 H26         -1.3384 -14.7550  10.7076 H              1 <1>                0.0000
     27 H27          2.8749 -17.1900  14.6423 H              1 <1>                0.0000
     28 H28          0.9094 -17.1700  10.5666 H              1 <1>                0.0000
     29 H29          0.5807 -12.5752  11.1194 H              1 <1>                0.0000
@<TRIPOS>BOND
    1    1    2 1     
    2    1   15 1     
    3    1   16 1     
    4    1   17 1     
    5    2    3 1     
    6    2   12 1     
    7    2   18 1     
    8    3    4 1     
    9    3    9 1     
   10    3   29 1     
   11    4    5 1     
   12    4   19 1     
   13    4   20 1     
   14    5    6 1     
   15    5   21 1     
   16    5   22 1     
   17    6    7 1     
   18    6    8 1     
   19    6   10 1     
   20    7   28 1     
   21    8    9 1     
   22    8   23 1     
   23    8   24 1     
   24    9   25 1     
   25    9   26 1     
   26   10   11 3     
   27   11   27 1     
   28   12   13 ar    
   29   12   14 ar    
@<TRIPOS>SUBSTRUCTURE
      1 ****           1
@<TRIPOS>SET
DONOR_HYDROGENS      STATIC     ATOMS    <user>   **** ""
2 29 28
ATOM$RED        STATIC     ATOMS    COLORGROUP SYSTEM
2 29 28
@<TRIPOS>COMMENT
> <Gold.Version>
2022.2.0

> <Gold.Id.Protein>
3pbl|protein|mol2

> <Gold.Protein.RotatedTorsions>
[ 1303 1298 1297 1294 ] final   64.89 input  179.99 | X-H torsion
[ 2461 2456 2455 2452 ] final -168.49 input   30.03 | X-H torsion
[ 2515 2510 2509 2506 ] final   -3.91 input  -89.99 | X-H torsion
[ 3721 3712 3711 3710 ] final  -85.30 input -179.91 | X-H torsion
[ 3841 3832 3831 3830 ] final  156.64 input -179.91 | X-H torsion
[ 3767 3762 3761 3758 ] final -105.71 input  -89.99 | X-H torsion
[ 2472 2467 2466 2463 ] final   69.09 input  -89.97 | X-H torsion

> <Gold.Protein.ActiveResidues>
 VAL82   VAL86   LEU89   PHE106  VAL107  ASP110  VAL111  MET112  CYS114  THR115 
 CYS181  SER182  ILE183  PHE188  VAL189  ILE190  SER192  SER193  SER196  TRP342 
 PHE345  PHE346  HIS349  VAL350  TYR365  THR369  GLY372  TYR373 

> <Gold.Protein.RotatedAtoms>
    4.0752  -10.2616    4.6772 H   0  0  0  0  0  0  0  0  0  0  0  0  # atno 1303 bound_to 1298
    1.2687   -9.2657    8.3864 H   0  0  0  0  0  0  0  0  0  0  0  0  # atno 2461 bound_to 2456
   -4.7899   -4.8419    7.6758 H   0  0  0  0  0  0  0  0  0  0  0  0  # atno 2472 bound_to 2467
    2.5672   -7.6716    4.5674 H   0  0  0  0  0  0  0  0  0  0  0  0  # atno 2515 bound_to 2510
   -2.9903  -17.0055   14.7109 H   0  0  0  0  0  0  0  0  0  0  0  0  # atno 3721 bound_to 3712
   -5.0393  -21.9214   11.3910 H   0  0  0  0  0  0  0  0  0  0  0  0  # atno 3767 bound_to 3762
    3.1041  -20.3269    8.5688 H   0  0  0  0  0  0  0  0  0  0  0  0  # atno 3841 bound_to 3832
    3.4594   -9.0464    3.7770 LP  0  0  0  0  0  0  0  0  0  0  0  0  # atno 4297 bound_to 1298
    4.8276   -8.8130    4.6373 LP  0  0  0  0  0  0  0  0  0  0  0  0  # atno 4298 bound_to 1298
    2.0270   -8.1186    7.5051 LP  0  0  0  0  0  0  0  0  0  0  0  0  # atno 4299 bound_to 2456
    0.4421   -8.4240    7.2569 LP  0  0  0  0  0  0  0  0  0  0  0  0  # atno 4300 bound_to 2456
    2.6942   -9.2234    5.0590 LP  0  0  0  0  0  0  0  0  0  0  0  0  # atno 4301 bound_to 2510
    2.0352   -8.1045    6.0491 LP  0  0  0  0  0  0  0  0  0  0  0  0  # atno 4302 bound_to 2510
   -3.4392  -16.8871   13.1739 LP  0  0  0  0  0  0  0  0  0  0  0  0  # atno 4306 bound_to 3712
   -2.6362  -18.2060   13.7052 LP  0  0  0  0  0  0  0  0  0  0  0  0  # atno 4307 bound_to 3712
    2.0222  -21.0096    9.5382 LP  0  0  0  0  0  0  0  0  0  0  0  0  # atno 4314 bound_to 3832
    1.6214  -19.7150    8.6272 LP  0  0  0  0  0  0  0  0  0  0  0  0  # atno 4315 bound_to 3832
   -3.9111  -23.0652   11.0982 LP  0  0  0  0  0  0  0  0  0  0  0  0  # atno 4318 bound_to 3762
   -5.1771  -22.8882   10.0821 LP  0  0  0  0  0  0  0  0  0  0  0  0  # atno 4319 bound_to 3762
   -3.6736   -5.1346    8.8311 LP  0  0  0  0  0  0  0  0  0  0  0  0  # atno 4320 bound_to 2467
   -5.2535   -5.4169    9.1321 LP  0  0  0  0  0  0  0  0  0  0  0  0  # atno 4321 bound_to 2467

> <Gold.Score>
     Score     S(PLP)   S(hbond)     S(cho)   S(metal)  DE(clash)   DE(tors)     intcor
     43.30     -37.38       2.00       0.00       0.00       0.00       0.04       0.00

> <Gold.PLP.Fitness>
43.3005

> <Gold.PLP.PLP>
-37.3791

> <Gold.PLP.part.hbond>
-2.0000

> <Gold.PLP.part.metal>
0.0000

> <Gold.PLP.part.buried>
-3.2268

> <Gold.PLP.part.nonpolar>
-32.9611

> <Gold.PLP.part.repulsive>
0.0000

> <Gold.PLP.ligand.clash>
0.0000

> <Gold.PLP.ligand.torsion>
0.0394

> <Gold.PLP.Chemscore.Hbond>
2.0000

> <Gold.PLP.Chemscore.CHOScore>
0.0000

> <Gold.PLP.Chemscore.Metal>
0.0000

> <Gold.Chemscore.Hbonds>
donor molecule, donor type, donor heavy atom, donor atom, acceptor molecule, acceptor atom, score
      L1  H     7    28       P1  1227  1.00
      P1  H  2456  2461       L1    13  1.00

> <Gold.PLP.Chemscore.Internal.Correction>
0.0003

