#       Name:                EN300-1165841_i001
#       Creating user name   fsindt
#       Creation time:       Mon Feb 27 18:29:15 2023


#       File generated by GOLD software.
#

@<TRIPOS>MOLECULE
EN300-1165841_i001|acide_1|mol2|324|dock9
    29    29     1
SMALL
USER_CHARGES


@<TRIPOS>ATOM
      1 C1          -0.4775 -18.1700  10.2903 C.3            1 <1>                0.0000
      2 C2          -0.3453 -16.7630  10.8767 C.3            1 <1>                0.0000
      3 N3           0.3038 -15.8828   9.8960 N.4            1 <1>                1.0000
      4 C4           0.2669 -14.4986  10.3832 C.3            1 <1>                0.0000
      5 C5           1.0128 -13.5892   9.4043 C.3            1 <1>                0.0000
      6 C6           0.3403 -13.6667   8.0306 C.3            1 <1>                0.0000
      7 O7          -0.9980 -13.1748   8.1253 O.3            1 <1>                0.0000
      8 C8           0.3180 -15.1256   7.5655 C.3            1 <1>                0.0000
      9 C9          -0.4021 -15.9780   8.6126 C.3            1 <1>                0.0000
     10 C10          1.0969 -12.8523   7.0656 C.1            1 <1>                0.0000
     11 C11          1.7003 -12.2027   6.2959 C.1            1 <1>                0.0000
     12 C12          0.4877 -16.8178  12.1313 C.2            1 <1>                0.0000
     13 O13          0.9510 -17.8803  12.5095 O.co2          1 <1>                0.0000
     14 O14          0.6985 -15.7997  12.7683 O.co2          1 <1>               -1.0000
     15 H15          0.5126 -18.5589  10.0524 H              1 <1>                0.0000
     16 H16         -0.9591 -18.8231  11.0180 H              1 <1>                0.0000
     17 H17         -1.0800 -18.1303   9.3829 H              1 <1>                0.0000
     18 H18         -1.3354 -16.3740  11.1147 H              1 <1>                0.0000
     19 H19         -0.7692 -14.1705  10.4658 H              1 <1>                0.0000
     20 H20          0.7430 -14.4457  11.3623 H              1 <1>                0.0000
     21 H21          0.9827 -12.5618   9.7668 H              1 <1>                0.0000
     22 H22          2.0492 -13.9164   9.3211 H              1 <1>                0.0000
     23 H23         -0.2086 -15.1963   6.6138 H              1 <1>                0.0000
     24 H24          1.3401 -15.4846   7.4442 H              1 <1>                0.0000
     25 H25         -0.4200 -17.0173   8.2846 H              1 <1>                0.0000
     26 H26         -1.4240 -15.6184   8.7329 H              1 <1>                0.0000
     27 H27          2.2399 -11.6219   5.6077 H              1 <1>                0.0000
     28 H28         -1.1530 -12.6008   8.8879 H              1 <1>                0.0000
     29 H29          1.2633 -16.1691   9.7718 H              1 <1>                0.0000
@<TRIPOS>BOND
    1    1    2 1     
    2    1   15 1     
    3    1   16 1     
    4    1   17 1     
    5    2    3 1     
    6    2   12 1     
    7    2   18 1     
    8    3    4 1     
    9    3    9 1     
   10    3   29 1     
   11    4    5 1     
   12    4   19 1     
   13    4   20 1     
   14    5    6 1     
   15    5   21 1     
   16    5   22 1     
   17    6    7 1     
   18    6    8 1     
   19    6   10 1     
   20    7   28 1     
   21    8    9 1     
   22    8   23 1     
   23    8   24 1     
   24    9   25 1     
   25    9   26 1     
   26   10   11 3     
   27   11   27 1     
   28   12   13 ar    
   29   12   14 ar    
@<TRIPOS>SUBSTRUCTURE
      1 ****           1
@<TRIPOS>SET
DONOR_HYDROGENS      STATIC     ATOMS    <user>   **** ""
2 29 28
ATOM$RED        STATIC     ATOMS    COLORGROUP SYSTEM
2 29 28
@<TRIPOS>COMMENT
> <Gold.Version>
2022.2.0

> <Gold.Id.Protein>
3pbl|protein|mol2

> <Gold.Protein.RotatedTorsions>
[ 1303 1298 1297 1294 ] final   17.52 input  179.99 | X-H torsion
[ 2461 2456 2455 2452 ] final   45.16 input   30.03 | X-H torsion
[ 2515 2510 2509 2506 ] final   73.09 input  -89.99 | X-H torsion
[ 3721 3712 3711 3710 ] final   -3.97 input -179.91 | X-H torsion
[ 3841 3832 3831 3830 ] final -174.94 input -179.91 | X-H torsion
[ 3767 3762 3761 3758 ] final  -84.77 input  -89.99 | X-H torsion
[ 2472 2467 2466 2463 ] final   16.27 input  -89.97 | X-H torsion

> <Gold.Protein.ActiveResidues>
 VAL82   VAL86   LEU89   PHE106  VAL107  ASP110  VAL111  MET112  CYS114  THR115 
 CYS181  SER182  ILE183  PHE188  VAL189  ILE190  SER192  SER193  SER196  TRP342 
 PHE345  PHE346  HIS349  VAL350  TYR365  THR369  GLY372  TYR373 

> <Gold.Protein.RotatedAtoms>
    3.5088  -10.0742    4.2108 H   0  0  0  0  0  0  0  0  0  0  0  0  # atno 1303 bound_to 1298
    1.7341   -7.9531    7.2375 H   0  0  0  0  0  0  0  0  0  0  0  0  # atno 2461 bound_to 2456
   -3.9770   -4.8267    7.8817 H   0  0  0  0  0  0  0  0  0  0  0  0  # atno 2472 bound_to 2467
    2.0921   -7.5551    5.6341 H   0  0  0  0  0  0  0  0  0  0  0  0  # atno 2515 bound_to 2510
   -2.4963  -17.9320   14.2962 H   0  0  0  0  0  0  0  0  0  0  0  0  # atno 3721 bound_to 3712
   -5.2788  -21.9313   11.1459 H   0  0  0  0  0  0  0  0  0  0  0  0  # atno 3767 bound_to 3762
    2.9117  -19.9932    8.3891 H   0  0  0  0  0  0  0  0  0  0  0  0  # atno 3841 bound_to 3832
    3.9923   -8.5366    3.9496 LP  0  0  0  0  0  0  0  0  0  0  0  0  # atno 4297 bound_to 1298
    4.8613   -9.5102    4.9312 LP  0  0  0  0  0  0  0  0  0  0  0  0  # atno 4298 bound_to 1298
    0.3313   -8.7365    7.5304 LP  0  0  0  0  0  0  0  0  0  0  0  0  # atno 4299 bound_to 2456
    1.6725   -9.1184    8.3801 LP  0  0  0  0  0  0  0  0  0  0  0  0  # atno 4300 bound_to 2456
    2.7903   -8.2896    4.3540 LP  0  0  0  0  0  0  0  0  0  0  0  0  # atno 4301 bound_to 2510
    2.4145   -9.1548    5.6870 LP  0  0  0  0  0  0  0  0  0  0  0  0  # atno 4302 bound_to 2510
   -3.4634  -16.6546   14.3996 LP  0  0  0  0  0  0  0  0  0  0  0  0  # atno 4306 bound_to 3712
   -3.1823  -17.3689   12.9583 LP  0  0  0  0  0  0  0  0  0  0  0  0  # atno 4307 bound_to 3712
    2.4489  -21.1506    9.4002 LP  0  0  0  0  0  0  0  0  0  0  0  0  # atno 4314 bound_to 3832
    1.4169  -19.9595    8.9727 LP  0  0  0  0  0  0  0  0  0  0  0  0  # atno 4315 bound_to 3832
   -3.9355  -22.8367   11.3525 LP  0  0  0  0  0  0  0  0  0  0  0  0  # atno 4318 bound_to 3762
   -4.9133  -23.1067   10.0728 LP  0  0  0  0  0  0  0  0  0  0  0  0  # atno 4319 bound_to 3762
   -4.2423   -5.3980    9.3882 LP  0  0  0  0  0  0  0  0  0  0  0  0  # atno 4320 bound_to 2467
   -5.4975   -5.1688    8.3691 LP  0  0  0  0  0  0  0  0  0  0  0  0  # atno 4321 bound_to 2467

> <Gold.Score>
     Score     S(PLP)   S(hbond)     S(cho)   S(metal)  DE(clash)   DE(tors)     intcor
     39.54     -33.67       2.00       0.00       0.00       0.00       0.06       0.00

> <Gold.PLP.Fitness>
39.5436

> <Gold.PLP.PLP>
-33.6674

> <Gold.PLP.part.hbond>
-1.0000

> <Gold.PLP.part.metal>
0.0000

> <Gold.PLP.part.buried>
-1.8196

> <Gold.PLP.part.nonpolar>
-30.9271

> <Gold.PLP.part.repulsive>
0.1340

> <Gold.PLP.ligand.clash>
0.0000

> <Gold.PLP.ligand.torsion>
0.0620

> <Gold.PLP.Chemscore.Hbond>
2.0000

> <Gold.PLP.Chemscore.CHOScore>
0.0000

> <Gold.PLP.Chemscore.Metal>
0.0000

> <Gold.Chemscore.Hbonds>
donor molecule, donor type, donor heavy atom, donor atom, acceptor molecule, acceptor atom, score
      L1  H     3    29       P1  1227  2.00

> <Gold.PLP.Chemscore.Internal.Correction>
0.0003

