#       Name:                EN300-1165841_i001
#       Creating user name   fsindt
#       Creation time:       Mon Feb 27 18:29:17 2023


#       File generated by GOLD software.
#

@<TRIPOS>MOLECULE
EN300-1165841_i001|acide_1|mol2|324|dock12
    29    29     1
SMALL
USER_CHARGES


@<TRIPOS>ATOM
      1 C1           1.6961 -19.1732  14.4418 C.3            1 <1>                0.0000
      2 C2           1.9008 -19.2697  12.9286 C.3            1 <1>                0.0000
      3 N3           1.4262 -18.0346  12.2905 N.4            1 <1>                1.0000
      4 C4           2.1030 -16.8814  12.8961 C.3            1 <1>                0.0000
      5 C5           1.6727 -15.5991  12.1806 C.3            1 <1>                0.0000
      6 C6           0.1564 -15.4308  12.3138 C.3            1 <1>                0.0000
      7 O7          -0.1882 -15.2792  13.6923 O.3            1 <1>                0.0000
      8 C8          -0.5369 -16.6727  11.7462 C.3            1 <1>                0.0000
      9 C9          -0.0248 -17.9153  12.4778 C.3            1 <1>                0.0000
     10 C10         -0.2742 -14.2391  11.5648 C.1            1 <1>                0.0000
     11 C11         -0.6177 -13.2885  10.9674 C.1            1 <1>                0.0000
     12 C12          1.1242 -20.4437  12.3904 C.2            1 <1>                0.0000
     13 O13          0.5196 -21.1766  13.1546 O.co2          1 <1>                0.0000
     14 O14          1.1003 -20.6606  11.1909 O.co2          1 <1>               -1.0000
     15 H15          0.6362 -19.0372  14.6570 H              1 <1>                0.0000
     16 H16          2.0483 -20.0897  14.9152 H              1 <1>                0.0000
     17 H17          2.2578 -18.3241  14.8310 H              1 <1>                0.0000
     18 H18          2.9607 -19.4058  12.7133 H              1 <1>                0.0000
     19 H19          1.8350 -16.8160  13.9506 H              1 <1>                0.0000
     20 H20          3.1820 -17.0042  12.8033 H              1 <1>                0.0000
     21 H21          2.1750 -14.7439  12.6328 H              1 <1>                0.0000
     22 H22          1.9406 -15.6634  11.1259 H              1 <1>                0.0000
     23 H23         -1.6141 -16.5850  11.8879 H              1 <1>                0.0000
     24 H24         -0.3149 -16.7593  10.6825 H              1 <1>                0.0000
     25 H25         -0.5166 -18.8013  12.0763 H              1 <1>                0.0000
     26 H26         -0.2475 -17.8278  13.5412 H              1 <1>                0.0000
     27 H27         -0.9249 -12.4386  10.4331 H              1 <1>                0.0000
     28 H28          0.0217 -16.0500  14.2373 H              1 <1>                0.0000
     29 H29          1.6344 -18.0655  11.3038 H              1 <1>                0.0000
@<TRIPOS>BOND
    1    1    2 1     
    2    1   15 1     
    3    1   16 1     
    4    1   17 1     
    5    2    3 1     
    6    2   12 1     
    7    2   18 1     
    8    3    4 1     
    9    3    9 1     
   10    3   29 1     
   11    4    5 1     
   12    4   19 1     
   13    4   20 1     
   14    5    6 1     
   15    5   21 1     
   16    5   22 1     
   17    6    7 1     
   18    6    8 1     
   19    6   10 1     
   20    7   28 1     
   21    8    9 1     
   22    8   23 1     
   23    8   24 1     
   24    9   25 1     
   25    9   26 1     
   26   10   11 3     
   27   11   27 1     
   28   12   13 ar    
   29   12   14 ar    
@<TRIPOS>SUBSTRUCTURE
      1 ****           1
@<TRIPOS>SET
DONOR_HYDROGENS      STATIC     ATOMS    <user>   **** ""
2 29 28
ATOM$RED        STATIC     ATOMS    COLORGROUP SYSTEM
2 29 28
@<TRIPOS>COMMENT
> <Gold.Version>
2022.2.0

> <Gold.Id.Protein>
3pbl|protein|mol2

> <Gold.Protein.RotatedTorsions>
[ 1303 1298 1297 1294 ] final -178.03 input  179.99 | X-H torsion
[ 2461 2456 2455 2452 ] final  -12.91 input   30.03 | X-H torsion
[ 2515 2510 2509 2506 ] final -139.86 input  -89.99 | X-H torsion
[ 3721 3712 3711 3710 ] final  -71.76 input -179.91 | X-H torsion
[ 3841 3832 3831 3830 ] final   -1.16 input -179.91 | X-H torsion
[ 3767 3762 3761 3758 ] final -144.18 input  -89.99 | X-H torsion
[ 2472 2467 2466 2463 ] final   40.08 input  -89.97 | X-H torsion

> <Gold.Protein.ActiveResidues>
 VAL82   VAL86   LEU89   PHE106  VAL107  ASP110  VAL111  MET112  CYS114  THR115 
 CYS181  SER182  ILE183  PHE188  VAL189  ILE190  SER192  SER193  SER196  TRP342 
 PHE345  PHE346  HIS349  VAL350  TYR365  THR369  GLY372  TYR373 

> <Gold.Protein.RotatedAtoms>
    4.8444   -8.8494    4.6637 H   0  0  0  0  0  0  0  0  0  0  0  0  # atno 1303 bound_to 1298
    0.8468   -8.0719    7.0465 H   0  0  0  0  0  0  0  0  0  0  0  0  # atno 2461 bound_to 2456
   -4.3202   -4.7992    7.7007 H   0  0  0  0  0  0  0  0  0  0  0  0  # atno 2472 bound_to 2467
    2.5999   -9.2574    5.3005 H   0  0  0  0  0  0  0  0  0  0  0  0  # atno 2515 bound_to 2510
   -2.8881  -17.1770   14.7542 H   0  0  0  0  0  0  0  0  0  0  0  0  # atno 3721 bound_to 3712
   -4.5128  -22.1376   11.6400 H   0  0  0  0  0  0  0  0  0  0  0  0  # atno 3767 bound_to 3762
    1.7269  -20.4735    9.5528 H   0  0  0  0  0  0  0  0  0  0  0  0  # atno 3841 bound_to 3832
    4.0353  -10.2677    4.6511 LP  0  0  0  0  0  0  0  0  0  0  0  0  # atno 4297 bound_to 1298
    3.4823   -9.0044    3.7766 LP  0  0  0  0  0  0  0  0  0  0  0  0  # atno 4298 bound_to 1298
    0.7320   -9.2444    8.1776 LP  0  0  0  0  0  0  0  0  0  0  0  0  # atno 4299 bound_to 2456
    2.1588   -8.4917    7.9238 LP  0  0  0  0  0  0  0  0  0  0  0  0  # atno 4300 bound_to 2456
    2.0303   -7.8670    5.9394 LP  0  0  0  0  0  0  0  0  0  0  0  0  # atno 4301 bound_to 2510
    2.6664   -7.8743    4.4354 LP  0  0  0  0  0  0  0  0  0  0  0  0  # atno 4302 bound_to 2510
   -3.5059  -16.7454   13.3364 LP  0  0  0  0  0  0  0  0  0  0  0  0  # atno 4306 bound_to 3712
   -2.6874  -18.1497   13.4927 LP  0  0  0  0  0  0  0  0  0  0  0  0  # atno 4307 bound_to 3712
    2.1620  -19.6575    8.2410 LP  0  0  0  0  0  0  0  0  0  0  0  0  # atno 4314 bound_to 3832
    3.0725  -20.8978    8.7878 LP  0  0  0  0  0  0  0  0  0  0  0  0  # atno 4315 bound_to 3832
   -4.1336  -23.3167   10.5757 LP  0  0  0  0  0  0  0  0  0  0  0  0  # atno 4318 bound_to 3762
   -5.4808  -22.4205   10.3556 LP  0  0  0  0  0  0  0  0  0  0  0  0  # atno 4319 bound_to 3762
   -3.9161   -5.2954    9.2030 LP  0  0  0  0  0  0  0  0  0  0  0  0  # atno 4320 bound_to 2467
   -5.4806   -5.2989    8.7352 LP  0  0  0  0  0  0  0  0  0  0  0  0  # atno 4321 bound_to 2467

> <Gold.Score>
     Score     S(PLP)   S(hbond)     S(cho)   S(metal)  DE(clash)   DE(tors)     intcor
     40.94     -32.09       2.98       0.00       0.00       0.00       0.05       0.00

> <Gold.PLP.Fitness>
40.9351

> <Gold.PLP.PLP>
-32.0888

> <Gold.PLP.part.hbond>
-2.0000

> <Gold.PLP.part.metal>
0.0000

> <Gold.PLP.part.buried>
-3.9952

> <Gold.PLP.part.nonpolar>
-27.1849

> <Gold.PLP.part.repulsive>
0.0801

> <Gold.PLP.ligand.clash>
0.0000

> <Gold.PLP.ligand.torsion>
0.0507

> <Gold.PLP.Chemscore.Hbond>
2.9825

> <Gold.PLP.Chemscore.CHOScore>
0.0000

> <Gold.PLP.Chemscore.Metal>
0.0000

> <Gold.Chemscore.Hbonds>
donor molecule, donor type, donor heavy atom, donor atom, acceptor molecule, acceptor atom, score
      L1  H     3    29       P1  1227  1.98
      P1  H  3832  3841       L1    14  1.00

> <Gold.PLP.Chemscore.Internal.Correction>
0.0003

