#       Name:                plp ligand
#       Creating user name   fsindt
#       Creation time:       Mon Feb 27 18:29:07 2023


#       File generated by GOLD software.
#

@<TRIPOS>MOLECULE
plp ligand
    29    29     1
SMALL
USER_CHARGES


@<TRIPOS>ATOM
      1 C1          -2.6973   1.5442  -0.4641 NONPOLAR       1 <1>                0.0000
      2 C2          -2.1668   0.3249   0.2927 NONPOLAR       1 <1>                0.0000
      3 N3          -0.8038   0.0207  -0.1629 DONOR          1 <1>                1.0000
      4 C4          -0.2961  -1.1491   0.5640 NONPOLAR       1 <1>                0.0000
      5 C5           1.0916  -1.5196   0.0363 NONPOLAR       1 <1>                0.0000
      6 C6           2.0424  -0.3368   0.2418 NONPOLAR       1 <1>                0.0000
      7 O7           2.1807  -0.0721   1.6392 DONACC         1 <1>                0.0000
      8 C8           1.4655   0.8969  -0.4585 NONPOLAR       1 <1>                0.0000
      9 C9           0.0639   1.1778   0.0876 NONPOLAR       1 <1>                0.0000
     10 C10          3.3596  -0.6589  -0.3309 NONPOLAR       1 <1>                0.0000
     11 C11          4.4102  -0.9157  -0.7877 NONPOLAR       1 <1>                0.0000
     12 C12         -3.0609  -0.8589   0.0279 NONPOLAR       1 <1>                0.0000
     13 O13         -2.8305  -1.5983  -0.9138 ACCEPTOR       1 <1>                0.0000
     14 O14         -4.0147  -1.0774   0.7553 ACCEPTOR       1 <1>               -1.0000
     15 H15         -2.7106   1.3308  -1.5330                1 <1>                0.0000
     16 H16         -3.7087   1.7699  -0.1261                1 <1>                0.0000
     17 H17         -2.0506   2.4004  -0.2726                1 <1>                0.0000
     18 H18         -2.1535   0.5382   1.3616                1 <1>                0.0000
     19 H19         -0.2298  -0.9154   1.6266                1 <1>                0.0000
     20 H20         -0.9755  -1.9891   0.4194                1 <1>                0.0000
     21 H21          1.4675  -2.3872   0.5785                1 <1>                0.0000
     22 H22          1.0263  -1.7538  -1.0263                1 <1>                0.0000
     23 H23          2.1086   1.7565  -0.2700                1 <1>                0.0000
     24 H24          1.4080   0.7128  -1.5313                1 <1>                0.0000
     25 H25         -0.3497   2.0557  -0.4087                1 <1>                0.0000
     26 H26          0.1226   1.3620   1.1603                1 <1>                0.0000
     27 H27          5.3497  -1.1455  -1.1962                1 <1>                0.0000
     28 H28          2.7704   0.6667   1.8431                1 <1>                0.0000
     29 H29         -0.8175  -0.1790  -1.1518                1 <1>                0.0000
@<TRIPOS>BOND
    1    1    2 1     
    2    1   15 1     
    3    1   16 1     
    4    1   17 1     
    5    2    3 1     
    6    2   12 1     
    7    2   18 1     
    8    3    4 1     
    9    3    9 1     
   10    3   29 1     
   11    4    5 1     
   12    4   19 1     
   13    4   20 1     
   14    5    6 1     
   15    5   21 1     
   16    5   22 1     
   17    6    7 1     
   18    6    8 1     
   19    6   10 1     
   20    7   28 1     
   21    8    9 1     
   22    8   23 1     
   23    8   24 1     
   24    9   25 1     
   25    9   26 1     
   26   10   11 3     
   27   11   27 1     
   28   12   13 ar    
   29   12   14 ar    
@<TRIPOS>SUBSTRUCTURE
      1 ****           1
@<TRIPOS>SET
DONOR_HYDROGENS      STATIC     ATOMS    <user>   **** ""
2 29 28
ATOM$RED        STATIC     ATOMS    COLORGROUP SYSTEM
2 29 28
