#       Name:                EN300-256216_i001
#       Creating user name   fsindt
#       Creation time:       Mon Feb 27 23:22:12 2023


#       File generated by GOLD software.
#

@<TRIPOS>MOLECULE
EN300-256216_i001|amine_3|mol2|1236|dock2
    33    34     1
SMALL
USER_CHARGES


@<TRIPOS>ATOM
      1 C1           0.7343 -20.0184  14.1624 C.3            1 <1>                0.0000
      2 C2           0.6672 -18.5109  14.4149 C.3            1 <1>                0.0000
      3 C3          -0.2602 -18.2331  15.5998 C.3            1 <1>                0.0000
      4 C4           2.0685 -17.9834  14.7294 C.3            1 <1>                0.0000
      5 O5           0.1533 -17.8444  13.2316 O.3            1 <1>                0.0000
      6 C6           0.1586 -16.4981  13.2375 C.2            1 <1>                0.0000
      7 O7           0.3361 -15.8958  14.2778 O.2            1 <1>                0.0000
      8 N8          -0.0330 -15.8183  12.0896 N.am           1 <1>                0.0000
      9 C9          -0.2724 -16.1706  10.6793 C.3            1 <1>                0.0000
     10 C10          0.3443 -14.8297  10.3060 C.3            1 <1>                0.0000
     11 C11         -0.0703 -14.0657   9.0506 C.3            1 <1>                0.0000
     12 C12          1.2654 -14.5490   8.4510 C.3            1 <1>                0.0000
     13 N13          1.7320 -14.7056   9.8493 N.4            1 <1>                1.0000
     14 C14         -0.1012 -14.3995  11.6996 C.3            1 <1>                0.0000
     15 H15         -0.2641 -20.3941  13.9383 H              1 <1>                0.0000
     16 H16          1.3949 -20.2163  13.3182 H              1 <1>                0.0000
     17 H17          1.1200 -20.5188  15.0506 H              1 <1>                0.0000
     18 H18          0.1255 -18.7334  16.4880 H              1 <1>                0.0000
     19 H19         -0.3081 -17.1591  15.7796 H              1 <1>                0.0000
     20 H20         -1.2585 -18.6089  15.3756 H              1 <1>                0.0000
     21 H21          2.7291 -18.1813  13.8853 H              1 <1>                0.0000
     22 H22          2.0206 -16.9095  14.9092 H              1 <1>                0.0000
     23 H23          2.4541 -18.4838  15.6176 H              1 <1>                0.0000
     24 H24          0.3103 -17.0270  10.3399 H              1 <1>                0.0000
     25 H25         -1.3290 -16.2499  10.4238 H              1 <1>                0.0000
     26 H26         -0.9496 -14.4775   8.5553 H              1 <1>                0.0000
     27 H27         -0.1249 -12.9861   9.1904 H              1 <1>                0.0000
     28 H28          1.1866 -15.4905   7.9074 H              1 <1>                0.0000
     29 H29          1.7999 -13.7794   7.8943 H              1 <1>                0.0000
     30 H30         -1.1091 -13.9851  11.7257 H              1 <1>                0.0000
     31 H31          0.6270 -13.7733  12.2153 H              1 <1>                0.0000
     32 H32          2.1930 -13.8821  10.2063 H              1 <1>                0.0000
     33 H33          2.2718 -15.5458   9.9937 H              1 <1>                0.0000
@<TRIPOS>BOND
    1    1    2 1     
    2    1   15 1     
    3    1   16 1     
    4    1   17 1     
    5    2    3 1     
    6    2    4 1     
    7    2    5 1     
    8    3   18 1     
    9    3   19 1     
   10    3   20 1     
   11    4   21 1     
   12    4   22 1     
   13    4   23 1     
   14    5    6 1     
   15    6    7 2     
   16    6    8 am    
   17    8    9 1     
   18    8   14 1     
   19    9   10 1     
   20    9   24 1     
   21    9   25 1     
   22   10   11 1     
   23   10   13 1     
   24   10   14 1     
   25   11   12 1     
   26   11   26 1     
   27   11   27 1     
   28   12   13 1     
   29   12   28 1     
   30   12   29 1     
   31   13   32 1     
   32   13   33 1     
   33   14   30 1     
   34   14   31 1     
@<TRIPOS>SUBSTRUCTURE
      1 ****           1
@<TRIPOS>SET
DONOR_HYDROGENS      STATIC     ATOMS    <user>   **** ""
2 32 33
ATOM$RED        STATIC     ATOMS    COLORGROUP SYSTEM
2 32 33
@<TRIPOS>COMMENT
> <Gold.Version>
2022.2.0

> <Gold.Id.Protein>
3pbl|protein|mol2

> <Gold.Protein.RotatedTorsions>
[ 1303 1298 1297 1294 ] final   48.31 input  179.99 | X-H torsion
[ 2461 2456 2455 2452 ] final  161.15 input   30.03 | X-H torsion
[ 2515 2510 2509 2506 ] final  150.09 input  -89.99 | X-H torsion
[ 3721 3712 3711 3710 ] final -120.80 input -179.91 | X-H torsion
[ 3841 3832 3831 3830 ] final -132.98 input -179.91 | X-H torsion
[ 3767 3762 3761 3758 ] final   90.90 input  -89.99 | X-H torsion
[ 2472 2467 2466 2463 ] final  -63.24 input  -89.97 | X-H torsion

> <Gold.Protein.ActiveResidues>
 VAL82   VAL86   LEU89   PHE106  VAL107  ASP110  VAL111  MET112  CYS114  THR115 
 CYS181  SER182  ILE183  PHE188  VAL189  ILE190  SER192  SER193  SER196  TRP342 
 PHE345  PHE346  HIS349  VAL350  TYR365  THR369  GLY372  TYR373 

> <Gold.Protein.RotatedAtoms>
    3.8518  -10.2632    4.5225 H   0  0  0  0  0  0  0  0  0  0  0  0  # atno 1303 bound_to 1298
    1.7282   -9.0857    8.3669 H   0  0  0  0  0  0  0  0  0  0  0  0  # atno 2461 bound_to 2456
   -3.7513   -5.2063    9.0038 H   0  0  0  0  0  0  0  0  0  0  0  0  # atno 2472 bound_to 2467
    2.1444   -8.6444    6.0668 H   0  0  0  0  0  0  0  0  0  0  0  0  # atno 2515 bound_to 2510
   -3.2216  -16.6507   14.3954 H   0  0  0  0  0  0  0  0  0  0  0  0  # atno 3721 bound_to 3712
   -4.1832  -23.3279   10.5126 H   0  0  0  0  0  0  0  0  0  0  0  0  # atno 3767 bound_to 3762
    2.4012  -19.6416    8.3904 H   0  0  0  0  0  0  0  0  0  0  0  0  # atno 3841 bound_to 3832
    3.6108   -8.8213    3.7949 LP  0  0  0  0  0  0  0  0  0  0  0  0  # atno 4297 bound_to 1298
    4.8997   -9.0365    4.7741 LP  0  0  0  0  0  0  0  0  0  0  0  0  # atno 4298 bound_to 1298
    1.6787   -7.9395    7.2045 LP  0  0  0  0  0  0  0  0  0  0  0  0  # atno 4299 bound_to 2456
    0.3311   -8.7832    7.5770 LP  0  0  0  0  0  0  0  0  0  0  0  0  # atno 4300 bound_to 2456
    2.3313   -7.4233    4.9992 LP  0  0  0  0  0  0  0  0  0  0  0  0  # atno 4301 bound_to 2510
    2.8212   -8.9313    4.6089 LP  0  0  0  0  0  0  0  0  0  0  0  0  # atno 4302 bound_to 2510
   -3.1840  -17.3660   12.9585 LP  0  0  0  0  0  0  0  0  0  0  0  0  # atno 4306 bound_to 3712
   -2.6243  -18.1369   14.2848 LP  0  0  0  0  0  0  0  0  0  0  0  0  # atno 4307 bound_to 3712
    2.9674  -21.0275    8.9689 LP  0  0  0  0  0  0  0  0  0  0  0  0  # atno 4314 bound_to 3832
    1.4881  -20.4888    9.4026 LP  0  0  0  0  0  0  0  0  0  0  0  0  # atno 4315 bound_to 3832
   -5.4968  -22.3630   10.4101 LP  0  0  0  0  0  0  0  0  0  0  0  0  # atno 4318 bound_to 3762
   -4.4472  -22.1845   11.6483 LP  0  0  0  0  0  0  0  0  0  0  0  0  # atno 4319 bound_to 3762
   -5.3754   -5.3742    8.9763 LP  0  0  0  0  0  0  0  0  0  0  0  0  # atno 4320 bound_to 2467
   -4.5901   -4.8131    7.6591 LP  0  0  0  0  0  0  0  0  0  0  0  0  # atno 4321 bound_to 2467

> <Gold.Score>
     Score     S(PLP)   S(hbond)     S(cho)   S(metal)  DE(clash)   DE(tors)     intcor
     40.46     -31.55       2.98       0.00       0.00       0.00       0.20       0.39

> <Gold.PLP.Fitness>
40.4635

> <Gold.PLP.PLP>
-31.5467

> <Gold.PLP.part.hbond>
-1.9644

> <Gold.PLP.part.metal>
0.0000

> <Gold.PLP.part.buried>
-5.4751

> <Gold.PLP.part.nonpolar>
-24.7504

> <Gold.PLP.part.repulsive>
0.1226

> <Gold.PLP.ligand.clash>
0.0000

> <Gold.PLP.ligand.torsion>
0.1991

> <Gold.PLP.Chemscore.Hbond>
2.9750

> <Gold.PLP.Chemscore.CHOScore>
0.0000

> <Gold.PLP.Chemscore.Metal>
0.0000

> <Gold.Chemscore.Hbonds>
donor molecule, donor type, donor heavy atom, donor atom, acceptor molecule, acceptor atom, score
      L1  H    13    33       P1  1227  2.00
      P1  H  2305  2313       L1     7  0.98

> <Gold.PLP.Chemscore.Internal.Correction>
0.3900

