#       Name:                EN300-256216_i001
#       Creating user name   fsindt
#       Creation time:       Mon Feb 27 23:22:12 2023


#       File generated by GOLD software.
#

@<TRIPOS>MOLECULE
EN300-256216_i001|amine_3|mol2|1236|dock3
    33    34     1
SMALL
USER_CHARGES


@<TRIPOS>ATOM
      1 C1           1.4027 -13.8019   8.8013 C.3            1 <1>                0.0000
      2 C2           0.6625 -13.3731   7.5328 C.3            1 <1>                0.0000
      3 C3           1.5809 -12.4977   6.6777 C.3            1 <1>                0.0000
      4 C4           0.2541 -14.6140   6.7364 C.3            1 <1>                0.0000
      5 O5          -0.5241 -12.6191   7.8962 O.3            1 <1>                0.0000
      6 C6          -0.3816 -11.6754   8.8458 C.2            1 <1>                0.0000
      7 O7           0.6879 -11.1176   8.9924 O.2            1 <1>                0.0000
      8 N8          -1.4252 -11.3495   9.6339 N.am           1 <1>                0.0000
      9 C9          -2.8279 -11.7807   9.7633 C.3            1 <1>                0.0000
     10 C10         -3.1299 -10.4069  10.3455 C.3            1 <1>                0.0000
     11 C11         -4.2460 -10.1828  11.3632 C.3            1 <1>                0.0000
     12 C12         -5.0389  -9.5699  10.1915 C.3            1 <1>                0.0000
     13 N13         -3.7256  -9.3313   9.5467 N.4            1 <1>                1.0000
     14 C14         -1.6584 -10.4117  10.7456 C.3            1 <1>                0.0000
     15 H15          1.6935 -12.9178   9.3687 H              1 <1>                0.0000
     16 H16          0.7483 -14.4254   9.4105 H              1 <1>                0.0000
     17 H17          2.2933 -14.3679   8.5285 H              1 <1>                0.0000
     18 H18          2.4715 -13.0637   6.4049 H              1 <1>                0.0000
     19 H19          1.0536 -12.1922   5.7740 H              1 <1>                0.0000
     20 H20          1.8718 -11.6136   7.2451 H              1 <1>                0.0000
     21 H21         -0.4002 -15.2376   7.3456 H              1 <1>                0.0000
     22 H22         -0.2732 -14.3085   5.8327 H              1 <1>                0.0000
     23 H23          1.1448 -15.1800   6.4637 H              1 <1>                0.0000
     24 H24         -3.3165 -11.9648   8.8065 H              1 <1>                0.0000
     25 H25         -2.9691 -12.5951  10.4739 H              1 <1>                0.0000
     26 H26         -4.6782 -11.1047  11.7524 H              1 <1>                0.0000
     27 H27         -3.9917  -9.4669  12.1447 H              1 <1>                0.0000
     28 H28         -5.6632 -10.2889   9.6611 H              1 <1>                0.0000
     29 H29         -5.5711  -8.6555  10.4533 H              1 <1>                0.0000
     30 H30         -1.4765 -10.8437  11.7297 H              1 <1>                0.0000
     31 H31         -1.1673  -9.4481  10.6095 H              1 <1>                0.0000
     32 H32         -3.3410  -8.4228   9.7586 H              1 <1>                0.0000
     33 H33         -3.7295  -9.5299   8.5574 H              1 <1>                0.0000
@<TRIPOS>BOND
    1    1    2 1     
    2    1   15 1     
    3    1   16 1     
    4    1   17 1     
    5    2    3 1     
    6    2    4 1     
    7    2    5 1     
    8    3   18 1     
    9    3   19 1     
   10    3   20 1     
   11    4   21 1     
   12    4   22 1     
   13    4   23 1     
   14    5    6 1     
   15    6    7 2     
   16    6    8 am    
   17    8    9 1     
   18    8   14 1     
   19    9   10 1     
   20    9   24 1     
   21    9   25 1     
   22   10   11 1     
   23   10   13 1     
   24   10   14 1     
   25   11   12 1     
   26   11   26 1     
   27   11   27 1     
   28   12   13 1     
   29   12   28 1     
   30   12   29 1     
   31   13   32 1     
   32   13   33 1     
   33   14   30 1     
   34   14   31 1     
@<TRIPOS>SUBSTRUCTURE
      1 ****           1
@<TRIPOS>SET
DONOR_HYDROGENS      STATIC     ATOMS    <user>   **** ""
2 32 33
ATOM$RED        STATIC     ATOMS    COLORGROUP SYSTEM
2 32 33
@<TRIPOS>COMMENT
> <Gold.Version>
2022.2.0

> <Gold.Id.Protein>
3pbl|protein|mol2

> <Gold.Protein.RotatedTorsions>
[ 1303 1298 1297 1294 ] final  138.09 input  179.99 | X-H torsion
[ 2461 2456 2455 2452 ] final -154.15 input   30.03 | X-H torsion
[ 2515 2510 2509 2506 ] final -101.88 input  -89.99 | X-H torsion
[ 3721 3712 3711 3710 ] final  -10.27 input -179.91 | X-H torsion
[ 3841 3832 3831 3830 ] final  -37.10 input -179.91 | X-H torsion
[ 3767 3762 3761 3758 ] final -166.56 input  -89.99 | X-H torsion
[ 2472 2467 2466 2463 ] final  156.86 input  -89.97 | X-H torsion

> <Gold.Protein.ActiveResidues>
 VAL82   VAL86   LEU89   PHE106  VAL107  ASP110  VAL111  MET112  CYS114  THR115 
 CYS181  SER182  ILE183  PHE188  VAL189  ILE190  SER192  SER193  SER196  TRP342 
 PHE345  PHE346  HIS349  VAL350  TYR365  THR369  GLY372  TYR373 

> <Gold.Protein.RotatedAtoms>
    4.8635   -9.5013    4.9300 H   0  0  0  0  0  0  0  0  0  0  0  0  # atno 1303 bound_to 1298
    1.0412   -9.2887    8.3299 H   0  0  0  0  0  0  0  0  0  0  0  0  # atno 2461 bound_to 2456
   -5.4922   -5.2833    8.6861 H   0  0  0  0  0  0  0  0  0  0  0  0  # atno 2472 bound_to 2467
    2.7903   -9.0642    4.7504 H   0  0  0  0  0  0  0  0  0  0  0  0  # atno 2515 bound_to 2510
   -2.5151  -17.8865   14.3777 H   0  0  0  0  0  0  0  0  0  0  0  0  # atno 3721 bound_to 3712
   -4.2313  -22.3714   11.6294 H   0  0  0  0  0  0  0  0  0  0  0  0  # atno 3767 bound_to 3762
    1.5617  -20.0485    9.2745 H   0  0  0  0  0  0  0  0  0  0  0  0  # atno 3841 bound_to 3832
    3.5138  -10.0800    4.2160 LP  0  0  0  0  0  0  0  0  0  0  0  0  # atno 4297 bound_to 1298
    3.9845   -8.5399    3.9454 LP  0  0  0  0  0  0  0  0  0  0  0  0  # atno 4298 bound_to 1298
    2.1209   -8.2541    7.6732 LP  0  0  0  0  0  0  0  0  0  0  0  0  # atno 4299 bound_to 2456
    0.5756   -8.2655    7.1452 LP  0  0  0  0  0  0  0  0  0  0  0  0  # atno 4300 bound_to 2456
    2.0918   -8.4572    6.0955 LP  0  0  0  0  0  0  0  0  0  0  0  0  # atno 4301 bound_to 2510
    2.4145   -7.4773    4.8297 LP  0  0  0  0  0  0  0  0  0  0  0  0  # atno 4302 bound_to 2510
   -3.4939  -16.6158   14.3066 LP  0  0  0  0  0  0  0  0  0  0  0  0  # atno 4306 bound_to 3712
   -3.1300  -17.4603   12.9571 LP  0  0  0  0  0  0  0  0  0  0  0  0  # atno 4307 bound_to 3712
    2.6876  -19.9075    8.1394 LP  0  0  0  0  0  0  0  0  0  0  0  0  # atno 4314 bound_to 3832
    2.7378  -21.1388    9.2108 LP  0  0  0  0  0  0  0  0  0  0  0  0  # atno 4315 bound_to 3832
   -4.3898  -23.3267   10.3144 LP  0  0  0  0  0  0  0  0  0  0  0  0  # atno 4318 bound_to 3762
   -5.5061  -22.1768   10.6275 LP  0  0  0  0  0  0  0  0  0  0  0  0  # atno 4319 bound_to 3762
   -4.2700   -4.7989    7.7175 LP  0  0  0  0  0  0  0  0  0  0  0  0  # atno 4320 bound_to 2467
   -3.9548   -5.3114    9.2356 LP  0  0  0  0  0  0  0  0  0  0  0  0  # atno 4321 bound_to 2467

> <Gold.Score>
     Score     S(PLP)   S(hbond)     S(cho)   S(metal)  DE(clash)   DE(tors)     intcor
     50.10     -45.19       1.86       0.00       0.00       0.00       0.53       0.39

> <Gold.PLP.Fitness>
50.1044

> <Gold.PLP.PLP>
-45.1899

> <Gold.PLP.part.hbond>
-1.8872

> <Gold.PLP.part.metal>
0.0000

> <Gold.PLP.part.buried>
-3.4644

> <Gold.PLP.part.nonpolar>
-40.7196

> <Gold.PLP.part.repulsive>
0.0734

> <Gold.PLP.ligand.clash>
0.0000

> <Gold.PLP.ligand.torsion>
0.5296

> <Gold.PLP.Chemscore.Hbond>
1.8613

> <Gold.PLP.Chemscore.CHOScore>
0.0000

> <Gold.PLP.Chemscore.Metal>
0.0000

> <Gold.Chemscore.Hbonds>
donor molecule, donor type, donor heavy atom, donor atom, acceptor molecule, acceptor atom, score
      L1  H    13    32       P1  2398  0.86
      P1  H  2456  2461       L1     7  1.00

> <Gold.PLP.Chemscore.Internal.Correction>
0.3900

