#       Name:                EN300-256216_i001
#       Creating user name   fsindt
#       Creation time:       Mon Feb 27 23:22:16 2023


#       File generated by GOLD software.
#

@<TRIPOS>MOLECULE
EN300-256216_i001|amine_3|mol2|1236|dock9
    33    34     1
SMALL
USER_CHARGES


@<TRIPOS>ATOM
      1 C1          -2.7177 -11.1894  11.4165 C.3            1 <1>                0.0000
      2 C2          -3.1926 -10.6182  10.0789 C.3            1 <1>                0.0000
      3 C3          -4.6938 -10.8689   9.9215 C.3            1 <1>                0.0000
      4 C4          -2.9202  -9.1131  10.0415 C.3            1 <1>                0.0000
      5 O5          -2.4773 -11.2667   8.9944 O.3            1 <1>                0.0000
      6 C6          -1.1362 -11.3262   9.0960 C.2            1 <1>                0.0000
      7 O7          -0.5432 -10.5232   9.7888 O.2            1 <1>                0.0000
      8 N8          -0.4513 -12.2763   8.4291 N.am           1 <1>                0.0000
      9 C9          -0.7927 -13.3868   7.5233 C.3            1 <1>                0.0000
     10 C10          0.4893 -14.0692   7.9800 C.3            1 <1>                0.0000
     11 C11          1.2759 -15.0121   7.0724 C.3            1 <1>                0.0000
     12 C12          0.6784 -16.1499   7.9242 C.3            1 <1>                0.0000
     13 N13          0.4937 -15.1341   8.9878 N.4            1 <1>                1.0000
     14 C14          0.9654 -12.6524   8.2830 C.3            1 <1>                0.0000
     15 H15         -2.9117 -12.2616  11.4431 H              1 <1>                0.0000
     16 H16         -1.6482 -11.0108  11.5286 H              1 <1>                0.0000
     17 H17         -3.2546 -10.7026  12.2306 H              1 <1>                0.0000
     18 H18         -5.2307 -10.3822  10.7357 H              1 <1>                0.0000
     19 H19         -5.0321 -10.4621   8.9686 H              1 <1>                0.0000
     20 H20         -4.8877 -11.9413   9.9482 H              1 <1>                0.0000
     21 H21         -1.8509  -8.9345  10.1536 H              1 <1>                0.0000
     22 H22         -3.2586  -8.7063   9.0886 H              1 <1>                0.0000
     23 H23         -3.4572  -8.6264  10.8556 H              1 <1>                0.0000
     24 H24         -1.6972 -13.9218   7.8127 H              1 <1>                0.0000
     25 H25         -0.7853 -13.1072   6.4699 H              1 <1>                0.0000
     26 H26          0.9354 -15.0120   6.0370 H              1 <1>                0.0000
     27 H27          2.3573 -14.9132   7.1666 H              1 <1>                0.0000
     28 H28         -0.2572 -16.5472   7.5305 H              1 <1>                0.0000
     29 H29          1.3966 -16.9282   8.1815 H              1 <1>                0.0000
     30 H30          1.4627 -12.1711   7.4408 H              1 <1>                0.0000
     31 H31          1.5324 -12.5729   9.2105 H              1 <1>                0.0000
     32 H32          1.2785 -15.0766   9.6195 H              1 <1>                0.0000
     33 H33         -0.3875 -15.2240   9.4710 H              1 <1>                0.0000
@<TRIPOS>BOND
    1    1    2 1     
    2    1   15 1     
    3    1   16 1     
    4    1   17 1     
    5    2    3 1     
    6    2    4 1     
    7    2    5 1     
    8    3   18 1     
    9    3   19 1     
   10    3   20 1     
   11    4   21 1     
   12    4   22 1     
   13    4   23 1     
   14    5    6 1     
   15    6    7 2     
   16    6    8 am    
   17    8    9 1     
   18    8   14 1     
   19    9   10 1     
   20    9   24 1     
   21    9   25 1     
   22   10   11 1     
   23   10   13 1     
   24   10   14 1     
   25   11   12 1     
   26   11   26 1     
   27   11   27 1     
   28   12   13 1     
   29   12   28 1     
   30   12   29 1     
   31   13   32 1     
   32   13   33 1     
   33   14   30 1     
   34   14   31 1     
@<TRIPOS>SUBSTRUCTURE
      1 ****           1
@<TRIPOS>SET
DONOR_HYDROGENS      STATIC     ATOMS    <user>   **** ""
2 32 33
ATOM$RED        STATIC     ATOMS    COLORGROUP SYSTEM
2 32 33
@<TRIPOS>COMMENT
> <Gold.Version>
2022.2.0

> <Gold.Id.Protein>
3pbl|protein|mol2

> <Gold.Protein.RotatedTorsions>
[ 1303 1298 1297 1294 ] final   39.81 input  179.99 | X-H torsion
[ 2461 2456 2455 2452 ] final -135.93 input   30.03 | X-H torsion
[ 2515 2510 2509 2506 ] final   30.93 input  -89.99 | X-H torsion
[ 3721 3712 3711 3710 ] final  168.53 input -179.91 | X-H torsion
[ 3841 3832 3831 3830 ] final -101.19 input -179.91 | X-H torsion
[ 3767 3762 3761 3758 ] final  -91.42 input  -89.99 | X-H torsion
[ 2472 2467 2466 2463 ] final  147.65 input  -89.97 | X-H torsion

> <Gold.Protein.ActiveResidues>
 VAL82   VAL86   LEU89   PHE106  VAL107  ASP110  VAL111  MET112  CYS114  THR115 
 CYS181  SER182  ILE183  PHE188  VAL189  ILE190  SER192  SER193  SER196  TRP342 
 PHE345  PHE346  HIS349  VAL350  TYR365  THR369  GLY372  TYR373 

> <Gold.Protein.RotatedAtoms>
    3.7448  -10.2350    4.4372 H   0  0  0  0  0  0  0  0  0  0  0  0  # atno 1303 bound_to 1298
    0.7725   -9.2564    8.2039 H   0  0  0  0  0  0  0  0  0  0  0  0  # atno 2461 bound_to 2456
   -5.5095   -5.2340    8.5440 H   0  0  0  0  0  0  0  0  0  0  0  0  # atno 2472 bound_to 2467
    2.3257   -7.4212    5.0118 H   0  0  0  0  0  0  0  0  0  0  0  0  # atno 2515 bound_to 2510
   -3.2895  -16.6873   13.3964 H   0  0  0  0  0  0  0  0  0  0  0  0  # atno 3721 bound_to 3712
   -5.2095  -21.9179   11.2297 H   0  0  0  0  0  0  0  0  0  0  0  0  # atno 3767 bound_to 3762
    1.9800  -19.5852    8.6007 H   0  0  0  0  0  0  0  0  0  0  0  0  # atno 3841 bound_to 3832
    3.7058   -8.7227    3.8227 LP  0  0  0  0  0  0  0  0  0  0  0  0  # atno 4297 bound_to 1298
    4.9118   -9.1632    4.8317 LP  0  0  0  0  0  0  0  0  0  0  0  0  # atno 4298 bound_to 1298
    2.1610   -8.4562    7.8891 LP  0  0  0  0  0  0  0  0  0  0  0  0  # atno 4299 bound_to 2456
    0.8041   -8.0957    7.0553 LP  0  0  0  0  0  0  0  0  0  0  0  0  # atno 4300 bound_to 2456
    2.8227   -8.9210    4.5999 LP  0  0  0  0  0  0  0  0  0  0  0  0  # atno 4301 bound_to 2510
    2.1484   -8.6574    6.0636 LP  0  0  0  0  0  0  0  0  0  0  0  0  # atno 4302 bound_to 2510
   -2.6753  -18.1644   13.5333 LP  0  0  0  0  0  0  0  0  0  0  0  0  # atno 4306 bound_to 3712
   -3.0546  -17.2962   14.8633 LP  0  0  0  0  0  0  0  0  0  0  0  0  # atno 4307 bound_to 3712
    3.1266  -20.7082    8.5845 LP  0  0  0  0  0  0  0  0  0  0  0  0  # atno 4314 bound_to 3832
    1.8155  -20.8732    9.5440 LP  0  0  0  0  0  0  0  0  0  0  0  0  # atno 4315 bound_to 3832
   -3.9162  -22.9140   11.2773 LP  0  0  0  0  0  0  0  0  0  0  0  0  # atno 4318 bound_to 3762
   -5.0019  -23.0429   10.0643 LP  0  0  0  0  0  0  0  0  0  0  0  0  # atno 4319 bound_to 3762
   -4.1319   -4.8059    7.7789 LP  0  0  0  0  0  0  0  0  0  0  0  0  # atno 4320 bound_to 2467
   -4.0757   -5.3537    9.3162 LP  0  0  0  0  0  0  0  0  0  0  0  0  # atno 4321 bound_to 2467

> <Gold.Score>
     Score     S(PLP)   S(hbond)     S(cho)   S(metal)  DE(clash)   DE(tors)     intcor
     39.46     -39.29       0.20       0.00       0.00       0.00       0.41       0.39

> <Gold.PLP.Fitness>
39.4604

> <Gold.PLP.PLP>
-39.2855

> <Gold.PLP.part.hbond>
-0.5542

> <Gold.PLP.part.metal>
0.0000

> <Gold.PLP.part.buried>
4.5920

> <Gold.PLP.part.nonpolar>
-44.0449

> <Gold.PLP.part.repulsive>
0.0179

> <Gold.PLP.ligand.clash>
0.0000

> <Gold.PLP.ligand.torsion>
0.4117

> <Gold.PLP.Chemscore.Hbond>
0.2028

> <Gold.PLP.Chemscore.CHOScore>
0.0000

> <Gold.PLP.Chemscore.Metal>
0.0000

> <Gold.Chemscore.Hbonds>
donor molecule, donor type, donor heavy atom, donor atom, acceptor molecule, acceptor atom, score
      P1  H  2456  2461       L1     7  0.20

> <Gold.PLP.Chemscore.Internal.Correction>
0.3900

