#       Name:                EN300-256216_i001
#       Creating user name   fsindt
#       Creation time:       Mon Feb 27 23:22:15 2023


#       File generated by GOLD software.
#

@<TRIPOS>MOLECULE
EN300-256216_i001|amine_3|mol2|1236|dock8
    33    34     1
SMALL
USER_CHARGES


@<TRIPOS>ATOM
      1 C1          -1.5349  -9.3416  10.2032 C.3            1 <1>                0.0000
      2 C2          -2.0765 -10.7724  10.1869 C.3            1 <1>                0.0000
      3 C3          -1.5907 -11.5158  11.4329 C.3            1 <1>                0.0000
      4 C4          -3.6061 -10.7388  10.1771 C.3            1 <1>                0.0000
      5 O5          -1.5997 -11.4570   8.9984 O.3            1 <1>                0.0000
      6 C6          -0.2945 -11.7854   8.9643 C.2            1 <1>                0.0000
      7 O7           0.5197 -11.1010   9.5517 O.2            1 <1>                0.0000
      8 N8           0.1090 -12.8732   8.2786 N.am           1 <1>                0.0000
      9 C9          -0.5452 -13.9158   7.4691 C.3            1 <1>                0.0000
     10 C10          0.6176 -14.8319   7.8247 C.3            1 <1>                0.0000
     11 C11          1.0949 -15.9400   6.8890 C.3            1 <1>                0.0000
     12 C12          0.3807 -16.9082   7.8532 C.3            1 <1>                0.0000
     13 N13          0.5212 -15.8468   8.8784 N.4            1 <1>                1.0000
     14 C14          1.3972 -13.5338   8.0063 C.3            1 <1>                0.0000
     15 H15         -0.4452  -9.3656  10.2102 H              1 <1>                0.0000
     16 H16         -1.8809  -8.8121   9.3155 H              1 <1>                0.0000
     17 H17         -1.8928  -8.8277  11.0953 H              1 <1>                0.0000
     18 H18         -1.9485 -11.0019  12.3251 H              1 <1>                0.0000
     19 H19         -1.9764 -12.5351  11.4214 H              1 <1>                0.0000
     20 H20         -0.5009 -11.5397  11.4399 H              1 <1>                0.0000
     21 H21         -3.9521 -10.2093   9.2895 H              1 <1>                0.0000
     22 H22         -3.9918 -11.7582  10.1655 H              1 <1>                0.0000
     23 H23         -3.9638 -10.2249  11.0693 H              1 <1>                0.0000
     24 H24         -1.5005 -14.2472   7.8761 H              1 <1>                0.0000
     25 H25         -0.5990 -13.6730   6.4078 H              1 <1>                0.0000
     26 H26          0.6486 -15.8996   5.8954 H              1 <1>                0.0000
     27 H27          2.1779 -16.0608   6.8663 H              1 <1>                0.0000
     28 H28         -0.6531 -17.1176   7.5780 H              1 <1>                0.0000
     29 H29          0.9533 -17.8090   8.0736 H              1 <1>                0.0000
     30 H30          1.8840 -13.1875   7.0945 H              1 <1>                0.0000
     31 H31          2.0679 -13.5456   8.8655 H              1 <1>                0.0000
     32 H32          1.3668 -15.9328   9.4223 H              1 <1>                0.0000
     33 H33         -0.3012 -15.7420   9.4536 H              1 <1>                0.0000
@<TRIPOS>BOND
    1    1    2 1     
    2    1   15 1     
    3    1   16 1     
    4    1   17 1     
    5    2    3 1     
    6    2    4 1     
    7    2    5 1     
    8    3   18 1     
    9    3   19 1     
   10    3   20 1     
   11    4   21 1     
   12    4   22 1     
   13    4   23 1     
   14    5    6 1     
   15    6    7 2     
   16    6    8 am    
   17    8    9 1     
   18    8   14 1     
   19    9   10 1     
   20    9   24 1     
   21    9   25 1     
   22   10   11 1     
   23   10   13 1     
   24   10   14 1     
   25   11   12 1     
   26   11   26 1     
   27   11   27 1     
   28   12   13 1     
   29   12   28 1     
   30   12   29 1     
   31   13   32 1     
   32   13   33 1     
   33   14   30 1     
   34   14   31 1     
@<TRIPOS>SUBSTRUCTURE
      1 ****           1
@<TRIPOS>SET
DONOR_HYDROGENS      STATIC     ATOMS    <user>   **** ""
2 32 33
ATOM$RED        STATIC     ATOMS    COLORGROUP SYSTEM
2 32 33
@<TRIPOS>COMMENT
> <Gold.Version>
2022.2.0

> <Gold.Id.Protein>
3pbl|protein|mol2

> <Gold.Protein.RotatedTorsions>
[ 1303 1298 1297 1294 ] final  -19.90 input  179.99 | X-H torsion
[ 2461 2456 2455 2452 ] final -164.27 input   30.03 | X-H torsion
[ 2515 2510 2509 2506 ] final  -47.31 input  -89.99 | X-H torsion
[ 3721 3712 3711 3710 ] final -123.35 input -179.91 | X-H torsion
[ 3841 3832 3831 3830 ] final  -26.83 input -179.91 | X-H torsion
[ 3767 3762 3761 3758 ] final  136.34 input  -89.99 | X-H torsion
[ 2472 2467 2466 2463 ] final  -16.77 input  -89.97 | X-H torsion

> <Gold.Protein.ActiveResidues>
 VAL82   VAL86   LEU89   PHE106  VAL107  ASP110  VAL111  MET112  CYS114  THR115 
 CYS181  SER182  ILE183  PHE188  VAL189  ILE190  SER192  SER193  SER196  TRP342 
 PHE345  PHE346  HIS349  VAL350  TYR365  THR369  GLY372  TYR373 

> <Gold.Protein.RotatedAtoms>
    3.3299   -9.5886    3.8981 H   0  0  0  0  0  0  0  0  0  0  0  0  # atno 1303 bound_to 1298
    1.2012   -9.2769    8.3740 H   0  0  0  0  0  0  0  0  0  0  0  0  # atno 2461 bound_to 2456
   -3.6781   -4.9482    8.3100 H   0  0  0  0  0  0  0  0  0  0  0  0  # atno 2472 bound_to 2467
    2.7916   -8.2961    4.3546 H   0  0  0  0  0  0  0  0  0  0  0  0  # atno 2515 bound_to 2510
   -3.2345  -16.6331   14.3636 H   0  0  0  0  0  0  0  0  0  0  0  0  # atno 3721 bound_to 3712
   -3.9082  -23.0447   11.1247 H   0  0  0  0  0  0  0  0  0  0  0  0  # atno 3767 bound_to 3762
    1.5790  -20.1684    9.3712 H   0  0  0  0  0  0  0  0  0  0  0  0  # atno 3841 bound_to 3832
    4.4932   -8.5110    4.2877 LP  0  0  0  0  0  0  0  0  0  0  0  0  # atno 4297 bound_to 1298
    4.5394  -10.0217    4.9060 LP  0  0  0  0  0  0  0  0  0  0  0  0  # atno 4298 bound_to 1298
    2.0600   -8.1557    7.5537 LP  0  0  0  0  0  0  0  0  0  0  0  0  # atno 4299 bound_to 2456
    0.4765   -8.3757    7.2207 LP  0  0  0  0  0  0  0  0  0  0  0  0  # atno 4300 bound_to 2456
    2.4116   -9.1517    5.6923 LP  0  0  0  0  0  0  0  0  0  0  0  0  # atno 4301 bound_to 2510
    2.0933   -7.5513    5.6288 LP  0  0  0  0  0  0  0  0  0  0  0  0  # atno 4302 bound_to 2510
   -3.1629  -17.4030   12.9565 LP  0  0  0  0  0  0  0  0  0  0  0  0  # atno 4306 bound_to 3712
   -2.6304  -18.1201   14.3235 LP  0  0  0  0  0  0  0  0  0  0  0  0  # atno 4307 bound_to 3712
    2.5458  -19.8111    8.1408 LP  0  0  0  0  0  0  0  0  0  0  0  0  # atno 4314 bound_to 3832
    2.8595  -21.0967    9.0977 LP  0  0  0  0  0  0  0  0  0  0  0  0  # atno 4315 bound_to 3832
   -5.1534  -22.9117   10.0765 LP  0  0  0  0  0  0  0  0  0  0  0  0  # atno 4318 bound_to 3762
   -5.0654  -21.9188   11.3700 LP  0  0  0  0  0  0  0  0  0  0  0  0  # atno 4319 bound_to 3762
   -4.7743   -5.4627    9.4055 LP  0  0  0  0  0  0  0  0  0  0  0  0  # atno 4320 bound_to 2467
   -5.2643   -4.9826    7.9236 LP  0  0  0  0  0  0  0  0  0  0  0  0  # atno 4321 bound_to 2467

> <Gold.Score>
     Score     S(PLP)   S(hbond)     S(cho)   S(metal)  DE(clash)   DE(tors)     intcor
     52.20     -47.53       1.74       0.00       0.00       0.00       0.48       0.39

> <Gold.PLP.Fitness>
52.1958

> <Gold.PLP.PLP>
-47.5298

> <Gold.PLP.part.hbond>
-1.5652

> <Gold.PLP.part.metal>
0.0000

> <Gold.PLP.part.buried>
-0.5395

> <Gold.PLP.part.nonpolar>
-46.1359

> <Gold.PLP.part.repulsive>
0.0000

> <Gold.PLP.ligand.clash>
0.0000

> <Gold.PLP.ligand.torsion>
0.4756

> <Gold.PLP.Chemscore.Hbond>
1.7424

> <Gold.PLP.Chemscore.CHOScore>
0.0000

> <Gold.PLP.Chemscore.Metal>
0.0000

> <Gold.Chemscore.Hbonds>
donor molecule, donor type, donor heavy atom, donor atom, acceptor molecule, acceptor atom, score
      L1  H    13    32       P1  1227  1.17
      P1  H  2456  2461       L1     7  0.57

> <Gold.PLP.Chemscore.Internal.Correction>
0.3900

