#       Name:                EN300-256216_i001
#       Creating user name   fsindt
#       Creation time:       Mon Feb 27 23:22:14 2023


#       File generated by GOLD software.
#

@<TRIPOS>MOLECULE
EN300-256216_i001|amine_3|mol2|1236|dock6
    33    34     1
SMALL
USER_CHARGES


@<TRIPOS>ATOM
      1 C1           0.6768 -15.3705   8.1631 C.3            1 <1>                0.0000
      2 C2           0.5688 -13.8942   7.7762 C.3            1 <1>                0.0000
      3 C3           1.9448 -13.3760   7.3528 C.3            1 <1>                0.0000
      4 C4          -0.4135 -13.7422   6.6131 C.3            1 <1>                0.0000
      5 O5           0.0930 -13.1290   8.9149 O.3            1 <1>                0.0000
      6 C6          -0.2490 -11.8465   8.6897 C.2            1 <1>                0.0000
      7 O7           0.3070 -11.2143   7.8135 O.2            1 <1>                0.0000
      8 N8          -1.2081 -11.2637   9.4360 N.am           1 <1>                0.0000
      9 C9          -2.0810 -11.6785  10.5478 C.3            1 <1>                0.0000
     10 C10         -3.0669 -10.6139  10.0869 C.3            1 <1>                0.0000
     11 C11         -4.0037  -9.8989  11.0577 C.3            1 <1>                0.0000
     12 C12         -5.1115 -10.8008  10.4775 C.3            1 <1>                0.0000
     13 N13         -4.2480 -10.9367   9.2804 N.4            1 <1>                1.0000
     14 C14         -1.8353  -9.9324   9.5000 C.3            1 <1>                0.0000
     15 H15          1.3767 -15.4787   8.9917 H              1 <1>                0.0000
     16 H16         -0.3034 -15.7396   8.4648 H              1 <1>                0.0000
     17 H17          1.0341 -15.9449   7.3084 H              1 <1>                0.0000
     18 H18          2.3020 -13.9503   6.4981 H              1 <1>                0.0000
     19 H19          1.8679 -12.3242   7.0772 H              1 <1>                0.0000
     20 H20          2.6446 -13.4843   8.1815 H              1 <1>                0.0000
     21 H21         -1.3937 -14.1113   6.9148 H              1 <1>                0.0000
     22 H22         -0.4904 -12.6904   6.3376 H              1 <1>                0.0000
     23 H23         -0.0562 -14.3166   5.7585 H              1 <1>                0.0000
     24 H24         -2.4602 -12.6955  10.4472 H              1 <1>                0.0000
     25 H25         -1.6559 -11.4811  11.5319 H              1 <1>                0.0000
     26 H26         -3.7822 -10.0936  12.1070 H              1 <1>                0.0000
     27 H27         -4.1391  -8.8397  10.8390 H              1 <1>                0.0000
     28 H28         -5.2501 -11.7325  11.0260 H              1 <1>                0.0000
     29 H29         -6.0476 -10.2766  10.2854 H              1 <1>                0.0000
     30 H30         -1.3446  -9.2489  10.1930 H              1 <1>                0.0000
     31 H31         -2.0093  -9.4882   8.5199 H              1 <1>                0.0000
     32 H32         -4.4434 -10.2452   8.5720 H              1 <1>                0.0000
     33 H33         -4.2295 -11.8757   8.9114 H              1 <1>                0.0000
@<TRIPOS>BOND
    1    1    2 1     
    2    1   15 1     
    3    1   16 1     
    4    1   17 1     
    5    2    3 1     
    6    2    4 1     
    7    2    5 1     
    8    3   18 1     
    9    3   19 1     
   10    3   20 1     
   11    4   21 1     
   12    4   22 1     
   13    4   23 1     
   14    5    6 1     
   15    6    7 2     
   16    6    8 am    
   17    8    9 1     
   18    8   14 1     
   19    9   10 1     
   20    9   24 1     
   21    9   25 1     
   22   10   11 1     
   23   10   13 1     
   24   10   14 1     
   25   11   12 1     
   26   11   26 1     
   27   11   27 1     
   28   12   13 1     
   29   12   28 1     
   30   12   29 1     
   31   13   32 1     
   32   13   33 1     
   33   14   30 1     
   34   14   31 1     
@<TRIPOS>SUBSTRUCTURE
      1 ****           1
@<TRIPOS>SET
DONOR_HYDROGENS      STATIC     ATOMS    <user>   **** ""
2 32 33
ATOM$RED        STATIC     ATOMS    COLORGROUP SYSTEM
2 32 33
@<TRIPOS>COMMENT
> <Gold.Version>
2022.2.0

> <Gold.Id.Protein>
3pbl|protein|mol2

> <Gold.Protein.RotatedTorsions>
[ 1303 1298 1297 1294 ] final   42.55 input  179.99 | X-H torsion
[ 2461 2456 2455 2452 ] final -149.98 input   30.03 | X-H torsion
[ 2515 2510 2509 2506 ] final  -98.62 input  -89.99 | X-H torsion
[ 3721 3712 3711 3710 ] final   -1.57 input -179.91 | X-H torsion
[ 3841 3832 3831 3830 ] final  -21.21 input -179.91 | X-H torsion
[ 3767 3762 3761 3758 ] final  163.54 input  -89.99 | X-H torsion
[ 2472 2467 2466 2463 ] final   87.83 input  -89.97 | X-H torsion

> <Gold.Protein.ActiveResidues>
 VAL82   VAL86   LEU89   PHE106  VAL107  ASP110  VAL111  MET112  CYS114  THR115 
 CYS181  SER182  ILE183  PHE188  VAL189  ILE190  SER192  SER193  SER196  TRP342 
 PHE345  PHE346  HIS349  VAL350  TYR365  THR369  GLY372  TYR373 

> <Gold.Protein.RotatedAtoms>
    3.7784  -10.2462    4.4650 H   0  0  0  0  0  0  0  0  0  0  0  0  # atno 1303 bound_to 1298
    0.9769   -9.2874    8.3062 H   0  0  0  0  0  0  0  0  0  0  0  0  # atno 2461 bound_to 2456
   -5.0715   -4.9097    7.7779 H   0  0  0  0  0  0  0  0  0  0  0  0  # atno 2472 bound_to 2467
    2.8003   -9.0308    4.7095 H   0  0  0  0  0  0  0  0  0  0  0  0  # atno 2515 bound_to 2510
   -2.4904  -17.9473   14.2639 H   0  0  0  0  0  0  0  0  0  0  0  0  # atno 3721 bound_to 3712
   -3.9735  -22.7361   11.4365 H   0  0  0  0  0  0  0  0  0  0  0  0  # atno 3767 bound_to 3762
    1.5990  -20.2356    9.4189 H   0  0  0  0  0  0  0  0  0  0  0  0  # atno 3841 bound_to 3832
    3.6741   -8.7530    3.8124 LP  0  0  0  0  0  0  0  0  0  0  0  0  # atno 4297 bound_to 1298
    4.9098   -9.1217    4.8142 LP  0  0  0  0  0  0  0  0  0  0  0  0  # atno 4298 bound_to 1298
    2.1381   -8.2979    7.7230 LP  0  0  0  0  0  0  0  0  0  0  0  0  # atno 4299 bound_to 2456
    0.6227   -8.2230    7.1192 LP  0  0  0  0  0  0  0  0  0  0  0  0  # atno 4300 bound_to 2456
    2.1047   -8.5092    6.0914 LP  0  0  0  0  0  0  0  0  0  0  0  0  # atno 4301 bound_to 2510
    2.3915   -7.4588    4.8745 LP  0  0  0  0  0  0  0  0  0  0  0  0  # atno 4302 bound_to 2510
   -3.4506  -16.6717   14.4334 LP  0  0  0  0  0  0  0  0  0  0  0  0  # atno 4306 bound_to 3712
   -3.2019  -17.3342   12.9617 LP  0  0  0  0  0  0  0  0  0  0  0  0  # atno 4307 bound_to 3712
    2.4642  -19.7662    8.1512 LP  0  0  0  0  0  0  0  0  0  0  0  0  # atno 4314 bound_to 3832
    2.9181  -21.0640    9.0322 LP  0  0  0  0  0  0  0  0  0  0  0  0  # atno 4315 bound_to 3832
   -4.7990  -23.1772   10.0982 LP  0  0  0  0  0  0  0  0  0  0  0  0  # atno 4318 bound_to 3762
   -5.3546  -21.9617   11.0366 LP  0  0  0  0  0  0  0  0  0  0  0  0  # atno 4319 bound_to 3762
   -3.6353   -5.0276    8.5458 LP  0  0  0  0  0  0  0  0  0  0  0  0  # atno 4320 bound_to 2467
   -5.0103   -5.4562    9.3154 LP  0  0  0  0  0  0  0  0  0  0  0  0  # atno 4321 bound_to 2467

> <Gold.Score>
     Score     S(PLP)   S(hbond)     S(cho)   S(metal)  DE(clash)   DE(tors)     intcor
     46.08     -43.90       0.90       0.00       0.00       0.00       0.45       0.39

> <Gold.PLP.Fitness>
46.0812

> <Gold.PLP.PLP>
-43.8951

> <Gold.PLP.part.hbond>
-1.0000

> <Gold.PLP.part.metal>
0.0000

> <Gold.PLP.part.buried>
-3.3378

> <Gold.PLP.part.nonpolar>
-40.2178

> <Gold.PLP.part.repulsive>
0.0338

> <Gold.PLP.ligand.clash>
0.0000

> <Gold.PLP.ligand.torsion>
0.4460

> <Gold.PLP.Chemscore.Hbond>
0.8960

> <Gold.PLP.Chemscore.CHOScore>
0.0000

> <Gold.PLP.Chemscore.Metal>
0.0000

> <Gold.Chemscore.Hbonds>
donor molecule, donor type, donor heavy atom, donor atom, acceptor molecule, acceptor atom, score
      P1  H  2456  2461       L1     7  0.90

> <Gold.PLP.Chemscore.Internal.Correction>
0.3900

