#       Name:                EN300-256216_i001
#       Creating user name   fsindt
#       Creation time:       Mon Feb 27 23:22:22 2023


#       File generated by GOLD software.
#

@<TRIPOS>MOLECULE
EN300-256216_i001|amine_3|mol2|1236|dock17
    33    34     1
SMALL
USER_CHARGES


@<TRIPOS>ATOM
      1 C1          -0.5938 -21.7600  15.9121 C.3            1 <1>                0.0000
      2 C2           0.1272 -21.5449  14.5799 C.3            1 <1>                0.0000
      3 C3           1.1176 -22.6875  14.3457 C.3            1 <1>                0.0000
      4 C4          -0.8974 -21.5173  13.4440 C.3            1 <1>                0.0000
      5 O5           0.8442 -20.2828  14.6158 O.3            1 <1>                0.0000
      6 C6           0.1035 -19.1586  14.6127 C.2            1 <1>                0.0000
      7 O7          -1.0048 -19.1599  15.1109 O.2            1 <1>                0.0000
      8 N8           0.5911 -18.0317  14.0571 N.am           1 <1>                0.0000
      9 C9           0.1078 -16.6537  13.8627 C.3            1 <1>                0.0000
     10 C10          1.0386 -16.5646  12.6612 C.3            1 <1>                0.0000
     11 C11          1.6661 -15.2460  12.2151 C.3            1 <1>                0.0000
     12 C12          0.6270 -15.2659  11.0762 C.3            1 <1>                0.0000
     13 N13          0.5600 -16.7318  11.2855 N.4            1 <1>                1.0000
     14 C14          1.8421 -17.6395  13.3855 C.3            1 <1>                0.0000
     15 H15          0.1362 -21.7797  16.7213 H              1 <1>                0.0000
     16 H16         -1.2993 -20.9460  16.0789 H              1 <1>                0.0000
     17 H17         -1.1320 -22.7074  15.8851 H              1 <1>                0.0000
     18 H18          0.5794 -23.6349  14.3188 H              1 <1>                0.0000
     19 H19          1.6313 -22.5343  13.3967 H              1 <1>                0.0000
     20 H20          1.8476 -22.7071  15.1550 H              1 <1>                0.0000
     21 H21         -1.6029 -20.7034  13.6108 H              1 <1>                0.0000
     22 H22         -0.3836 -21.3641  12.4949 H              1 <1>                0.0000
     23 H23         -1.4355 -22.4648  13.4171 H              1 <1>                0.0000
     24 H24         -0.9485 -16.5961  13.5999 H              1 <1>                0.0000
     25 H25          0.3792 -15.9787  14.6743 H              1 <1>                0.0000
     26 H26          1.5262 -14.4301  12.9242 H              1 <1>                0.0000
     27 H27          2.6963 -15.3425  11.8726 H              1 <1>                0.0000
     28 H28         -0.2996 -14.7458  11.3193 H              1 <1>                0.0000
     29 H29          1.0341 -14.9797  10.1066 H              1 <1>                0.0000
     30 H30          2.5960 -17.2372  14.0623 H              1 <1>                0.0000
     31 H31          2.2369 -18.4089  12.7219 H              1 <1>                0.0000
     32 H32          1.2052 -17.2437  10.7025 H              1 <1>                0.0000
     33 H33         -0.3800 -17.0953  11.2359 H              1 <1>                0.0000
@<TRIPOS>BOND
    1    1    2 1     
    2    1   15 1     
    3    1   16 1     
    4    1   17 1     
    5    2    3 1     
    6    2    4 1     
    7    2    5 1     
    8    3   18 1     
    9    3   19 1     
   10    3   20 1     
   11    4   21 1     
   12    4   22 1     
   13    4   23 1     
   14    5    6 1     
   15    6    7 2     
   16    6    8 am    
   17    8    9 1     
   18    8   14 1     
   19    9   10 1     
   20    9   24 1     
   21    9   25 1     
   22   10   11 1     
   23   10   13 1     
   24   10   14 1     
   25   11   12 1     
   26   11   26 1     
   27   11   27 1     
   28   12   13 1     
   29   12   28 1     
   30   12   29 1     
   31   13   32 1     
   32   13   33 1     
   33   14   30 1     
   34   14   31 1     
@<TRIPOS>SUBSTRUCTURE
      1 ****           1
@<TRIPOS>SET
DONOR_HYDROGENS      STATIC     ATOMS    <user>   **** ""
2 32 33
ATOM$RED        STATIC     ATOMS    COLORGROUP SYSTEM
2 32 33
@<TRIPOS>COMMENT
> <Gold.Version>
2022.2.0

> <Gold.Id.Protein>
3pbl|protein|mol2

> <Gold.Protein.RotatedTorsions>
[ 1303 1298 1297 1294 ] final  106.60 input  179.99 | X-H torsion
[ 2461 2456 2455 2452 ] final  -36.77 input   30.03 | X-H torsion
[ 2515 2510 2509 2506 ] final -122.47 input  -89.99 | X-H torsion
[ 3721 3712 3711 3710 ] final   -3.60 input -179.91 | X-H torsion
[ 3841 3832 3831 3830 ] final -126.17 input -179.91 | X-H torsion
[ 3767 3762 3761 3758 ] final -132.79 input  -89.99 | X-H torsion
[ 2472 2467 2466 2463 ] final -173.64 input  -89.97 | X-H torsion

> <Gold.Protein.ActiveResidues>
 VAL82   VAL86   LEU89   PHE106  VAL107  ASP110  VAL111  MET112  CYS114  THR115 
 CYS181  SER182  ILE183  PHE188  VAL189  ILE190  SER192  SER193  SER196  TRP342 
 PHE345  PHE346  HIS349  VAL350  TYR365  THR369  GLY372  TYR373 

> <Gold.Protein.RotatedAtoms>
    4.6123   -9.9468    4.9282 H   0  0  0  0  0  0  0  0  0  0  0  0  # atno 1303 bound_to 1298
    0.5476   -8.2931    7.1630 H   0  0  0  0  0  0  0  0  0  0  0  0  # atno 2461 bound_to 2456
   -5.2833   -5.4093    9.0996 H   0  0  0  0  0  0  0  0  0  0  0  0  # atno 2472 bound_to 2467
    2.7019   -9.2164    5.0376 H   0  0  0  0  0  0  0  0  0  0  0  0  # atno 2515 bound_to 2510
   -2.4953  -17.9344   14.2914 H   0  0  0  0  0  0  0  0  0  0  0  0  # atno 3721 bound_to 3712
   -4.6702  -22.0450   11.5995 H   0  0  0  0  0  0  0  0  0  0  0  0  # atno 3767 bound_to 3762
    2.3079  -19.6122    8.4218 H   0  0  0  0  0  0  0  0  0  0  0  0  # atno 3841 bound_to 3832
    3.3381   -9.6861    3.9410 LP  0  0  0  0  0  0  0  0  0  0  0  0  # atno 4297 bound_to 1298
    4.4116   -8.4882    4.2222 LP  0  0  0  0  0  0  0  0  0  0  0  0  # atno 4298 bound_to 1298
    1.0824   -9.2875    8.3430 LP  0  0  0  0  0  0  0  0  0  0  0  0  # atno 4299 bound_to 2456
    2.1076   -8.2274    7.6419 LP  0  0  0  0  0  0  0  0  0  0  0  0  # atno 4300 bound_to 2456
    2.0372   -8.1270    6.0560 LP  0  0  0  0  0  0  0  0  0  0  0  0  # atno 4301 bound_to 2510
    2.5575   -7.6553    4.5817 LP  0  0  0  0  0  0  0  0  0  0  0  0  # atno 4302 bound_to 2510
   -3.4615  -16.6571   14.4047 LP  0  0  0  0  0  0  0  0  0  0  0  0  # atno 4306 bound_to 3712
   -3.1853  -17.3636   12.9587 LP  0  0  0  0  0  0  0  0  0  0  0  0  # atno 4307 bound_to 3712
    3.0222  -20.9725    8.8858 LP  0  0  0  0  0  0  0  0  0  0  0  0  # atno 4314 bound_to 3832
    1.5412  -20.5778    9.4494 LP  0  0  0  0  0  0  0  0  0  0  0  0  # atno 4315 bound_to 3832
   -4.0347  -23.2710   10.7277 LP  0  0  0  0  0  0  0  0  0  0  0  0  # atno 4318 bound_to 3762
   -5.4224  -22.5588   10.2441 LP  0  0  0  0  0  0  0  0  0  0  0  0  # atno 4319 bound_to 3762
   -4.7464   -4.8338    7.6689 LP  0  0  0  0  0  0  0  0  0  0  0  0  # atno 4320 bound_to 2467
   -3.6873   -5.1505    8.8708 LP  0  0  0  0  0  0  0  0  0  0  0  0  # atno 4321 bound_to 2467

> <Gold.Score>
     Score     S(PLP)   S(hbond)     S(cho)   S(metal)  DE(clash)   DE(tors)     intcor
     37.91     -29.41       3.00       0.00       0.00       0.00       0.45       0.39

> <Gold.PLP.Fitness>
37.9104

> <Gold.PLP.PLP>
-29.4126

> <Gold.PLP.part.hbond>
-2.0000

> <Gold.PLP.part.metal>
0.0000

> <Gold.PLP.part.buried>
-3.4311

> <Gold.PLP.part.nonpolar>
-24.2205

> <Gold.PLP.part.repulsive>
0.0437

> <Gold.PLP.ligand.clash>
0.0000

> <Gold.PLP.ligand.torsion>
0.4461

> <Gold.PLP.Chemscore.Hbond>
3.0000

> <Gold.PLP.Chemscore.CHOScore>
0.0000

> <Gold.PLP.Chemscore.Metal>
0.0000

> <Gold.Chemscore.Hbonds>
donor molecule, donor type, donor heavy atom, donor atom, acceptor molecule, acceptor atom, score
      L1  H    13    32       P1  1227  2.00
      P1  H  3712  3721       L1     7  1.00

> <Gold.PLP.Chemscore.Internal.Correction>
0.3900

