#       Name:                EN300-256216_i001
#       Creating user name   fsindt
#       Creation time:       Mon Feb 27 23:22:21 2023


#       File generated by GOLD software.
#

@<TRIPOS>MOLECULE
EN300-256216_i001|amine_3|mol2|1236|dock15
    33    34     1
SMALL
USER_CHARGES


@<TRIPOS>ATOM
      1 C1          -0.4474 -19.8899  13.7996 C.3            1 <1>                0.0000
      2 C2           0.5079 -19.3554  14.8685 C.3            1 <1>                0.0000
      3 C3          -0.2431 -19.2014  16.1926 C.3            1 <1>                0.0000
      4 C4           1.6685 -20.3354  15.0514 C.3            1 <1>                0.0000
      5 O5           1.0257 -18.0640  14.4529 O.3            1 <1>                0.0000
      6 C6           0.1271 -17.1458  14.0504 C.2            1 <1>                0.0000
      7 O7          -0.9949 -17.1486  14.5169 O.2            1 <1>                0.0000
      8 N8           0.4719 -16.2236  13.1301 N.am           1 <1>                0.0000
      9 C9          -0.1995 -15.0974  12.4584 C.3            1 <1>                0.0000
     10 C10          0.7737 -15.2890  11.3035 C.3            1 <1>                0.0000
     11 C11          1.2218 -14.1291  10.4174 C.3            1 <1>                0.0000
     12 C12          0.2631 -14.7129   9.3604 C.3            1 <1>                0.0000
     13 N13          0.4036 -16.0026  10.0774 N.4            1 <1>                1.0000
     14 C14          1.6863 -15.8984  12.3625 C.3            1 <1>                0.0000
     15 H15         -1.2742 -19.1916  13.6693 H              1 <1>                0.0000
     16 H16          0.0876 -19.9995  12.8562 H              1 <1>                0.0000
     17 H17         -0.8361 -20.8592  14.1115 H              1 <1>                0.0000
     18 H18         -0.6318 -20.1707  16.5046 H              1 <1>                0.0000
     19 H19          0.4374 -18.8206  16.9542 H              1 <1>                0.0000
     20 H20         -1.0700 -18.5032  16.0623 H              1 <1>                0.0000
     21 H21          2.2035 -20.4451  14.1081 H              1 <1>                0.0000
     22 H22          2.3490 -19.9546  15.8129 H              1 <1>                0.0000
     23 H23          1.2797 -21.3047  15.3634 H              1 <1>                0.0000
     24 H24         -1.2362 -15.3048  12.1928 H              1 <1>                0.0000
     25 H25         -0.0779 -14.1464  12.9768 H              1 <1>                0.0000
     26 H26          0.9223 -13.1495  10.7899 H              1 <1>                0.0000
     27 H27          2.2726 -14.1744  10.1312 H              1 <1>                0.0000
     28 H28         -0.7428 -14.2952   9.4029 H              1 <1>                0.0000
     29 H29          0.6770 -14.7246   8.3522 H              1 <1>                0.0000
     30 H30          2.3326 -15.1694  12.8516 H              1 <1>                0.0000
     31 H31          2.2281 -16.7784  12.0158 H              1 <1>                0.0000
     32 H32          1.1496 -16.5770   9.7144 H              1 <1>                0.0000
     33 H33         -0.4675 -16.5051  10.1607 H              1 <1>                0.0000
@<TRIPOS>BOND
    1    1    2 1     
    2    1   15 1     
    3    1   16 1     
    4    1   17 1     
    5    2    3 1     
    6    2    4 1     
    7    2    5 1     
    8    3   18 1     
    9    3   19 1     
   10    3   20 1     
   11    4   21 1     
   12    4   22 1     
   13    4   23 1     
   14    5    6 1     
   15    6    7 2     
   16    6    8 am    
   17    8    9 1     
   18    8   14 1     
   19    9   10 1     
   20    9   24 1     
   21    9   25 1     
   22   10   11 1     
   23   10   13 1     
   24   10   14 1     
   25   11   12 1     
   26   11   26 1     
   27   11   27 1     
   28   12   13 1     
   29   12   28 1     
   30   12   29 1     
   31   13   32 1     
   32   13   33 1     
   33   14   30 1     
   34   14   31 1     
@<TRIPOS>SUBSTRUCTURE
      1 ****           1
@<TRIPOS>SET
DONOR_HYDROGENS      STATIC     ATOMS    <user>   **** ""
2 32 33
ATOM$RED        STATIC     ATOMS    COLORGROUP SYSTEM
2 32 33
@<TRIPOS>COMMENT
> <Gold.Version>
2022.2.0

> <Gold.Id.Protein>
3pbl|protein|mol2

> <Gold.Protein.RotatedTorsions>
[ 1303 1298 1297 1294 ] final   -0.21 input  179.99 | X-H torsion
[ 2461 2456 2455 2452 ] final   91.25 input   30.03 | X-H torsion
[ 2515 2510 2509 2506 ] final  -93.74 input  -89.99 | X-H torsion
[ 3721 3712 3711 3710 ] final  -24.45 input -179.91 | X-H torsion
[ 3841 3832 3831 3830 ] final  -18.48 input -179.91 | X-H torsion
[ 3767 3762 3761 3758 ] final  115.07 input  -89.99 | X-H torsion
[ 2472 2467 2466 2463 ] final  101.20 input  -89.97 | X-H torsion

> <Gold.Protein.ActiveResidues>
 VAL82   VAL86   LEU89   PHE106  VAL107  ASP110  VAL111  MET112  CYS114  THR115 
 CYS181  SER182  ILE183  PHE188  VAL189  ILE190  SER192  SER193  SER196  TRP342 
 PHE345  PHE346  HIS349  VAL350  TYR365  THR369  GLY372  TYR373 

> <Gold.Protein.RotatedAtoms>
    3.3851   -9.8698    4.0456 H   0  0  0  0  0  0  0  0  0  0  0  0  # atno 1303 bound_to 1298
    2.1425   -8.3110    7.7377 H   0  0  0  0  0  0  0  0  0  0  0  0  # atno 2461 bound_to 2456
   -5.2415   -4.9729    7.9014 H   0  0  0  0  0  0  0  0  0  0  0  0  # atno 2472 bound_to 2467
    2.8131   -8.9768    4.6517 H   0  0  0  0  0  0  0  0  0  0  0  0  # atno 2515 bound_to 2510
   -2.5743  -17.7583   14.5384 H   0  0  0  0  0  0  0  0  0  0  0  0  # atno 3721 bound_to 3712
   -3.9812  -23.2240   10.8355 H   0  0  0  0  0  0  0  0  0  0  0  0  # atno 3767 bound_to 3762
    1.6113  -20.2684    9.4407 H   0  0  0  0  0  0  0  0  0  0  0  0  # atno 3841 bound_to 3832
    4.2362   -8.4772    4.0960 LP  0  0  0  0  0  0  0  0  0  0  0  0  # atno 4297 bound_to 1298
    4.7411   -9.7742    4.9501 LP  0  0  0  0  0  0  0  0  0  0  0  0  # atno 4298 bound_to 1298
    0.6372   -8.2109    7.1121 LP  0  0  0  0  0  0  0  0  0  0  0  0  # atno 4299 bound_to 2456
    0.9584   -9.2861    8.2984 LP  0  0  0  0  0  0  0  0  0  0  0  0  # atno 4300 bound_to 2456
    2.1259   -8.5857    6.0802 LP  0  0  0  0  0  0  0  0  0  0  0  0  # atno 4301 bound_to 2510
    2.3576   -7.4363    4.9436 LP  0  0  0  0  0  0  0  0  0  0  0  0  # atno 4302 bound_to 2510
   -3.5441  -16.5630   14.0817 LP  0  0  0  0  0  0  0  0  0  0  0  0  # atno 4306 bound_to 3712
   -3.0115  -17.6610   12.9966 LP  0  0  0  0  0  0  0  0  0  0  0  0  # atno 4307 bound_to 3712
    2.4237  -19.7465    8.1586 LP  0  0  0  0  0  0  0  0  0  0  0  0  # atno 4314 bound_to 3832
    2.9444  -21.0458    8.9996 LP  0  0  0  0  0  0  0  0  0  0  0  0  # atno 4315 bound_to 3832
   -5.3654  -22.6564   10.1809 LP  0  0  0  0  0  0  0  0  0  0  0  0  # atno 4318 bound_to 3762
   -4.7805  -21.9949   11.5546 LP  0  0  0  0  0  0  0  0  0  0  0  0  # atno 4319 bound_to 3762
   -3.6689   -4.9573    8.3406 LP  0  0  0  0  0  0  0  0  0  0  0  0  # atno 4320 bound_to 2467
   -4.8067   -5.4633    9.3970 LP  0  0  0  0  0  0  0  0  0  0  0  0  # atno 4321 bound_to 2467

> <Gold.Score>
     Score     S(PLP)   S(hbond)     S(cho)   S(metal)  DE(clash)   DE(tors)     intcor
     39.58     -32.36       2.58       0.00       0.00       0.00       0.45       0.39

> <Gold.PLP.Fitness>
39.5819

> <Gold.PLP.PLP>
-32.3589

> <Gold.PLP.part.hbond>
-1.4792

> <Gold.PLP.part.metal>
0.0000

> <Gold.PLP.part.buried>
-4.4159

> <Gold.PLP.part.nonpolar>
-27.3908

> <Gold.PLP.part.repulsive>
0.0933

> <Gold.PLP.ligand.clash>
0.0000

> <Gold.PLP.ligand.torsion>
0.4475

> <Gold.PLP.Chemscore.Hbond>
2.5760

> <Gold.PLP.Chemscore.CHOScore>
0.0000

> <Gold.PLP.Chemscore.Metal>
0.0000

> <Gold.Chemscore.Hbonds>
donor molecule, donor type, donor heavy atom, donor atom, acceptor molecule, acceptor atom, score
      L1  H    13    32       P1  1227  2.00
      P1  H  3712  3721       L1     7  0.58

> <Gold.PLP.Chemscore.Internal.Correction>
0.3900

