#       Name:                EN300-256216_i001
#       Creating user name   fsindt
#       Creation time:       Mon Feb 27 23:22:13 2023


#       File generated by GOLD software.
#

@<TRIPOS>MOLECULE
EN300-256216_i001|amine_3|mol2|1236|dock4
    33    34     1
SMALL
USER_CHARGES


@<TRIPOS>ATOM
      1 C1          -2.0449 -11.6360   9.0174 C.3            1 <1>                0.0000
      2 C2          -1.6331 -11.3200  10.4566 C.3            1 <1>                0.0000
      3 C3          -0.2781 -10.6093  10.4550 C.3            1 <1>                0.0000
      4 C4          -2.6838 -10.4132  11.1004 C.3            1 <1>                0.0000
      5 O5          -1.5307 -12.5552  11.2131 O.3            1 <1>                0.0000
      6 C6          -0.5455 -13.4046  10.8663 C.2            1 <1>                0.0000
      7 O7           0.0217 -13.2742   9.7996 O.2            1 <1>                0.0000
      8 N8          -0.1882 -14.3996  11.7021 N.am           1 <1>                0.0000
      9 C9           0.8020 -15.4903  11.6857 C.3            1 <1>                0.0000
     10 C10         -0.1147 -16.2511  12.6335 C.3            1 <1>                0.0000
     11 C11          0.4223 -17.2466  13.6593 C.3            1 <1>                0.0000
     12 C12         -0.0948 -18.3399  12.7030 C.3            1 <1>                0.0000
     13 N13         -1.0171 -17.3094  12.1694 N.4            1 <1>                1.0000
     14 C14         -0.6130 -14.8663  13.0331 C.3            1 <1>                0.0000
     15 H15         -1.2963 -12.2821   8.5588 H              1 <1>                0.0000
     16 H16         -3.0102 -12.1424   9.0186 H              1 <1>                0.0000
     17 H17         -2.1218 -10.7088   8.4495 H              1 <1>                0.0000
     18 H18         -0.3549  -9.6821   9.8871 H              1 <1>                0.0000
     19 H19          0.0154 -10.3842  11.4803 H              1 <1>                0.0000
     20 H20          0.4705 -11.2554   9.9963 H              1 <1>                0.0000
     21 H21         -3.6491 -10.9195  11.1016 H              1 <1>                0.0000
     22 H22         -2.3904 -10.1881  12.1257 H              1 <1>                0.0000
     23 H23         -2.7606  -9.4860  10.5325 H              1 <1>                0.0000
     24 H24          0.9102 -15.9650  10.7104 H              1 <1>                0.0000
     25 H25          1.7583 -15.2167  12.1313 H              1 <1>                0.0000
     26 H26          1.5072 -17.2297  13.7627 H              1 <1>                0.0000
     27 H27         -0.0987 -17.2167  14.6162 H              1 <1>                0.0000
     28 H28          0.6487 -18.6784  11.9813 H              1 <1>                0.0000
     29 H29         -0.6013 -19.1614  13.2095 H              1 <1>                0.0000
     30 H30         -0.0505 -14.4218  13.8543 H              1 <1>                0.0000
     31 H31         -1.6914 -14.8189  13.1848 H              1 <1>                0.0000
     32 H32         -1.9111 -17.2993  12.6374 H              1 <1>                0.0000
     33 H33         -1.1054 -17.3405  11.1647 H              1 <1>                0.0000
@<TRIPOS>BOND
    1    1    2 1     
    2    1   15 1     
    3    1   16 1     
    4    1   17 1     
    5    2    3 1     
    6    2    4 1     
    7    2    5 1     
    8    3   18 1     
    9    3   19 1     
   10    3   20 1     
   11    4   21 1     
   12    4   22 1     
   13    4   23 1     
   14    5    6 1     
   15    6    7 2     
   16    6    8 am    
   17    8    9 1     
   18    8   14 1     
   19    9   10 1     
   20    9   24 1     
   21    9   25 1     
   22   10   11 1     
   23   10   13 1     
   24   10   14 1     
   25   11   12 1     
   26   11   26 1     
   27   11   27 1     
   28   12   13 1     
   29   12   28 1     
   30   12   29 1     
   31   13   32 1     
   32   13   33 1     
   33   14   30 1     
   34   14   31 1     
@<TRIPOS>SUBSTRUCTURE
      1 ****           1
@<TRIPOS>SET
DONOR_HYDROGENS      STATIC     ATOMS    <user>   **** ""
2 32 33
ATOM$RED        STATIC     ATOMS    COLORGROUP SYSTEM
2 32 33
@<TRIPOS>COMMENT
> <Gold.Version>
2022.2.0

> <Gold.Id.Protein>
3pbl|protein|mol2

> <Gold.Protein.RotatedTorsions>
[ 1303 1298 1297 1294 ] final  144.43 input  179.99 | X-H torsion
[ 2461 2456 2455 2452 ] final  -62.65 input   30.03 | X-H torsion
[ 2515 2510 2509 2506 ] final  132.55 input  -89.99 | X-H torsion
[ 3721 3712 3711 3710 ] final  -97.86 input -179.91 | X-H torsion
[ 3841 3832 3831 3830 ] final  116.26 input -179.91 | X-H torsion
[ 3767 3762 3761 3758 ] final  -14.47 input  -89.99 | X-H torsion
[ 2472 2467 2466 2463 ] final   93.32 input  -89.97 | X-H torsion

> <Gold.Protein.ActiveResidues>
 VAL82   VAL86   LEU89   PHE106  VAL107  ASP110  VAL111  MET112  CYS114  THR115 
 CYS181  SER182  ILE183  PHE188  VAL189  ILE190  SER192  SER193  SER196  TRP342 
 PHE345  PHE346  HIS349  VAL350  TYR365  THR369  GLY372  TYR373 

> <Gold.Protein.RotatedAtoms>
    4.8890   -9.4023    4.9092 H   0  0  0  0  0  0  0  0  0  0  0  0  # atno 1303 bound_to 1298
    0.3592   -8.5913    7.3952 H   0  0  0  0  0  0  0  0  0  0  0  0  # atno 2461 bound_to 2456
   -5.1451   -4.9343    7.8239 H   0  0  0  0  0  0  0  0  0  0  0  0  # atno 2472 bound_to 2467
    2.0726   -8.3677    6.0955 H   0  0  0  0  0  0  0  0  0  0  0  0  # atno 2515 bound_to 2510
   -3.0808  -16.8600   14.6300 H   0  0  0  0  0  0  0  0  0  0  0  0  # atno 3721 bound_to 3712
   -5.4326  -22.5377   10.2585 H   0  0  0  0  0  0  0  0  0  0  0  0  # atno 3767 bound_to 3762
    3.0614  -20.7576    8.9808 H   0  0  0  0  0  0  0  0  0  0  0  0  # atno 3841 bound_to 3832
    3.5737  -10.1371    4.2797 LP  0  0  0  0  0  0  0  0  0  0  0  0  # atno 4297 bound_to 1298
    3.8992   -8.5820    3.9024 LP  0  0  0  0  0  0  0  0  0  0  0  0  # atno 4298 bound_to 1298
    1.4918   -9.2023    8.4008 LP  0  0  0  0  0  0  0  0  0  0  0  0  # atno 4299 bound_to 2456
    1.8865   -8.0145    7.3520 LP  0  0  0  0  0  0  0  0  0  0  0  0  # atno 4300 bound_to 2456
    2.4537   -7.5154    4.7561 LP  0  0  0  0  0  0  0  0  0  0  0  0  # atno 4301 bound_to 2510
    2.7705   -9.1160    4.8232 LP  0  0  0  0  0  0  0  0  0  0  0  0  # atno 4302 bound_to 2510
   -3.3597  -17.0436   13.0596 LP  0  0  0  0  0  0  0  0  0  0  0  0  # atno 4306 bound_to 3712
   -2.6111  -18.2175   13.9128 LP  0  0  0  0  0  0  0  0  0  0  0  0  # atno 4307 bound_to 3712
    1.5367  -20.5709    9.4460 LP  0  0  0  0  0  0  0  0  0  0  0  0  # atno 4314 bound_to 3832
    2.1563  -19.6562    8.2434 LP  0  0  0  0  0  0  0  0  0  0  0  0  # atno 4315 bound_to 3832
   -4.6473  -22.0579   11.6076 LP  0  0  0  0  0  0  0  0  0  0  0  0  # atno 4318 bound_to 3762
   -4.0478  -23.2794   10.7047 LP  0  0  0  0  0  0  0  0  0  0  0  0  # atno 4319 bound_to 3762
   -3.6429   -4.9979    8.4609 LP  0  0  0  0  0  0  0  0  0  0  0  0  # atno 4320 bound_to 2467
   -4.9290   -5.4613    9.3542 LP  0  0  0  0  0  0  0  0  0  0  0  0  # atno 4321 bound_to 2467

> <Gold.Score>
     Score     S(PLP)   S(hbond)     S(cho)   S(metal)  DE(clash)   DE(tors)     intcor
     40.61     -37.70       1.00       0.00       0.00       0.00       0.24       0.39

> <Gold.PLP.Fitness>
40.6129

> <Gold.PLP.PLP>
-37.7020

> <Gold.PLP.part.hbond>
-1.0000

> <Gold.PLP.part.metal>
0.0000

> <Gold.PLP.part.buried>
-5.2812

> <Gold.PLP.part.nonpolar>
-32.6566

> <Gold.PLP.part.repulsive>
0.0576

> <Gold.PLP.ligand.clash>
0.0000

> <Gold.PLP.ligand.torsion>
0.2396

> <Gold.PLP.Chemscore.Hbond>
1.0000

> <Gold.PLP.Chemscore.CHOScore>
0.0000

> <Gold.PLP.Chemscore.Metal>
0.0000

> <Gold.Chemscore.Hbonds>
donor molecule, donor type, donor heavy atom, donor atom, acceptor molecule, acceptor atom, score
      L1  H    13    32       P1  3712  1.00

> <Gold.PLP.Chemscore.Internal.Correction>
0.3900

