#       Name:                EN300-256216_i001
#       Creating user name   fsindt
#       Creation time:       Mon Feb 27 23:22:17 2023


#       File generated by GOLD software.
#

@<TRIPOS>MOLECULE
EN300-256216_i001|amine_3|mol2|1236|dock10
    33    34     1
SMALL
USER_CHARGES


@<TRIPOS>ATOM
      1 C1           1.0993 -15.5416   7.2316 C.3            1 <1>                0.0000
      2 C2           0.2916 -14.2998   7.6144 C.3            1 <1>                0.0000
      3 C3           1.0393 -13.0449   7.1591 C.3            1 <1>                0.0000
      4 C4          -1.0779 -14.3524   6.9344 C.3            1 <1>                0.0000
      5 O5           0.1156 -14.2622   9.0552 O.3            1 <1>                0.0000
      6 C6           1.2163 -14.4376   9.8104 C.2            1 <1>                0.0000
      7 O7           2.3017 -14.0845   9.3935 O.2            1 <1>                0.0000
      8 N8           1.1143 -15.0048  11.0287 N.am           1 <1>                0.0000
      9 C9           2.0474 -15.3548  12.1137 C.3            1 <1>                0.0000
     10 C10          1.0566 -16.4323  12.5320 C.3            1 <1>                0.0000
     11 C11          0.9145 -16.8868  13.9828 C.3            1 <1>                0.0000
     12 C12          1.6946 -18.1437  13.5481 C.3            1 <1>                0.0000
     13 N13          1.2342 -17.8423  12.1716 N.4            1 <1>                1.0000
     14 C14          0.0205 -15.5387  11.8584 C.3            1 <1>                0.0000
     15 H15          2.0750 -15.5041   7.7161 H              1 <1>                0.0000
     16 H16          0.5667 -16.4356   7.5560 H              1 <1>                0.0000
     17 H17          1.2315 -15.5699   6.1500 H              1 <1>                0.0000
     18 H18          1.1714 -13.0732   6.0776 H              1 <1>                0.0000
     19 H19          0.4639 -12.1602   7.4319 H              1 <1>                0.0000
     20 H20          2.0150 -13.0074   7.6436 H              1 <1>                0.0000
     21 H21         -1.6105 -15.2464   7.2588 H              1 <1>                0.0000
     22 H22         -1.6532 -13.4678   7.2072 H              1 <1>                0.0000
     23 H23         -0.9456 -14.3807   5.8529 H              1 <1>                0.0000
     24 H24          2.9982 -15.7522  11.7585 H              1 <1>                0.0000
     25 H25          2.1695 -14.5646  12.8545 H              1 <1>                0.0000
     26 H26          1.4514 -16.2600  14.6948 H              1 <1>                0.0000
     27 H27         -0.1139 -17.0888  14.2819 H              1 <1>                0.0000
     28 H28          2.7734 -18.0567  13.6782 H              1 <1>                0.0000
     29 H29          1.2906 -19.0718  13.9520 H              1 <1>                0.0000
     30 H30         -0.4210 -14.8020  12.5296 H              1 <1>                0.0000
     31 H31         -0.7257 -16.0915  11.2876 H              1 <1>                0.0000
     32 H32          0.3674 -18.3018  11.9358 H              1 <1>                0.0000
     33 H33          1.9507 -17.9847  11.4755 H              1 <1>                0.0000
@<TRIPOS>BOND
    1    1    2 1     
    2    1   15 1     
    3    1   16 1     
    4    1   17 1     
    5    2    3 1     
    6    2    4 1     
    7    2    5 1     
    8    3   18 1     
    9    3   19 1     
   10    3   20 1     
   11    4   21 1     
   12    4   22 1     
   13    4   23 1     
   14    5    6 1     
   15    6    7 2     
   16    6    8 am    
   17    8    9 1     
   18    8   14 1     
   19    9   10 1     
   20    9   24 1     
   21    9   25 1     
   22   10   11 1     
   23   10   13 1     
   24   10   14 1     
   25   11   12 1     
   26   11   26 1     
   27   11   27 1     
   28   12   13 1     
   29   12   28 1     
   30   12   29 1     
   31   13   32 1     
   32   13   33 1     
   33   14   30 1     
   34   14   31 1     
@<TRIPOS>SUBSTRUCTURE
      1 ****           1
@<TRIPOS>SET
DONOR_HYDROGENS      STATIC     ATOMS    <user>   **** ""
2 32 33
ATOM$RED        STATIC     ATOMS    COLORGROUP SYSTEM
2 32 33
@<TRIPOS>COMMENT
> <Gold.Version>
2022.2.0

> <Gold.Id.Protein>
3pbl|protein|mol2

> <Gold.Protein.RotatedTorsions>
[ 1303 1298 1297 1294 ] final  130.65 input  179.99 | X-H torsion
[ 2461 2456 2455 2452 ] final    9.18 input   30.03 | X-H torsion
[ 2515 2510 2509 2506 ] final   93.80 input  -89.99 | X-H torsion
[ 3721 3712 3711 3710 ] final   62.13 input -179.91 | X-H torsion
[ 3841 3832 3831 3830 ] final  125.97 input -179.91 | X-H torsion
[ 3767 3762 3761 3758 ] final   84.48 input  -89.99 | X-H torsion
[ 2472 2467 2466 2463 ] final   12.41 input  -89.97 | X-H torsion

> <Gold.Protein.ActiveResidues>
 VAL82   VAL86   LEU89   PHE106  VAL107  ASP110  VAL111  MET112  CYS114  THR115 
 CYS181  SER182  ILE183  PHE188  VAL189  ILE190  SER192  SER193  SER196  TRP342 
 PHE345  PHE346  HIS349  VAL350  TYR365  THR369  GLY372  TYR373 

> <Gold.Protein.RotatedAtoms>
    4.8221   -9.6153    4.9454 H   0  0  0  0  0  0  0  0  0  0  0  0  # atno 1303 bound_to 1298
    1.1859   -7.9474    7.0405 H   0  0  0  0  0  0  0  0  0  0  0  0  # atno 2461 bound_to 2456
   -3.9295   -4.8363    7.9229 H   0  0  0  0  0  0  0  0  0  0  0  0  # atno 2472 bound_to 2467
    2.0374   -7.7819    5.8797 H   0  0  0  0  0  0  0  0  0  0  0  0  # atno 2515 bound_to 2510
   -2.6027  -17.8919   13.3584 H   0  0  0  0  0  0  0  0  0  0  0  0  # atno 3721 bound_to 3712
   -4.2543  -23.3350   10.4348 H   0  0  0  0  0  0  0  0  0  0  0  0  # atno 3767 bound_to 3762
    3.1066  -20.6689    8.8734 H   0  0  0  0  0  0  0  0  0  0  0  0  # atno 3841 bound_to 3832
    3.4532  -10.0022    4.1437 LP  0  0  0  0  0  0  0  0  0  0  0  0  # atno 4297 bound_to 1298
    4.0865   -8.5037    4.0023 LP  0  0  0  0  0  0  0  0  0  0  0  0  # atno 4298 bound_to 1298
    0.4849   -9.1062    7.9533 LP  0  0  0  0  0  0  0  0  0  0  0  0  # atno 4299 bound_to 2456
    2.0669   -8.7544    8.1541 LP  0  0  0  0  0  0  0  0  0  0  0  0  # atno 4300 bound_to 2456
    2.7013   -7.9658    4.3995 LP  0  0  0  0  0  0  0  0  0  0  0  0  # atno 4301 bound_to 2510
    2.5583   -9.2517    5.3958 LP  0  0  0  0  0  0  0  0  0  0  0  0  # atno 4302 bound_to 2510
   -2.9667  -17.4502   14.8585 LP  0  0  0  0  0  0  0  0  0  0  0  0  # atno 4306 bound_to 3712
   -3.5562  -16.6196   13.5821 LP  0  0  0  0  0  0  0  0  0  0  0  0  # atno 4307 bound_to 3712
    1.6286  -20.6934    9.4988 LP  0  0  0  0  0  0  0  0  0  0  0  0  # atno 4314 bound_to 3832
    2.0122  -19.6362    8.3148 LP  0  0  0  0  0  0  0  0  0  0  0  0  # atno 4315 bound_to 3832
   -5.5088  -22.2908   10.4862 LP  0  0  0  0  0  0  0  0  0  0  0  0  # atno 4318 bound_to 3762
   -4.3640  -22.2496   11.6500 LP  0  0  0  0  0  0  0  0  0  0  0  0  # atno 4319 bound_to 3762
   -4.3022   -5.4107    9.4053 LP  0  0  0  0  0  0  0  0  0  0  0  0  # atno 4320 bound_to 2467
   -5.4851   -5.1465    8.3109 LP  0  0  0  0  0  0  0  0  0  0  0  0  # atno 4321 bound_to 2467

> <Gold.Score>
     Score     S(PLP)   S(hbond)     S(cho)   S(metal)  DE(clash)   DE(tors)     intcor
     40.08     -34.76       1.95       0.00       0.00       0.00       0.46       0.39

> <Gold.PLP.Fitness>
40.0797

> <Gold.PLP.PLP>
-34.7558

> <Gold.PLP.part.hbond>
-1.0455

> <Gold.PLP.part.metal>
0.0000

> <Gold.PLP.part.buried>
-0.7674

> <Gold.PLP.part.nonpolar>
-33.7218

> <Gold.PLP.part.repulsive>
0.2269

> <Gold.PLP.ligand.clash>
0.0000

> <Gold.PLP.ligand.torsion>
0.4611

> <Gold.PLP.Chemscore.Hbond>
1.9520

> <Gold.PLP.Chemscore.CHOScore>
0.0000

> <Gold.PLP.Chemscore.Metal>
0.0000

> <Gold.Chemscore.Hbonds>
donor molecule, donor type, donor heavy atom, donor atom, acceptor molecule, acceptor atom, score
      L1  H    13    33       P1  1227  1.95

> <Gold.PLP.Chemscore.Internal.Correction>
0.3900

