#       Name:                EN300-256216_i001
#       Creating user name   fsindt
#       Creation time:       Mon Feb 27 23:22:14 2023


#       File generated by GOLD software.
#

@<TRIPOS>MOLECULE
EN300-256216_i001|amine_3|mol2|1236|dock5
    33    34     1
SMALL
USER_CHARGES


@<TRIPOS>ATOM
      1 C1          -2.5910 -11.7332   9.8838 C.3            1 <1>                0.0000
      2 C2          -1.1976 -11.1611  10.1524 C.3            1 <1>                0.0000
      3 C3          -0.5307 -10.7980   8.8240 C.3            1 <1>                0.0000
      4 C4          -1.3196  -9.9076  11.0211 C.3            1 <1>                0.0000
      5 O5          -0.3922 -12.1523  10.8432 O.3            1 <1>                0.0000
      6 C6          -0.3492 -13.3865  10.3070 C.2            1 <1>                0.0000
      7 O7          -0.4642 -13.5315   9.1061 O.2            1 <1>                0.0000
      8 N8          -0.1787 -14.4612  11.1022 N.am           1 <1>                0.0000
      9 C9          -0.0080 -14.6910  12.5473 C.3            1 <1>                0.0000
     10 C10          0.7298 -15.9743  12.1914 C.3            1 <1>                0.0000
     11 C11          0.7208 -17.1973  13.1055 C.3            1 <1>                0.0000
     12 C12          2.1583 -16.7867  13.4828 C.3            1 <1>                0.0000
     13 N13          2.1933 -16.0618  12.1903 N.4            1 <1>                1.0000
     14 C14         -0.0887 -15.9183  10.9058 C.3            1 <1>                0.0000
     15 H15         -2.5040 -12.6262   9.2649 H              1 <1>                0.0000
     16 H16         -3.0660 -11.9919  10.8302 H              1 <1>                0.0000
     17 H17         -3.1955 -10.9891   9.3653 H              1 <1>                0.0000
     18 H18         -1.1352 -10.0540   8.3054 H              1 <1>                0.0000
     19 H19          0.4620 -10.3905   9.0152 H              1 <1>                0.0000
     20 H20         -0.4438 -11.6911   8.2051 H              1 <1>                0.0000
     21 H21         -1.7947 -10.1662  11.9674 H              1 <1>                0.0000
     22 H22         -0.3269  -9.5001  11.2123 H              1 <1>                0.0000
     23 H23         -1.9241  -9.1636  10.5025 H              1 <1>                0.0000
     24 H24          0.6226 -13.9474  13.0346 H              1 <1>                0.0000
     25 H25         -0.9466 -14.8608  13.0749 H              1 <1>                0.0000
     26 H26          0.0117 -17.1250  13.9302 H              1 <1>                0.0000
     27 H27          0.6598 -18.1455  12.5715 H              1 <1>                0.0000
     28 H28          2.2132 -16.1331  14.3534 H              1 <1>                0.0000
     29 H29          2.8539 -17.6241  13.5346 H              1 <1>                0.0000
     30 H30         -1.0479 -16.4310  10.9781 H              1 <1>                0.0000
     31 H31          0.4763 -16.2014  10.0176 H              1 <1>                0.0000
     32 H32          2.5547 -16.6222  11.4329 H              1 <1>                0.0000
     33 H33          2.6428 -15.1607  12.2549 H              1 <1>                0.0000
@<TRIPOS>BOND
    1    1    2 1     
    2    1   15 1     
    3    1   16 1     
    4    1   17 1     
    5    2    3 1     
    6    2    4 1     
    7    2    5 1     
    8    3   18 1     
    9    3   19 1     
   10    3   20 1     
   11    4   21 1     
   12    4   22 1     
   13    4   23 1     
   14    5    6 1     
   15    6    7 2     
   16    6    8 am    
   17    8    9 1     
   18    8   14 1     
   19    9   10 1     
   20    9   24 1     
   21    9   25 1     
   22   10   11 1     
   23   10   13 1     
   24   10   14 1     
   25   11   12 1     
   26   11   26 1     
   27   11   27 1     
   28   12   13 1     
   29   12   28 1     
   30   12   29 1     
   31   13   32 1     
   32   13   33 1     
   33   14   30 1     
   34   14   31 1     
@<TRIPOS>SUBSTRUCTURE
      1 ****           1
@<TRIPOS>SET
DONOR_HYDROGENS      STATIC     ATOMS    <user>   **** ""
2 32 33
ATOM$RED        STATIC     ATOMS    COLORGROUP SYSTEM
2 32 33
@<TRIPOS>COMMENT
> <Gold.Version>
2022.2.0

> <Gold.Id.Protein>
3pbl|protein|mol2

> <Gold.Protein.RotatedTorsions>
[ 1303 1298 1297 1294 ] final   89.70 input  179.99 | X-H torsion
[ 2461 2456 2455 2452 ] final -137.14 input   30.03 | X-H torsion
[ 2515 2510 2509 2506 ] final  120.68 input  -89.99 | X-H torsion
[ 3721 3712 3711 3710 ] final  160.95 input -179.91 | X-H torsion
[ 3841 3832 3831 3830 ] final  174.63 input -179.91 | X-H torsion
[ 3767 3762 3761 3758 ] final  -71.84 input  -89.99 | X-H torsion
[ 2472 2467 2466 2463 ] final -135.58 input  -89.97 | X-H torsion

> <Gold.Protein.ActiveResidues>
 VAL82   VAL86   LEU89   PHE106  VAL107  ASP110  VAL111  MET112  CYS114  THR115 
 CYS181  SER182  ILE183  PHE188  VAL189  ILE190  SER192  SER193  SER196  TRP342 
 PHE345  PHE346  HIS349  VAL350  TYR365  THR369  GLY372  TYR373 

> <Gold.Protein.RotatedAtoms>
    4.4108  -10.1231    4.8567 H   0  0  0  0  0  0  0  0  0  0  0  0  # atno 1303 bound_to 1298
    0.7892   -9.2607    8.2139 H   0  0  0  0  0  0  0  0  0  0  0  0  # atno 2461 bound_to 2456
   -4.7552   -5.4630    9.4097 H   0  0  0  0  0  0  0  0  0  0  0  0  # atno 2472 bound_to 2467
    2.0427   -8.1769    6.0689 H   0  0  0  0  0  0  0  0  0  0  0  0  # atno 2515 bound_to 2510
   -3.2596  -16.7532   13.3077 H   0  0  0  0  0  0  0  0  0  0  0  0  # atno 3721 bound_to 3712
   -5.3907  -21.9838   10.9733 H   0  0  0  0  0  0  0  0  0  0  0  0  # atno 3767 bound_to 3762
    3.0015  -20.1122    8.4400 H   0  0  0  0  0  0  0  0  0  0  0  0  # atno 3841 bound_to 3832
    3.3382   -9.4277    3.8408 LP  0  0  0  0  0  0  0  0  0  0  0  0  # atno 4297 bound_to 1298
    4.6131   -8.5702    4.3940 LP  0  0  0  0  0  0  0  0  0  0  0  0  # atno 4298 bound_to 1298
    2.1612   -8.4421    7.8750 LP  0  0  0  0  0  0  0  0  0  0  0  0  # atno 4299 bound_to 2456
    0.7872   -8.1056    7.0593 LP  0  0  0  0  0  0  0  0  0  0  0  0  # atno 4300 bound_to 2456
    2.5362   -7.6218    4.6149 LP  0  0  0  0  0  0  0  0  0  0  0  0  # atno 4301 bound_to 2510
    2.7180   -9.2005    4.9910 LP  0  0  0  0  0  0  0  0  0  0  0  0  # atno 4302 bound_to 2510
   -2.6464  -18.1965   13.6522 LP  0  0  0  0  0  0  0  0  0  0  0  0  # atno 4306 bound_to 3712
   -3.1180  -17.1880   14.8468 LP  0  0  0  0  0  0  0  0  0  0  0  0  # atno 4307 bound_to 3712
    2.2921  -21.1191    9.4691 LP  0  0  0  0  0  0  0  0  0  0  0  0  # atno 4314 bound_to 3832
    1.4701  -19.8536    8.8450 LP  0  0  0  0  0  0  0  0  0  0  0  0  # atno 4315 bound_to 3832
   -4.0024  -22.6796   11.4786 LP  0  0  0  0  0  0  0  0  0  0  0  0  # atno 4318 bound_to 3762
   -4.7346  -23.2114   10.1193 LP  0  0  0  0  0  0  0  0  0  0  0  0  # atno 4319 bound_to 3762
   -5.2774   -4.9889    7.9370 LP  0  0  0  0  0  0  0  0  0  0  0  0  # atno 4320 bound_to 2467
   -3.6843   -4.9418    8.2926 LP  0  0  0  0  0  0  0  0  0  0  0  0  # atno 4321 bound_to 2467

> <Gold.Score>
     Score     S(PLP)   S(hbond)     S(cho)   S(metal)  DE(clash)   DE(tors)     intcor
     40.78     -35.32       2.00       0.00       0.00       0.04       0.44       0.39

> <Gold.PLP.Fitness>
40.7762

> <Gold.PLP.PLP>
-35.3161

> <Gold.PLP.part.hbond>
-1.0000

> <Gold.PLP.part.metal>
0.0000

> <Gold.PLP.part.buried>
-1.1814

> <Gold.PLP.part.nonpolar>
-33.9204

> <Gold.PLP.part.repulsive>
0.0010

> <Gold.PLP.ligand.clash>
0.0434

> <Gold.PLP.ligand.torsion>
0.4432

> <Gold.PLP.Chemscore.Hbond>
2.0000

> <Gold.PLP.Chemscore.CHOScore>
0.0000

> <Gold.PLP.Chemscore.Metal>
0.0000

> <Gold.Chemscore.Hbonds>
donor molecule, donor type, donor heavy atom, donor atom, acceptor molecule, acceptor atom, score
      L1  H    13    32       P1  1227  2.00

> <Gold.PLP.Chemscore.Internal.Correction>
0.3900

