#       Name:                EN300-256216_i001
#       Creating user name   fsindt
#       Creation time:       Mon Feb 27 23:22:21 2023


#       File generated by GOLD software.
#

@<TRIPOS>MOLECULE
EN300-256216_i001|amine_3|mol2|1236|dock16
    33    34     1
SMALL
USER_CHARGES


@<TRIPOS>ATOM
      1 C1           0.3665 -17.4482  14.9745 C.3            1 <1>                0.0000
      2 C2           1.1489 -17.8546  13.7240 C.3            1 <1>                0.0000
      3 C3           2.5334 -17.2040  13.7549 C.3            1 <1>                0.0000
      4 C4           1.3012 -19.3765  13.6898 C.3            1 <1>                0.0000
      5 O5           0.4330 -17.4130  12.5404 O.3            1 <1>                0.0000
      6 C6           0.3824 -16.0865  12.3159 C.2            1 <1>                0.0000
      7 O7           0.6014 -15.3080  13.2228 O.2            1 <1>                0.0000
      8 N8           0.0888 -15.6219  11.0853 N.am           1 <1>                0.0000
      9 C9          -0.2263 -16.2202   9.7764 C.3            1 <1>                0.0000
     10 C10          0.3084 -14.9463   9.1369 C.3            1 <1>                0.0000
     11 C11         -0.2180 -14.4241   7.8021 C.3            1 <1>                0.0000
     12 C12          1.0952 -14.9637   7.2007 C.3            1 <1>                0.0000
     13 N13          1.6572 -14.8616   8.5685 N.4            1 <1>                1.0000
     14 C14         -0.0636 -14.2948  10.4646 C.3            1 <1>                0.0000
     15 H15          0.2580 -16.3639  14.9988 H              1 <1>                0.0000
     16 H16         -0.6199 -17.9116  14.9524 H              1 <1>                0.0000
     17 H17          0.9038 -17.7796  15.8629 H              1 <1>                0.0000
     18 H18          3.0707 -17.5354  14.6434 H              1 <1>                0.0000
     19 H19          3.0908 -17.4934  12.8641 H              1 <1>                0.0000
     20 H20          2.4248 -16.1196  13.7793 H              1 <1>                0.0000
     21 H21          0.3149 -19.8400  13.6678 H              1 <1>                0.0000
     22 H22          1.8586 -19.6660  12.7990 H              1 <1>                0.0000
     23 H23          1.8385 -19.7079  14.5783 H              1 <1>                0.0000
     24 H24          0.3685 -17.1045   9.5478 H              1 <1>                0.0000
     25 H25         -1.2930 -16.3742   9.6138 H              1 <1>                0.0000
     26 H26         -1.1095 -14.9416   7.4479 H              1 <1>                0.0000
     27 H27         -0.3085 -13.3388   7.7589 H              1 <1>                0.0000
     28 H28          1.0208 -15.9870   6.8327 H              1 <1>                0.0000
     29 H29          1.5599 -14.2864   6.4843 H              1 <1>                0.0000
     30 H30         -1.0842 -13.9126  10.4908 H              1 <1>                0.0000
     31 H31          0.6695 -13.5671  10.8128 H              1 <1>                0.0000
     32 H32          2.1056 -13.9752   8.7460 H              1 <1>                0.0000
     33 H33          2.2399 -15.6475   8.8157 H              1 <1>                0.0000
@<TRIPOS>BOND
    1    1    2 1     
    2    1   15 1     
    3    1   16 1     
    4    1   17 1     
    5    2    3 1     
    6    2    4 1     
    7    2    5 1     
    8    3   18 1     
    9    3   19 1     
   10    3   20 1     
   11    4   21 1     
   12    4   22 1     
   13    4   23 1     
   14    5    6 1     
   15    6    7 2     
   16    6    8 am    
   17    8    9 1     
   18    8   14 1     
   19    9   10 1     
   20    9   24 1     
   21    9   25 1     
   22   10   11 1     
   23   10   13 1     
   24   10   14 1     
   25   11   12 1     
   26   11   26 1     
   27   11   27 1     
   28   12   13 1     
   29   12   28 1     
   30   12   29 1     
   31   13   32 1     
   32   13   33 1     
   33   14   30 1     
   34   14   31 1     
@<TRIPOS>SUBSTRUCTURE
      1 ****           1
@<TRIPOS>SET
DONOR_HYDROGENS      STATIC     ATOMS    <user>   **** ""
2 32 33
ATOM$RED        STATIC     ATOMS    COLORGROUP SYSTEM
2 32 33
@<TRIPOS>COMMENT
> <Gold.Version>
2022.2.0

> <Gold.Id.Protein>
3pbl|protein|mol2

> <Gold.Protein.RotatedTorsions>
[ 1303 1298 1297 1294 ] final -107.09 input  179.99 | X-H torsion
[ 2461 2456 2455 2452 ] final  -11.34 input   30.03 | X-H torsion
[ 2515 2510 2509 2506 ] final  110.12 input  -89.99 | X-H torsion
[ 3721 3712 3711 3710 ] final   69.68 input -179.91 | X-H torsion
[ 3841 3832 3831 3830 ] final  -60.42 input -179.91 | X-H torsion
[ 3767 3762 3761 3758 ] final  122.89 input  -89.99 | X-H torsion
[ 2472 2467 2466 2463 ] final   94.62 input  -89.97 | X-H torsion

> <Gold.Protein.ActiveResidues>
 VAL82   VAL86   LEU89   PHE106  VAL107  ASP110  VAL111  MET112  CYS114  THR115 
 CYS181  SER182  ILE183  PHE188  VAL189  ILE190  SER192  SER193  SER196  TRP342 
 PHE345  PHE346  HIS349  VAL350  TYR365  THR369  GLY372  TYR373 

> <Gold.Protein.RotatedAtoms>
    4.0552   -8.5132    3.9848 H   0  0  0  0  0  0  0  0  0  0  0  0  # atno 1303 bound_to 1298
    0.8696   -8.0601    7.0427 H   0  0  0  0  0  0  0  0  0  0  0  0  # atno 2461 bound_to 2456
   -5.1618   -4.9405    7.8357 H   0  0  0  0  0  0  0  0  0  0  0  0  # atno 2472 bound_to 2467
    2.0301   -8.0127    6.0149 H   0  0  0  0  0  0  0  0  0  0  0  0  # atno 2515 bound_to 2510
   -2.6464  -17.8287   13.2741 H   0  0  0  0  0  0  0  0  0  0  0  0  # atno 3721 bound_to 3712
   -3.9420  -23.1665   10.9436 H   0  0  0  0  0  0  0  0  0  0  0  0  # atno 3767 bound_to 3762
    1.6153  -19.8081    9.0261 H   0  0  0  0  0  0  0  0  0  0  0  0  # atno 3841 bound_to 3832
    4.8364   -9.5812    4.9415 LP  0  0  0  0  0  0  0  0  0  0  0  0  # atno 4297 bound_to 1298
    3.4706  -10.0272    4.1654 LP  0  0  0  0  0  0  0  0  0  0  0  0  # atno 4298 bound_to 1298
    0.7114   -9.2375    8.1635 LP  0  0  0  0  0  0  0  0  0  0  0  0  # atno 4299 bound_to 2456
    2.1567   -8.5104    7.9417 LP  0  0  0  0  0  0  0  0  0  0  0  0  # atno 4300 bound_to 2456
    2.6059   -7.7421    4.5113 LP  0  0  0  0  0  0  0  0  0  0  0  0  # atno 4301 bound_to 2510
    2.6609   -9.2445    5.1487 LP  0  0  0  0  0  0  0  0  0  0  0  0  # atno 4302 bound_to 2510
   -2.9067  -17.5586   14.8352 LP  0  0  0  0  0  0  0  0  0  0  0  0  # atno 4306 bound_to 3712
   -3.5657  -16.5842   13.7027 LP  0  0  0  0  0  0  0  0  0  0  0  0  # atno 4307 bound_to 3712
    2.9519  -20.1787    8.2185 LP  0  0  0  0  0  0  0  0  0  0  0  0  # atno 4314 bound_to 3832
    2.4115  -21.1453    9.4186 LP  0  0  0  0  0  0  0  0  0  0  0  0  # atno 4315 bound_to 3832
   -5.2966  -22.7526   10.1308 LP  0  0  0  0  0  0  0  0  0  0  0  0  # atno 4318 bound_to 3762
   -4.8885  -21.9561   11.4967 LP  0  0  0  0  0  0  0  0  0  0  0  0  # atno 4319 bound_to 3762
   -3.6460   -4.9910    8.4409 LP  0  0  0  0  0  0  0  0  0  0  0  0  # atno 4320 bound_to 2467
   -4.9092   -5.4620    9.3624 LP  0  0  0  0  0  0  0  0  0  0  0  0  # atno 4321 bound_to 2467

> <Gold.Score>
     Score     S(PLP)   S(hbond)     S(cho)   S(metal)  DE(clash)   DE(tors)     intcor
     39.02     -33.29       2.00       0.00       0.00       0.00       0.33       0.39

> <Gold.PLP.Fitness>
39.0239

> <Gold.PLP.PLP>
-33.2948

> <Gold.PLP.part.hbond>
-1.0000

> <Gold.PLP.part.metal>
0.0000

> <Gold.PLP.part.buried>
-4.0508

> <Gold.PLP.part.nonpolar>
-28.7320

> <Gold.PLP.part.repulsive>
0.1655

> <Gold.PLP.ligand.clash>
0.0000

> <Gold.PLP.ligand.torsion>
0.3304

> <Gold.PLP.Chemscore.Hbond>
2.0000

> <Gold.PLP.Chemscore.CHOScore>
0.0000

> <Gold.PLP.Chemscore.Metal>
0.0000

> <Gold.Chemscore.Hbonds>
donor molecule, donor type, donor heavy atom, donor atom, acceptor molecule, acceptor atom, score
      L1  H    13    33       P1  1227  2.00

> <Gold.PLP.Chemscore.Internal.Correction>
0.3900

