#       Name:                EN300-256216_i001
#       Creating user name   fsindt
#       Creation time:       Mon Feb 27 23:22:24 2023


#       File generated by GOLD software.
#

@<TRIPOS>MOLECULE
EN300-256216_i001|amine_3|mol2|1236|dock20
    33    34     1
SMALL
USER_CHARGES


@<TRIPOS>ATOM
      1 C1           1.5936 -14.9955   7.5586 C.3            1 <1>                0.0000
      2 C2           0.1147 -15.0460   7.9473 C.3            1 <1>                0.0000
      3 C3          -0.7421 -14.6337   6.7485 C.3            1 <1>                0.0000
      4 C4          -0.2529 -16.4694   8.3713 C.3            1 <1>                0.0000
      5 O5          -0.1271 -14.1344   9.0513 O.3            1 <1>                0.0000
      6 C6          -0.1522 -12.8193   8.7639 C.2            1 <1>                0.0000
      7 O7           0.5159 -12.3851   7.8466 O.2            1 <1>                0.0000
      8 N8          -0.9182 -11.9845   9.4938 N.am           1 <1>                0.0000
      9 C9          -1.8337 -12.1194  10.6400 C.3            1 <1>                0.0000
     10 C10         -2.5428 -10.8687  10.1393 C.3            1 <1>                0.0000
     11 C11         -3.2487  -9.9005  11.0858 C.3            1 <1>                0.0000
     12 C12         -4.5592 -10.5298  10.5723 C.3            1 <1>                0.0000
     13 N13         -3.7896 -10.9300   9.3703 N.4            1 <1>                1.0000
     14 C14         -1.1996 -10.5386   9.4972 C.3            1 <1>                0.0000
     15 H15          1.8554 -13.9814   7.2566 H              1 <1>                0.0000
     16 H16          2.2039 -15.2891   8.4127 H              1 <1>                0.0000
     17 H17          1.7751 -15.6798   6.7299 H              1 <1>                0.0000
     18 H18         -0.5606 -15.3180   5.9198 H              1 <1>                0.0000
     19 H19         -1.7957 -14.6697   7.0254 H              1 <1>                0.0000
     20 H20         -0.4802 -13.6196   6.4465 H              1 <1>                0.0000
     21 H21          0.3574 -16.7631   9.2253 H              1 <1>                0.0000
     22 H22         -1.3065 -16.5054   8.6482 H              1 <1>                0.0000
     23 H23         -0.0714 -17.1536   7.5425 H              1 <1>                0.0000
     24 H24         -2.4523 -13.0159  10.5996 H              1 <1>                0.0000
     25 H25         -1.3453 -11.9857  11.6052 H              1 <1>                0.0000
     26 H26         -3.0514 -10.0936  12.1403 H              1 <1>                0.0000
     27 H27         -3.1277  -8.8521  10.8135 H              1 <1>                0.0000
     28 H28         -4.9052 -11.3721  11.1716 H              1 <1>                0.0000
     29 H29         -5.3442  -9.8019  10.3679 H              1 <1>                0.0000
     30 H30         -0.5372  -9.9641  10.1449 H              1 <1>                0.0000
     31 H31         -1.2880 -10.1123   8.4978 H              1 <1>                0.0000
     32 H32         -3.8306 -10.2461   8.6295 H              1 <1>                0.0000
     33 H33         -4.0114 -11.8613   9.0513 H              1 <1>                0.0000
@<TRIPOS>BOND
    1    1    2 1     
    2    1   15 1     
    3    1   16 1     
    4    1   17 1     
    5    2    3 1     
    6    2    4 1     
    7    2    5 1     
    8    3   18 1     
    9    3   19 1     
   10    3   20 1     
   11    4   21 1     
   12    4   22 1     
   13    4   23 1     
   14    5    6 1     
   15    6    7 2     
   16    6    8 am    
   17    8    9 1     
   18    8   14 1     
   19    9   10 1     
   20    9   24 1     
   21    9   25 1     
   22   10   11 1     
   23   10   13 1     
   24   10   14 1     
   25   11   12 1     
   26   11   26 1     
   27   11   27 1     
   28   12   13 1     
   29   12   28 1     
   30   12   29 1     
   31   13   32 1     
   32   13   33 1     
   33   14   30 1     
   34   14   31 1     
@<TRIPOS>SUBSTRUCTURE
      1 ****           1
@<TRIPOS>SET
DONOR_HYDROGENS      STATIC     ATOMS    <user>   **** ""
2 32 33
ATOM$RED        STATIC     ATOMS    COLORGROUP SYSTEM
2 32 33
@<TRIPOS>COMMENT
> <Gold.Version>
2022.2.0

> <Gold.Id.Protein>
3pbl|protein|mol2

> <Gold.Protein.RotatedTorsions>
[ 1303 1298 1297 1294 ] final  102.30 input  179.99 | X-H torsion
[ 2461 2456 2455 2452 ] final -116.62 input   30.03 | X-H torsion
[ 2515 2510 2509 2506 ] final  177.33 input  -89.99 | X-H torsion
[ 3721 3712 3711 3710 ] final -168.14 input -179.91 | X-H torsion
[ 3841 3832 3831 3830 ] final  -51.12 input -179.91 | X-H torsion
[ 3767 3762 3761 3758 ] final   62.73 input  -89.99 | X-H torsion
[ 2472 2467 2466 2463 ] final  -56.13 input  -89.97 | X-H torsion

> <Gold.Protein.ActiveResidues>
 VAL82   VAL86   LEU89   PHE106  VAL107  ASP110  VAL111  MET112  CYS114  THR115 
 CYS181  SER182  ILE183  PHE188  VAL189  ILE190  SER192  SER193  SER196  TRP342 
 PHE345  PHE346  HIS349  VAL350  TYR365  THR369  GLY372  TYR373 

> <Gold.Protein.RotatedAtoms>
    4.5644   -9.9971    4.9145 H   0  0  0  0  0  0  0  0  0  0  0  0  # atno 1303 bound_to 1298
    0.5400   -9.1508    8.0172 H   0  0  0  0  0  0  0  0  0  0  0  0  # atno 2461 bound_to 2456
   -3.7015   -5.1656    8.9061 H   0  0  0  0  0  0  0  0  0  0  0  0  # atno 2472 bound_to 2467
    2.3058   -9.0083    5.8703 H   0  0  0  0  0  0  0  0  0  0  0  0  # atno 2515 bound_to 2510
   -3.3377  -16.5535   13.7166 H   0  0  0  0  0  0  0  0  0  0  0  0  # atno 3721 bound_to 3712
   -4.5317  -23.2932   10.2158 H   0  0  0  0  0  0  0  0  0  0  0  0  # atno 3767 bound_to 3762
    1.5786  -19.8969    9.1283 H   0  0  0  0  0  0  0  0  0  0  0  0  # atno 3841 bound_to 3832
    3.3316   -9.6220    3.9116 LP  0  0  0  0  0  0  0  0  0  0  0  0  # atno 4297 bound_to 1298
    4.4661   -8.5020    4.2654 LP  0  0  0  0  0  0  0  0  0  0  0  0  # atno 4298 bound_to 1298
    2.1036   -8.6860    8.0986 LP  0  0  0  0  0  0  0  0  0  0  0  0  # atno 4299 bound_to 2456
    1.0939   -7.9715    7.0324 LP  0  0  0  0  0  0  0  0  0  0  0  0  # atno 4300 bound_to 2456
    2.1636   -7.4484    5.4097 LP  0  0  0  0  0  0  0  0  0  0  0  0  # atno 4301 bound_to 2510
    2.8275   -8.5422    4.3950 LP  0  0  0  0  0  0  0  0  0  0  0  0  # atno 4302 bound_to 2510
   -2.8068  -17.9840   13.2169 LP  0  0  0  0  0  0  0  0  0  0  0  0  # atno 4306 bound_to 3712
   -2.8674  -17.6310   14.8101 LP  0  0  0  0  0  0  0  0  0  0  0  0  # atno 4307 bound_to 3712
    2.8581  -20.0636    8.1736 LP  0  0  0  0  0  0  0  0  0  0  0  0  # atno 4314 bound_to 3832
    2.5477  -21.1578    9.3455 LP  0  0  0  0  0  0  0  0  0  0  0  0  # atno 4315 bound_to 3832
   -5.4753  -22.0822   10.7725 LP  0  0  0  0  0  0  0  0  0  0  0  0  # atno 4318 bound_to 3762
   -4.1203  -22.4998   11.5826 LP  0  0  0  0  0  0  0  0  0  0  0  0  # atno 4319 bound_to 3762
   -5.3092   -5.4004    9.0692 LP  0  0  0  0  0  0  0  0  0  0  0  0  # atno 4320 bound_to 2467
   -4.7060   -4.8276    7.6639 LP  0  0  0  0  0  0  0  0  0  0  0  0  # atno 4321 bound_to 2467

> <Gold.Score>
     Score     S(PLP)   S(hbond)     S(cho)   S(metal)  DE(clash)   DE(tors)     intcor
     43.75     -44.44       0.00       0.00       0.00       0.00       0.54       0.39

> <Gold.PLP.Fitness>
43.7510

> <Gold.PLP.PLP>
-44.4363

> <Gold.PLP.part.hbond>
0.0000

> <Gold.PLP.part.metal>
0.0000

> <Gold.PLP.part.buried>
-1.7504

> <Gold.PLP.part.nonpolar>
-44.4699

> <Gold.PLP.part.repulsive>
0.0331

> <Gold.PLP.ligand.clash>
0.0000

> <Gold.PLP.ligand.torsion>
0.5376

> <Gold.PLP.Chemscore.Hbond>
0.0000

> <Gold.PLP.Chemscore.CHOScore>
0.0000

> <Gold.PLP.Chemscore.Metal>
0.0000

> <Gold.PLP.Chemscore.Internal.Correction>
0.3900

