#       Name:                EN300-256216_i001
#       Creating user name   fsindt
#       Creation time:       Mon Feb 27 23:22:11 2023


#       File generated by GOLD software.
#

@<TRIPOS>MOLECULE
EN300-256216_i001
    33    34     1
SMALL
USER_CHARGES


@<TRIPOS>ATOM
      1 C1           3.0670   0.1520   1.5182 C.3            1 <1>                0.0000
      2 C2           2.9647  -0.2226   0.0383 C.3            1 <1>                0.0000
      3 C3           3.5113   0.9226  -0.8166 C.3            1 <1>                0.0000
      4 C4           3.7807  -1.4898  -0.2247 C.3            1 <1>                0.0000
      5 O5           1.5744  -0.4621  -0.3054 O.3            1 <1>                0.0000
      6 C6           0.7166   0.5608  -0.1310 C.2            1 <1>                0.0000
      7 O7           1.1187   1.6247   0.2967 O.2            1 <1>                0.0000
      8 N8          -0.5881   0.4048  -0.4307 N.am           1 <1>                0.0000
      9 C9          -1.7931   1.2508  -0.3809 C.3            1 <1>                0.0000
     10 C10         -2.6078  -0.0281  -0.2453 C.3            1 <1>                0.0000
     11 C11         -4.0370  -0.1409  -0.7708 C.3            1 <1>                0.0000
     12 C12         -4.4697  -0.0212   0.7042 C.3            1 <1>                0.0000
     13 N13         -3.1106  -0.5032   1.0474 N.4            1 <1>                1.0000
     14 C14         -1.4293  -0.6838  -0.9572 C.3            1 <1>                0.0000
     15 H15          2.4856   1.0548   1.7055 H              1 <1>                0.0000
     16 H16          2.6775  -0.6638   2.1272 H              1 <1>                0.0000
     17 H17          4.1106   0.3318   1.7762 H              1 <1>                0.0000
     18 H18          4.5549   1.1024  -0.5586 H              1 <1>                0.0000
     19 H19          3.4384   0.6558  -1.8709 H              1 <1>                0.0000
     20 H20          2.9299   1.8254  -0.6292 H              1 <1>                0.0000
     21 H21          3.3913  -2.3056   0.3843 H              1 <1>                0.0000
     22 H22          3.7078  -1.7566  -1.2790 H              1 <1>                0.0000
     23 H23          4.8243  -1.3099   0.0333 H              1 <1>                0.0000
     24 H24         -1.8389   1.8913   0.4999 H              1 <1>                0.0000
     25 H25         -1.9836   1.7919  -1.3077 H              1 <1>                0.0000
     26 H26         -4.3460   0.7014  -1.3898 H              1 <1>                0.0000
     27 H27         -4.2659  -1.1075  -1.2195 H              1 <1>                0.0000
     28 H28         -4.6646   1.0031   1.0220 H              1 <1>                0.0000
     29 H29         -5.2639  -0.7126   0.9854 H              1 <1>                0.0000
     30 H30         -1.5211  -0.6814  -2.0434 H              1 <1>                0.0000
     31 H31         -1.1697  -1.6639  -0.5569 H              1 <1>                0.0000
     32 H32         -3.0606  -1.5062   1.1460 H              1 <1>                0.0000
     33 H33         -2.7051  -0.0155   1.8322 H              1 <1>                0.0000
@<TRIPOS>BOND
    1    1    2 1     
    2    1   15 1     
    3    1   16 1     
    4    1   17 1     
    5    2    3 1     
    6    2    4 1     
    7    2    5 1     
    8    3   18 1     
    9    3   19 1     
   10    3   20 1     
   11    4   21 1     
   12    4   22 1     
   13    4   23 1     
   14    5    6 1     
   15    6    7 2     
   16    6    8 am    
   17    8    9 1     
   18    8   14 1     
   19    9   10 1     
   20    9   24 1     
   21    9   25 1     
   22   10   11 1     
   23   10   13 1     
   24   10   14 1     
   25   11   12 1     
   26   11   26 1     
   27   11   27 1     
   28   12   13 1     
   29   12   28 1     
   30   12   29 1     
   31   13   32 1     
   32   13   33 1     
   33   14   30 1     
   34   14   31 1     
@<TRIPOS>SUBSTRUCTURE
      1 ****           1
@<TRIPOS>SET
DONOR_HYDROGENS      STATIC     ATOMS    <user>   **** ""
2 32 33
ATOM$RED        STATIC     ATOMS    COLORGROUP SYSTEM
2 32 33
