#       Name:                EN300-256216_i001
#       Creating user name   fsindt
#       Creation time:       Mon Feb 27 23:22:18 2023


#       File generated by GOLD software.
#

@<TRIPOS>MOLECULE
EN300-256216_i001|amine_3|mol2|1236|dock11
    33    34     1
SMALL
USER_CHARGES


@<TRIPOS>ATOM
      1 C1          -1.3014 -21.0103  13.4901 C.3            1 <1>                0.0000
      2 C2          -0.1760 -20.7175  12.4958 C.3            1 <1>                0.0000
      3 C3           1.1497 -20.5902  13.2491 C.3            1 <1>                0.0000
      4 C4          -0.0796 -21.8605  11.4834 C.3            1 <1>                0.0000
      5 O5          -0.4573 -19.4754  11.7983 O.3            1 <1>                0.0000
      6 C6          -0.4413 -18.3458  12.5306 C.2            1 <1>                0.0000
      7 O7          -0.4494 -18.4083  13.7441 O.2            1 <1>                0.0000
      8 N8          -0.4164 -17.1457  11.9178 N.am           1 <1>                0.0000
      9 C9          -0.4001 -16.6703  10.5236 C.3            1 <1>                0.0000
     10 C10          0.2857 -15.4085  11.0288 C.3            1 <1>                0.0000
     11 C11          0.1115 -14.0572  10.3396 C.3            1 <1>                0.0000
     12 C12          1.5293 -14.2866   9.7786 C.3            1 <1>                0.0000
     13 N13          1.7341 -15.2078  10.9218 N.4            1 <1>                1.0000
     14 C14         -0.4004 -15.7377  12.3504 C.3            1 <1>                0.0000
     15 H15         -1.3701 -20.1959  14.2113 H              1 <1>                0.0000
     16 H16         -2.2459 -21.1008  12.9534 H              1 <1>                0.0000
     17 H17         -1.0902 -21.9426  14.0137 H              1 <1>                0.0000
     18 H18          1.3609 -21.5225  13.7728 H              1 <1>                0.0000
     19 H19          1.9515 -20.3816  12.5409 H              1 <1>                0.0000
     20 H20          1.0810 -19.7759  13.9704 H              1 <1>                0.0000
     21 H21         -1.0240 -21.9512  10.9468 H              1 <1>                0.0000
     22 H22          0.7222 -21.6519  10.7751 H              1 <1>                0.0000
     23 H23          0.1316 -22.7928  12.0071 H              1 <1>                0.0000
     24 H24          0.2267 -17.2726   9.8659 H              1 <1>                0.0000
     25 H25         -1.3938 -16.4910  10.1133 H              1 <1>                0.0000
     26 H26         -0.6674 -14.0493   9.5772 H              1 <1>                0.0000
     27 H27          0.0421 -13.2167  11.0300 H              1 <1>                0.0000
     28 H28          1.5416 -14.7829   8.8082 H              1 <1>                0.0000
     29 H29          2.1622 -13.4000   9.8114 H              1 <1>                0.0000
     30 H30         -1.3927 -15.2970  12.4471 H              1 <1>                0.0000
     31 H31          0.2282 -15.5600  13.2231 H              1 <1>                0.0000
     32 H32          2.1303 -14.7519  11.7301 H              1 <1>                0.0000
     33 H33          2.2315 -16.0481  10.6675 H              1 <1>                0.0000
@<TRIPOS>BOND
    1    1    2 1     
    2    1   15 1     
    3    1   16 1     
    4    1   17 1     
    5    2    3 1     
    6    2    4 1     
    7    2    5 1     
    8    3   18 1     
    9    3   19 1     
   10    3   20 1     
   11    4   21 1     
   12    4   22 1     
   13    4   23 1     
   14    5    6 1     
   15    6    7 2     
   16    6    8 am    
   17    8    9 1     
   18    8   14 1     
   19    9   10 1     
   20    9   24 1     
   21    9   25 1     
   22   10   11 1     
   23   10   13 1     
   24   10   14 1     
   25   11   12 1     
   26   11   26 1     
   27   11   27 1     
   28   12   13 1     
   29   12   28 1     
   30   12   29 1     
   31   13   32 1     
   32   13   33 1     
   33   14   30 1     
   34   14   31 1     
@<TRIPOS>SUBSTRUCTURE
      1 ****           1
@<TRIPOS>SET
DONOR_HYDROGENS      STATIC     ATOMS    <user>   **** ""
2 32 33
ATOM$RED        STATIC     ATOMS    COLORGROUP SYSTEM
2 32 33
@<TRIPOS>COMMENT
> <Gold.Version>
2022.2.0

> <Gold.Id.Protein>
3pbl|protein|mol2

> <Gold.Protein.RotatedTorsions>
[ 1303 1298 1297 1294 ] final  -21.13 input  179.99 | X-H torsion
[ 2461 2456 2455 2452 ] final -122.36 input   30.03 | X-H torsion
[ 2515 2510 2509 2506 ] final   55.22 input  -89.99 | X-H torsion
[ 3721 3712 3711 3710 ] final   10.07 input -179.91 | X-H torsion
[ 3841 3832 3831 3830 ] final  -49.16 input -179.91 | X-H torsion
[ 3767 3762 3761 3758 ] final  143.54 input  -89.99 | X-H torsion
[ 2472 2467 2466 2463 ] final -152.20 input  -89.97 | X-H torsion

> <Gold.Protein.ActiveResidues>
 VAL82   VAL86   LEU89   PHE106  VAL107  ASP110  VAL111  MET112  CYS114  THR115 
 CYS181  SER182  ILE183  PHE188  VAL189  ILE190  SER192  SER193  SER196  TRP342 
 PHE345  PHE346  HIS349  VAL350  TYR365  THR369  GLY372  TYR373 

> <Gold.Protein.RotatedAtoms>
    3.3295   -9.5697    3.8905 H   0  0  0  0  0  0  0  0  0  0  0  0  # atno 1303 bound_to 1298
    0.6019   -9.1893    8.0773 H   0  0  0  0  0  0  0  0  0  0  0  0  # atno 2461 bound_to 2456
   -5.0106   -5.4569    9.3149 H   0  0  0  0  0  0  0  0  0  0  0  0  # atno 2472 bound_to 2467
    2.1750   -7.4394    5.3783 H   0  0  0  0  0  0  0  0  0  0  0  0  # atno 2515 bound_to 2510
   -2.4723  -18.0045   14.0987 H   0  0  0  0  0  0  0  0  0  0  0  0  # atno 3721 bound_to 3712
   -3.9082  -22.9695   11.2162 H   0  0  0  0  0  0  0  0  0  0  0  0  # atno 3767 bound_to 3762
    1.5735  -19.9170    9.1495 H   0  0  0  0  0  0  0  0  0  0  0  0  # atno 3841 bound_to 3832
    4.5082   -8.5166    4.3003 LP  0  0  0  0  0  0  0  0  0  0  0  0  # atno 4297 bound_to 1298
    4.5248  -10.0349    4.9010 LP  0  0  0  0  0  0  0  0  0  0  0  0  # atno 4298 bound_to 1298
    2.1313   -8.6175    8.0398 LP  0  0  0  0  0  0  0  0  0  0  0  0  # atno 4299 bound_to 2456
    1.0044   -8.0015    7.0311 LP  0  0  0  0  0  0  0  0  0  0  0  0  # atno 4300 bound_to 2456
    2.8302   -8.5752    4.4054 LP  0  0  0  0  0  0  0  0  0  0  0  0  # atno 4301 bound_to 2510
    2.2916   -8.9850    5.8915 LP  0  0  0  0  0  0  0  0  0  0  0  0  # atno 4302 bound_to 2510
   -3.3797  -16.7720   14.5839 LP  0  0  0  0  0  0  0  0  0  0  0  0  # atno 4306 bound_to 3712
   -3.2937  -17.1677   13.0019 LP  0  0  0  0  0  0  0  0  0  0  0  0  # atno 4307 bound_to 3712
    2.8362  -20.0404    8.1664 LP  0  0  0  0  0  0  0  0  0  0  0  0  # atno 4314 bound_to 3832
    2.5756  -21.1578    9.3283 LP  0  0  0  0  0  0  0  0  0  0  0  0  # atno 4315 bound_to 3832
   -5.0662  -22.9910   10.0649 LP  0  0  0  0  0  0  0  0  0  0  0  0  # atno 4318 bound_to 3762
   -5.1527  -21.9148   11.2901 LP  0  0  0  0  0  0  0  0  0  0  0  0  # atno 4319 bound_to 3762
   -5.0711   -4.9088    7.7779 LP  0  0  0  0  0  0  0  0  0  0  0  0  # atno 4320 bound_to 2467
   -3.6352   -5.0278    8.5464 LP  0  0  0  0  0  0  0  0  0  0  0  0  # atno 4321 bound_to 2467

> <Gold.Score>
     Score     S(PLP)   S(hbond)     S(cho)   S(metal)  DE(clash)   DE(tors)     intcor
     39.69     -30.70       3.00       0.00       0.00       0.01       0.19       0.39

> <Gold.PLP.Fitness>
39.6897

> <Gold.PLP.PLP>
-30.7005

> <Gold.PLP.part.hbond>
-2.0000

> <Gold.PLP.part.metal>
0.0000

> <Gold.PLP.part.buried>
-3.7735

> <Gold.PLP.part.nonpolar>
-26.2027

> <Gold.PLP.part.repulsive>
0.0531

> <Gold.PLP.ligand.clash>
0.0123

> <Gold.PLP.ligand.torsion>
0.1942

> <Gold.PLP.Chemscore.Hbond>
3.0000

> <Gold.PLP.Chemscore.CHOScore>
0.0000

> <Gold.PLP.Chemscore.Metal>
0.0000

> <Gold.Chemscore.Hbonds>
donor molecule, donor type, donor heavy atom, donor atom, acceptor molecule, acceptor atom, score
      L1  H    13    33       P1  1227  2.00
      P1  H  3712  3721       L1     7  1.00

> <Gold.PLP.Chemscore.Internal.Correction>
0.3900

