#       Name:                EN300-256216_i001
#       Creating user name   fsindt
#       Creation time:       Mon Feb 27 23:22:20 2023


#       File generated by GOLD software.
#

@<TRIPOS>MOLECULE
EN300-256216_i001|amine_3|mol2|1236|dock14
    33    34     1
SMALL
USER_CHARGES


@<TRIPOS>ATOM
      1 C1          -0.5184 -20.2277  16.2317 C.3            1 <1>                0.0000
      2 C2           0.0530 -20.2874  14.8136 C.3            1 <1>                0.0000
      3 C3           0.8295 -21.5931  14.6313 C.3            1 <1>                0.0000
      4 C4          -1.0912 -20.2286  13.7997 C.3            1 <1>                0.0000
      5 O5           0.9446 -19.1608  14.6032 O.3            1 <1>                0.0000
      6 C6           0.3773 -17.9450  14.4909 C.2            1 <1>                0.0000
      7 O7          -0.6633 -17.7042  15.0702 O.2            1 <1>                0.0000
      8 N8           0.9636 -16.9949  13.7359 N.am           1 <1>                0.0000
      9 C9           0.6672 -15.5973  13.3765 C.3            1 <1>                0.0000
     10 C10          1.4745 -15.8199  12.1051 C.3            1 <1>                0.0000
     11 C11          2.2373 -14.6894  11.4183 C.3            1 <1>                0.0000
     12 C12          1.0962 -14.7000  10.3815 C.3            1 <1>                0.0000
     13 N13          0.8399 -16.0949  10.8124 N.4            1 <1>                1.0000
     14 C14          2.1837 -16.8994  12.9159 C.3            1 <1>                0.0000
     15 H15          0.2969 -20.2696  16.9540 H              1 <1>                0.0000
     16 H16         -1.0715 -19.2975  16.3616 H              1 <1>                0.0000
     17 H17         -1.1876 -21.0734  16.3896 H              1 <1>                0.0000
     18 H18          0.1603 -22.4388  14.7892 H              1 <1>                0.0000
     19 H19          1.2366 -21.6357  13.6211 H              1 <1>                0.0000
     20 H20          1.6447 -21.6349  15.3536 H              1 <1>                0.0000
     21 H21         -1.6444 -19.2984  13.9296 H              1 <1>                0.0000
     22 H22         -0.6841 -20.2712  12.7895 H              1 <1>                0.0000
     23 H23         -1.7604 -21.0744  13.9577 H              1 <1>                0.0000
     24 H24         -0.3909 -15.4104  13.1929 H              1 <1>                0.0000
     25 H25          1.1140 -14.8696  14.0539 H              1 <1>                0.0000
     26 H26          2.2892 -13.7730  12.0062 H              1 <1>                0.0000
     27 H27          3.2027 -14.9925  11.0133 H              1 <1>                0.0000
     28 H28          0.2838 -14.0124  10.6168 H              1 <1>                0.0000
     29 H29          1.4400 -14.6158   9.3507 H              1 <1>                0.0000
     30 H30          3.0524 -16.5326  13.4628 H              1 <1>                0.0000
     31 H31          2.3940 -17.8042  12.3457 H              1 <1>                0.0000
     32 H32          1.3421 -16.7764  10.2631 H              1 <1>                0.0000
     33 H33         -0.1429 -16.3092  10.8925 H              1 <1>                0.0000
@<TRIPOS>BOND
    1    1    2 1     
    2    1   15 1     
    3    1   16 1     
    4    1   17 1     
    5    2    3 1     
    6    2    4 1     
    7    2    5 1     
    8    3   18 1     
    9    3   19 1     
   10    3   20 1     
   11    4   21 1     
   12    4   22 1     
   13    4   23 1     
   14    5    6 1     
   15    6    7 2     
   16    6    8 am    
   17    8    9 1     
   18    8   14 1     
   19    9   10 1     
   20    9   24 1     
   21    9   25 1     
   22   10   11 1     
   23   10   13 1     
   24   10   14 1     
   25   11   12 1     
   26   11   26 1     
   27   11   27 1     
   28   12   13 1     
   29   12   28 1     
   30   12   29 1     
   31   13   32 1     
   32   13   33 1     
   33   14   30 1     
   34   14   31 1     
@<TRIPOS>SUBSTRUCTURE
      1 ****           1
@<TRIPOS>SET
DONOR_HYDROGENS      STATIC     ATOMS    <user>   **** ""
2 32 33
ATOM$RED        STATIC     ATOMS    COLORGROUP SYSTEM
2 32 33
@<TRIPOS>COMMENT
> <Gold.Version>
2022.2.0

> <Gold.Id.Protein>
3pbl|protein|mol2

> <Gold.Protein.RotatedTorsions>
[ 1303 1298 1297 1294 ] final   60.41 input  179.99 | X-H torsion
[ 2461 2456 2455 2452 ] final  -49.44 input   30.03 | X-H torsion
[ 2515 2510 2509 2506 ] final -111.80 input  -89.99 | X-H torsion
[ 3721 3712 3711 3710 ] final  -26.61 input -179.91 | X-H torsion
[ 3841 3832 3831 3830 ] final  -55.47 input -179.91 | X-H torsion
[ 3767 3762 3761 3758 ] final -160.01 input  -89.99 | X-H torsion
[ 2472 2467 2466 2463 ] final   11.52 input  -89.97 | X-H torsion

> <Gold.Protein.ActiveResidues>
 VAL82   VAL86   LEU89   PHE106  VAL107  ASP110  VAL111  MET112  CYS114  THR115 
 CYS181  SER182  ILE183  PHE188  VAL189  ILE190  SER192  SER193  SER196  TRP342 
 PHE345  PHE346  HIS349  VAL350  TYR365  THR369  GLY372  TYR373 

> <Gold.Protein.RotatedAtoms>
    4.0137  -10.2694    4.6375 H   0  0  0  0  0  0  0  0  0  0  0  0  # atno 1303 bound_to 1298
    0.4347   -8.4349    7.2653 H   0  0  0  0  0  0  0  0  0  0  0  0  # atno 2461 bound_to 2456
   -3.9191   -4.8387    7.9327 H   0  0  0  0  0  0  0  0  0  0  0  0  # atno 2472 bound_to 2467
    2.7528   -9.1508    4.8834 H   0  0  0  0  0  0  0  0  0  0  0  0  # atno 2515 bound_to 2510
   -2.5851  -17.7360   14.5596 H   0  0  0  0  0  0  0  0  0  0  0  0  # atno 3721 bound_to 3712
   -4.3080  -22.2973   11.6450 H   0  0  0  0  0  0  0  0  0  0  0  0  # atno 3767 bound_to 3762
    1.5933  -19.8540    9.0808 H   0  0  0  0  0  0  0  0  0  0  0  0  # atno 3841 bound_to 3832
    3.4953   -8.9821    3.7770 LP  0  0  0  0  0  0  0  0  0  0  0  0  # atno 4297 bound_to 1298
    4.8532   -8.8695    4.6770 LP  0  0  0  0  0  0  0  0  0  0  0  0  # atno 4298 bound_to 1298
    1.2838   -9.2625    8.3884 LP  0  0  0  0  0  0  0  0  0  0  0  0  # atno 4299 bound_to 2456
    2.0190   -8.1107    7.4943 LP  0  0  0  0  0  0  0  0  0  0  0  0  # atno 4300 bound_to 2456
    2.0595   -8.2974    6.0904 LP  0  0  0  0  0  0  0  0  0  0  0  0  # atno 4301 bound_to 2510
    2.4843   -7.5506    4.7017 LP  0  0  0  0  0  0  0  0  0  0  0  0  # atno 4302 bound_to 2510
   -3.5494  -16.5594   14.0462 LP  0  0  0  0  0  0  0  0  0  0  0  0  # atno 4306 bound_to 3712
   -2.9937  -17.6904   13.0076 LP  0  0  0  0  0  0  0  0  0  0  0  0  # atno 4307 bound_to 3712
    2.9041  -20.1165    8.1925 LP  0  0  0  0  0  0  0  0  0  0  0  0  # atno 4314 bound_to 3832
    2.4848  -21.1544    9.3814 LP  0  0  0  0  0  0  0  0  0  0  0  0  # atno 4315 bound_to 3832
   -4.3079  -23.3350   10.3840 LP  0  0  0  0  0  0  0  0  0  0  0  0  # atno 4318 bound_to 3762
   -5.5113  -22.2426   10.5423 LP  0  0  0  0  0  0  0  0  0  0  0  0  # atno 4319 bound_to 3762
   -4.3161   -5.4135    9.4086 LP  0  0  0  0  0  0  0  0  0  0  0  0  # atno 4320 bound_to 2467
   -5.4816   -5.1413    8.2977 LP  0  0  0  0  0  0  0  0  0  0  0  0  # atno 4321 bound_to 2467

> <Gold.Score>
     Score     S(PLP)   S(hbond)     S(cho)   S(metal)  DE(clash)   DE(tors)     intcor
     39.83     -31.39       3.00       0.00       0.00       0.00       0.47       0.39

> <Gold.PLP.Fitness>
39.8322

> <Gold.PLP.PLP>
-31.3869

> <Gold.PLP.part.hbond>
-2.0000

> <Gold.PLP.part.metal>
0.0000

> <Gold.PLP.part.buried>
-3.3035

> <Gold.PLP.part.nonpolar>
-26.9652

> <Gold.PLP.part.repulsive>
0.0746

> <Gold.PLP.ligand.clash>
0.0000

> <Gold.PLP.ligand.torsion>
0.4723

> <Gold.PLP.Chemscore.Hbond>
3.0000

> <Gold.PLP.Chemscore.CHOScore>
0.0000

> <Gold.PLP.Chemscore.Metal>
0.0000

> <Gold.Chemscore.Hbonds>
donor molecule, donor type, donor heavy atom, donor atom, acceptor molecule, acceptor atom, score
      L1  H    13    32       P1  1227  2.00
      P1  H  3712  3721       L1     7  1.00

> <Gold.PLP.Chemscore.Internal.Correction>
0.3900

