#       Name:                EN300-256216_i001
#       Creating user name   fsindt
#       Creation time:       Mon Feb 27 23:22:24 2023


#       File generated by GOLD software.
#

@<TRIPOS>MOLECULE
EN300-256216_i001|amine_3|mol2|1236|dock19
    33    34     1
SMALL
USER_CHARGES


@<TRIPOS>ATOM
      1 C1          -0.7261 -22.3331  11.8247 C.3            1 <1>                0.0000
      2 C2          -1.0668 -22.2614  13.3146 C.3            1 <1>                0.0000
      3 C3          -2.5649 -22.5060  13.5075 C.3            1 <1>                0.0000
      4 C4          -0.2742 -23.3292  14.0711 C.3            1 <1>                0.0000
      5 O5          -0.7211 -20.9477  13.8276 O.3            1 <1>                0.0000
      6 C6           0.5267 -20.5050  13.5832 C.2            1 <1>                0.0000
      7 O7           1.4009 -21.2910  13.2761 O.2            1 <1>                0.0000
      8 N8           0.8061 -19.1901  13.6792 N.am           1 <1>                0.0000
      9 C9           0.0506 -17.9699  14.0119 C.3            1 <1>                0.0000
     10 C10          1.0593 -17.1941  13.1763 C.3            1 <1>                0.0000
     11 C11          1.4199 -15.7416  13.4794 C.3            1 <1>                0.0000
     12 C12          0.5376 -15.3866  12.2659 C.3            1 <1>                0.0000
     13 N13          0.7780 -16.7732  11.8004 N.4            1 <1>                1.0000
     14 C14          2.0016 -18.3475  13.5039 C.3            1 <1>                0.0000
     15 H15         -1.2909 -21.5723  11.2859 H              1 <1>                0.0000
     16 H16          0.3410 -22.1587  11.6873 H              1 <1>                0.0000
     17 H17         -0.9857 -23.3191  11.4397 H              1 <1>                0.0000
     18 H18         -2.8244 -23.4921  13.1224 H              1 <1>                0.0000
     19 H19         -2.8076 -22.4549  14.5689 H              1 <1>                0.0000
     20 H20         -3.1296 -21.7452  12.9685 H              1 <1>                0.0000
     21 H21          0.7930 -23.1549  13.9336 H              1 <1>                0.0000
     22 H22         -0.5169 -23.2781  15.1324 H              1 <1>                0.0000
     23 H23         -0.5338 -24.3153  13.6859 H              1 <1>                0.0000
     24 H24         -0.9582 -17.9567  13.5991 H              1 <1>                0.0000
     25 H25          0.0772 -17.7169  15.0718 H              1 <1>                0.0000
     26 H26          1.0274 -15.3799  14.4298 H              1 <1>                0.0000
     27 H27          2.4759 -15.5116  13.3380 H              1 <1>                0.0000
     28 H28         -0.5021 -15.1850  12.5240 H              1 <1>                0.0000
     29 H29          0.9704 -14.6252  11.6172 H              1 <1>                0.0000
     30 H30          2.5709 -18.1971  14.4213 H              1 <1>                0.0000
     31 H31          2.6260 -18.6514  12.6637 H              1 <1>                0.0000
     32 H32          1.5790 -16.8520  11.1918 H              1 <1>                0.0000
     33 H33         -0.0465 -17.2089  11.4149 H              1 <1>                0.0000
@<TRIPOS>BOND
    1    1    2 1     
    2    1   15 1     
    3    1   16 1     
    4    1   17 1     
    5    2    3 1     
    6    2    4 1     
    7    2    5 1     
    8    3   18 1     
    9    3   19 1     
   10    3   20 1     
   11    4   21 1     
   12    4   22 1     
   13    4   23 1     
   14    5    6 1     
   15    6    7 2     
   16    6    8 am    
   17    8    9 1     
   18    8   14 1     
   19    9   10 1     
   20    9   24 1     
   21    9   25 1     
   22   10   11 1     
   23   10   13 1     
   24   10   14 1     
   25   11   12 1     
   26   11   26 1     
   27   11   27 1     
   28   12   13 1     
   29   12   28 1     
   30   12   29 1     
   31   13   32 1     
   32   13   33 1     
   33   14   30 1     
   34   14   31 1     
@<TRIPOS>SUBSTRUCTURE
      1 ****           1
@<TRIPOS>SET
DONOR_HYDROGENS      STATIC     ATOMS    <user>   **** ""
2 32 33
ATOM$RED        STATIC     ATOMS    COLORGROUP SYSTEM
2 32 33
@<TRIPOS>COMMENT
> <Gold.Version>
2022.2.0

> <Gold.Id.Protein>
3pbl|protein|mol2

> <Gold.Protein.RotatedTorsions>
[ 1303 1298 1297 1294 ] final    9.59 input  179.99 | X-H torsion
[ 2461 2456 2455 2452 ] final  168.15 input   30.03 | X-H torsion
[ 2515 2510 2509 2506 ] final  -39.45 input  -89.99 | X-H torsion
[ 3721 3712 3711 3710 ] final -120.02 input -179.91 | X-H torsion
[ 3841 3832 3831 3830 ] final -107.45 input -179.91 | X-H torsion
[ 3767 3762 3761 3758 ] final  146.12 input  -89.99 | X-H torsion
[ 2472 2467 2466 2463 ] final   34.77 input  -89.97 | X-H torsion

> <Gold.Protein.ActiveResidues>
 VAL82   VAL86   LEU89   PHE106  VAL107  ASP110  VAL111  MET112  CYS114  THR115 
 CYS181  SER182  ILE183  PHE188  VAL189  ILE190  SER192  SER193  SER196  TRP342 
 PHE345  PHE346  HIS349  VAL350  TYR365  THR369  GLY372  TYR373 

> <Gold.Protein.RotatedAtoms>
    3.4454   -9.9900    4.1341 H   0  0  0  0  0  0  0  0  0  0  0  0  # atno 1303 bound_to 1298
    1.6298   -9.1414    8.3882 H   0  0  0  0  0  0  0  0  0  0  0  0  # atno 2461 bound_to 2456
   -4.2377   -4.8004    7.7293 H   0  0  0  0  0  0  0  0  0  0  0  0  # atno 2472 bound_to 2467
    2.7631   -8.1702    4.3578 H   0  0  0  0  0  0  0  0  0  0  0  0  # atno 2515 bound_to 2510
   -3.2176  -16.6563   14.4049 H   0  0  0  0  0  0  0  0  0  0  0  0  # atno 3721 bound_to 3712
   -3.9112  -22.9411   11.2477 H   0  0  0  0  0  0  0  0  0  0  0  0  # atno 3767 bound_to 3762
    2.0580  -19.5797    8.5475 H   0  0  0  0  0  0  0  0  0  0  0  0  # atno 3841 bound_to 3832
    4.1013   -8.4997    4.0110 LP  0  0  0  0  0  0  0  0  0  0  0  0  # atno 4297 bound_to 1298
    4.8157   -9.6315    4.9466 LP  0  0  0  0  0  0  0  0  0  0  0  0  # atno 4298 bound_to 1298
    1.7737   -7.9657    7.2639 LP  0  0  0  0  0  0  0  0  0  0  0  0  # atno 4299 bound_to 2456
    0.3344   -8.7012    7.4962 LP  0  0  0  0  0  0  0  0  0  0  0  0  # atno 4300 bound_to 2456
    2.4669   -9.2028    5.5873 LP  0  0  0  0  0  0  0  0  0  0  0  0  # atno 4301 bound_to 2510
    2.0665   -7.6262    5.7306 LP  0  0  0  0  0  0  0  0  0  0  0  0  # atno 4302 bound_to 2510
   -3.1903  -17.3547   12.9595 LP  0  0  0  0  0  0  0  0  0  0  0  0  # atno 4306 bound_to 3712
   -2.6226  -18.1417   14.2728 LP  0  0  0  0  0  0  0  0  0  0  0  0  # atno 4307 bound_to 3712
    3.1154  -20.7821    8.6576 LP  0  0  0  0  0  0  0  0  0  0  0  0  # atno 4314 bound_to 3832
    1.7367  -20.8056    9.5324 LP  0  0  0  0  0  0  0  0  0  0  0  0  # atno 4315 bound_to 3832
   -5.0334  -23.0180   10.0638 LP  0  0  0  0  0  0  0  0  0  0  0  0  # atno 4318 bound_to 3762
   -5.1824  -21.9160   11.2597 LP  0  0  0  0  0  0  0  0  0  0  0  0  # atno 4319 bound_to 3762
   -3.9809   -5.3214    9.2555 LP  0  0  0  0  0  0  0  0  0  0  0  0  # atno 4320 bound_to 2467
   -5.4983   -5.2716    8.6542 LP  0  0  0  0  0  0  0  0  0  0  0  0  # atno 4321 bound_to 2467

> <Gold.Score>
     Score     S(PLP)   S(hbond)     S(cho)   S(metal)  DE(clash)   DE(tors)     intcor
     35.93     -30.16       2.00       0.00       0.00       0.00       0.31       0.39

> <Gold.PLP.Fitness>
35.9262

> <Gold.PLP.PLP>
-30.1585

> <Gold.PLP.part.hbond>
-1.0000

> <Gold.PLP.part.metal>
0.0000

> <Gold.PLP.part.buried>
-4.1321

> <Gold.PLP.part.nonpolar>
-25.4606

> <Gold.PLP.part.repulsive>
0.0000

> <Gold.PLP.ligand.clash>
0.0000

> <Gold.PLP.ligand.torsion>
0.3111

> <Gold.PLP.Chemscore.Hbond>
2.0000

> <Gold.PLP.Chemscore.CHOScore>
0.0000

> <Gold.PLP.Chemscore.Metal>
0.0000

> <Gold.Chemscore.Hbonds>
donor molecule, donor type, donor heavy atom, donor atom, acceptor molecule, acceptor atom, score
      L1  H    13    32       P1  1227  2.00

> <Gold.PLP.Chemscore.Internal.Correction>
0.3900

