#       Name:                EN300-256216_i001
#       Creating user name   fsindt
#       Creation time:       Mon Feb 27 23:22:11 2023


#       File generated by GOLD software.
#

@<TRIPOS>MOLECULE
EN300-256216_i001|amine_3|mol2|1236|dock1
    33    34     1
SMALL
USER_CHARGES


@<TRIPOS>ATOM
      1 C1           0.1117 -16.1571  14.0999 C.3            1 <1>                0.0000
      2 C2           0.2775 -15.8225  12.6162 C.3            1 <1>                0.0000
      3 C3           1.7589 -15.5972  12.3066 C.3            1 <1>                0.0000
      4 C4          -0.2496 -16.9828  11.7697 C.3            1 <1>                0.0000
      5 O5          -0.4705 -14.6175  12.3051 O.3            1 <1>                0.0000
      6 C6          -0.3097 -14.0990  11.0731 C.2            1 <1>                0.0000
      7 O7           0.2010 -14.7660  10.1952 O.2            1 <1>                0.0000
      8 N8          -0.7152 -12.8402  10.8135 N.am           1 <1>                0.0000
      9 C9          -1.3528 -11.7554  11.5795 C.3            1 <1>                0.0000
     10 C10         -1.9061 -11.2351  10.2601 C.3            1 <1>                0.0000
     11 C11         -2.1792  -9.7518  10.0216 C.3            1 <1>                0.0000
     12 C12         -3.6676 -10.1117  10.2012 C.3            1 <1>                0.0000
     13 N13         -3.2839 -11.4950   9.8316 N.4            1 <1>                1.0000
     14 C14         -0.7076 -11.9473   9.6419 C.3            1 <1>                0.0000
     15 H15          0.4873 -15.3303  14.7029 H              1 <1>                0.0000
     16 H16         -0.9436 -16.3175  14.3204 H              1 <1>                0.0000
     17 H17          0.6732 -17.0616  14.3334 H              1 <1>                0.0000
     18 H18          2.3204 -16.5017  12.5401 H              1 <1>                0.0000
     19 H19          1.8771 -15.3588  11.2496 H              1 <1>                0.0000
     20 H20          2.1344 -14.7705  12.9098 H              1 <1>                0.0000
     21 H21         -1.3049 -17.1433  11.9902 H              1 <1>                0.0000
     22 H22         -0.1315 -16.7445  10.7127 H              1 <1>                0.0000
     23 H23          0.3120 -17.8873  12.0032 H              1 <1>                0.0000
     24 H24         -2.1234 -12.1033  12.2675 H              1 <1>                0.0000
     25 H25         -0.6403 -11.0778  12.0500 H              1 <1>                0.0000
     26 H26         -1.7865  -9.1010  10.8028 H              1 <1>                0.0000
     27 H27         -1.9263  -9.4138   9.0167 H              1 <1>                0.0000
     28 H28         -4.0213 -10.0145  11.2276 H              1 <1>                0.0000
     29 H29         -4.3251  -9.6310   9.4770 H              1 <1>                0.0000
     30 H30          0.1822 -11.3215   9.5728 H              1 <1>                0.0000
     31 H31         -0.9394 -12.4577   8.7070 H              1 <1>                0.0000
     32 H32         -3.3622 -11.6754   8.8418 H              1 <1>                0.0000
     33 H33         -3.7460 -12.1959  10.3914 H              1 <1>                0.0000
@<TRIPOS>BOND
    1    1    2 1     
    2    1   15 1     
    3    1   16 1     
    4    1   17 1     
    5    2    3 1     
    6    2    4 1     
    7    2    5 1     
    8    3   18 1     
    9    3   19 1     
   10    3   20 1     
   11    4   21 1     
   12    4   22 1     
   13    4   23 1     
   14    5    6 1     
   15    6    7 2     
   16    6    8 am    
   17    8    9 1     
   18    8   14 1     
   19    9   10 1     
   20    9   24 1     
   21    9   25 1     
   22   10   11 1     
   23   10   13 1     
   24   10   14 1     
   25   11   12 1     
   26   11   26 1     
   27   11   27 1     
   28   12   13 1     
   29   12   28 1     
   30   12   29 1     
   31   13   32 1     
   32   13   33 1     
   33   14   30 1     
   34   14   31 1     
@<TRIPOS>SUBSTRUCTURE
      1 ****           1
@<TRIPOS>SET
DONOR_HYDROGENS      STATIC     ATOMS    <user>   **** ""
2 32 33
ATOM$RED        STATIC     ATOMS    COLORGROUP SYSTEM
2 32 33
@<TRIPOS>COMMENT
> <Gold.Version>
2022.2.0

> <Gold.Id.Protein>
3pbl|protein|mol2

> <Gold.Protein.RotatedTorsions>
[ 1303 1298 1297 1294 ] final    2.17 input  179.99 | X-H torsion
[ 2461 2456 2455 2452 ] final  -60.89 input   30.03 | X-H torsion
[ 2515 2510 2509 2506 ] final  127.17 input  -89.99 | X-H torsion
[ 3721 3712 3711 3710 ] final  -57.99 input -179.91 | X-H torsion
[ 3841 3832 3831 3830 ] final  113.03 input -179.91 | X-H torsion
[ 3767 3762 3761 3758 ] final  113.26 input  -89.99 | X-H torsion
[ 2472 2467 2466 2463 ] final -105.78 input  -89.97 | X-H torsion

> <Gold.Protein.ActiveResidues>
 VAL82   VAL86   LEU89   PHE106  VAL107  ASP110  VAL111  MET112  CYS114  THR115 
 CYS181  SER182  ILE183  PHE188  VAL189  ILE190  SER192  SER193  SER196  TRP342 
 PHE345  PHE346  HIS349  VAL350  TYR365  THR369  GLY372  TYR373 

> <Gold.Protein.RotatedAtoms>
    3.3978   -9.9004    4.0663 H   0  0  0  0  0  0  0  0  0  0  0  0  # atno 1303 bound_to 1298
    0.3666   -8.5703    7.3768 H   0  0  0  0  0  0  0  0  0  0  0  0  # atno 2461 bound_to 2456
   -4.2739   -5.4057    9.3976 H   0  0  0  0  0  0  0  0  0  0  0  0  # atno 2472 bound_to 2467
    2.0570   -8.2808    6.0881 H   0  0  0  0  0  0  0  0  0  0  0  0  # atno 2515 bound_to 2510
   -2.7853  -17.3573   14.7492 H   0  0  0  0  0  0  0  0  0  0  0  0  # atno 3721 bound_to 3712
   -3.9922  -23.2358   10.8104 H   0  0  0  0  0  0  0  0  0  0  0  0  # atno 3767 bound_to 3762
    3.0417  -20.7842    9.0168 H   0  0  0  0  0  0  0  0  0  0  0  0  # atno 3841 bound_to 3832
    4.2036   -8.4803    4.0745 LP  0  0  0  0  0  0  0  0  0  0  0  0  # atno 4297 bound_to 1298
    4.7610   -9.7404    4.9509 LP  0  0  0  0  0  0  0  0  0  0  0  0  # atno 4298 bound_to 1298
    1.4647   -9.2122    8.4013 LP  0  0  0  0  0  0  0  0  0  0  0  0  # atno 4299 bound_to 2456
    1.9062   -8.0256    7.3700 LP  0  0  0  0  0  0  0  0  0  0  0  0  # atno 4300 bound_to 2456
    2.4915   -7.5596    4.6892 LP  0  0  0  0  0  0  0  0  0  0  0  0  # atno 4301 bound_to 2510
    2.7484   -9.1587    4.8976 LP  0  0  0  0  0  0  0  0  0  0  0  0  # atno 4302 bound_to 2510
   -3.5499  -16.6379   13.5344 LP  0  0  0  0  0  0  0  0  0  0  0  0  # atno 4306 bound_to 3712
   -2.7621  -18.0491   13.3005 LP  0  0  0  0  0  0  0  0  0  0  0  0  # atno 4307 bound_to 3712
    1.5105  -20.5288    9.4245 LP  0  0  0  0  0  0  0  0  0  0  0  0  # atno 4314 bound_to 3832
    2.2051  -19.6676    8.2234 LP  0  0  0  0  0  0  0  0  0  0  0  0  # atno 4315 bound_to 3832
   -5.3797  -22.6339   10.1944 LP  0  0  0  0  0  0  0  0  0  0  0  0  # atno 4318 bound_to 3762
   -4.7552  -22.0056   11.5663 LP  0  0  0  0  0  0  0  0  0  0  0  0  # atno 4319 bound_to 3762
   -5.4914   -5.1570    8.3382 LP  0  0  0  0  0  0  0  0  0  0  0  0  # atno 4320 bound_to 2467
   -3.9515   -4.8309    7.9035 LP  0  0  0  0  0  0  0  0  0  0  0  0  # atno 4321 bound_to 2467

> <Gold.Score>
     Score     S(PLP)   S(hbond)     S(cho)   S(metal)  DE(clash)   DE(tors)     intcor
     47.02     -47.06       0.00       0.00       0.00       0.00       0.23       0.42

> <Gold.PLP.Fitness>
47.0214

> <Gold.PLP.PLP>
-47.0633

> <Gold.PLP.part.hbond>
0.0000

> <Gold.PLP.part.metal>
0.0000

> <Gold.PLP.part.buried>
-5.1306

> <Gold.PLP.part.nonpolar>
-43.4385

> <Gold.PLP.part.repulsive>
0.1473

> <Gold.PLP.ligand.clash>
0.0000

> <Gold.PLP.ligand.torsion>
0.2330

> <Gold.PLP.Chemscore.Hbond>
0.0000

> <Gold.PLP.Chemscore.CHOScore>
0.0000

> <Gold.PLP.Chemscore.Metal>
0.0000

> <Gold.PLP.Chemscore.Internal.Correction>
0.4242

