#       Name:                EN300-256216_i001
#       Creating user name   fsindt
#       Creation time:       Mon Feb 27 23:22:18 2023


#       File generated by GOLD software.
#

@<TRIPOS>MOLECULE
EN300-256216_i001|amine_3|mol2|1236|dock12
    33    34     1
SMALL
USER_CHARGES


@<TRIPOS>ATOM
      1 C1           0.0697 -10.8435  10.3683 C.3            1 <1>                0.0000
      2 C2          -0.5090 -11.8470   9.3689 C.3            1 <1>                0.0000
      3 C3          -2.0037 -11.5775   9.1831 C.3            1 <1>                0.0000
      4 C4           0.2069 -11.6989   8.0249 C.3            1 <1>                0.0000
      5 O5          -0.3194 -13.1957   9.8723 O.3            1 <1>                0.0000
      6 C6          -0.7021 -13.4342  11.1409 C.2            1 <1>                0.0000
      7 O7          -1.4913 -12.6894  11.6876 O.2            1 <1>                0.0000
      8 N8          -0.2098 -14.4989  11.8045 N.am           1 <1>                0.0000
      9 C9           0.7295 -15.5924  11.5009 C.3            1 <1>                0.0000
     10 C10          0.0022 -16.4228  12.5493 C.3            1 <1>                0.0000
     11 C11          0.7084 -17.5055  13.3620 C.3            1 <1>                0.0000
     12 C12         -0.0166 -18.5101  12.4443 C.3            1 <1>                0.0000
     13 N13         -1.0009 -17.4308  12.1925 N.4            1 <1>                1.0000
     14 C14         -0.3714 -15.0725  13.1516 C.3            1 <1>                0.0000
     15 H15         -0.4403 -10.9491  11.3259 H              1 <1>                0.0000
     16 H16          1.1345 -11.0355  10.5008 H              1 <1>                0.0000
     17 H17         -0.0726  -9.8311   9.9905 H              1 <1>                0.0000
     18 H18         -2.1460 -10.5651   8.8052 H              1 <1>                0.0000
     19 H19         -2.4160 -12.2925   8.4711 H              1 <1>                0.0000
     20 H20         -2.5136 -11.6831  10.1407 H              1 <1>                0.0000
     21 H21          1.2716 -11.8909   8.1572 H              1 <1>                0.0000
     22 H22         -0.2055 -12.4139   7.3129 H              1 <1>                0.0000
     23 H23          0.0644 -10.6865   7.6470 H              1 <1>                0.0000
     24 H24          0.6286 -15.9843  10.4888 H              1 <1>                0.0000
     25 H25          1.7622 -15.3651  11.7655 H              1 <1>                0.0000
     26 H26          1.7923 -17.5062  13.2459 H              1 <1>                0.0000
     27 H27          0.3903 -17.5519  14.4035 H              1 <1>                0.0000
     28 H28          0.5589 -18.7928  11.5628 H              1 <1>                0.0000
     29 H29         -0.4319 -19.3671  12.9744 H              1 <1>                0.0000
     30 H30          0.3549 -14.7032  13.8758 H              1 <1>                0.0000
     31 H31         -1.3962 -15.0291  13.5206 H              1 <1>                0.0000
     32 H32         -1.7827 -17.4528  12.8301 H              1 <1>                0.0000
     33 H33         -1.2891 -17.3766  11.2270 H              1 <1>                0.0000
@<TRIPOS>BOND
    1    1    2 1     
    2    1   15 1     
    3    1   16 1     
    4    1   17 1     
    5    2    3 1     
    6    2    4 1     
    7    2    5 1     
    8    3   18 1     
    9    3   19 1     
   10    3   20 1     
   11    4   21 1     
   12    4   22 1     
   13    4   23 1     
   14    5    6 1     
   15    6    7 2     
   16    6    8 am    
   17    8    9 1     
   18    8   14 1     
   19    9   10 1     
   20    9   24 1     
   21    9   25 1     
   22   10   11 1     
   23   10   13 1     
   24   10   14 1     
   25   11   12 1     
   26   11   26 1     
   27   11   27 1     
   28   12   13 1     
   29   12   28 1     
   30   12   29 1     
   31   13   32 1     
   32   13   33 1     
   33   14   30 1     
   34   14   31 1     
@<TRIPOS>SUBSTRUCTURE
      1 ****           1
@<TRIPOS>SET
DONOR_HYDROGENS      STATIC     ATOMS    <user>   **** ""
2 32 33
ATOM$RED        STATIC     ATOMS    COLORGROUP SYSTEM
2 32 33
@<TRIPOS>COMMENT
> <Gold.Version>
2022.2.0

> <Gold.Id.Protein>
3pbl|protein|mol2

> <Gold.Protein.RotatedTorsions>
[ 1303 1298 1297 1294 ] final    5.33 input  179.99 | X-H torsion
[ 2461 2456 2455 2452 ] final   77.33 input   30.03 | X-H torsion
[ 2515 2510 2509 2506 ] final   66.65 input  -89.99 | X-H torsion
[ 3721 3712 3711 3710 ] final -106.80 input -179.91 | X-H torsion
[ 3841 3832 3831 3830 ] final -174.25 input -179.91 | X-H torsion
[ 3767 3762 3761 3758 ] final   98.35 input  -89.99 | X-H torsion
[ 2472 2467 2466 2463 ] final  168.44 input  -89.97 | X-H torsion

> <Gold.Protein.ActiveResidues>
 VAL82   VAL86   LEU89   PHE106  VAL107  ASP110  VAL111  MET112  CYS114  THR115 
 CYS181  SER182  ILE183  PHE188  VAL189  ILE190  SER192  SER193  SER196  TRP342 
 PHE345  PHE346  HIS349  VAL350  TYR365  THR369  GLY372  TYR373 

> <Gold.Protein.RotatedAtoms>
    3.4166   -9.9397    4.0946 H   0  0  0  0  0  0  0  0  0  0  0  0  # atno 1303 bound_to 1298
    2.0716   -8.1703    7.5723 H   0  0  0  0  0  0  0  0  0  0  0  0  # atno 2461 bound_to 2456
   -5.4369   -5.3396    8.8592 H   0  0  0  0  0  0  0  0  0  0  0  0  # atno 2472 bound_to 2467
    2.1186   -7.5040    5.5452 H   0  0  0  0  0  0  0  0  0  0  0  0  # atno 2515 bound_to 2510
   -3.1404  -16.7683   14.5507 H   0  0  0  0  0  0  0  0  0  0  0  0  # atno 3721 bound_to 3712
   -4.1091  -23.3086   10.6082 H   0  0  0  0  0  0  0  0  0  0  0  0  # atno 3767 bound_to 3762
    2.9051  -19.9857    8.3864 H   0  0  0  0  0  0  0  0  0  0  0  0  # atno 3841 bound_to 3832
    4.1602   -8.4867    4.0468 LP  0  0  0  0  0  0  0  0  0  0  0  0  # atno 4297 bound_to 1298
    4.7856   -9.6947    4.9502 LP  0  0  0  0  0  0  0  0  0  0  0  0  # atno 4298 bound_to 1298
    0.4907   -8.3577    7.2076 LP  0  0  0  0  0  0  0  0  0  0  0  0  # atno 4299 bound_to 2456
    1.1757   -9.2800    8.3681 LP  0  0  0  0  0  0  0  0  0  0  0  0  # atno 4300 bound_to 2456
    2.8090   -8.3936    4.3629 LP  0  0  0  0  0  0  0  0  0  0  0  0  # atno 4301 bound_to 2510
    2.3694   -9.1020    5.7670 LP  0  0  0  0  0  0  0  0  0  0  0  0  # atno 4302 bound_to 2510
   -3.2949  -17.1655   13.0027 LP  0  0  0  0  0  0  0  0  0  0  0  0  # atno 4306 bound_to 3712
   -2.6072  -18.2015   14.0612 LP  0  0  0  0  0  0  0  0  0  0  0  0  # atno 4307 bound_to 3712
    2.4591  -21.1518    9.3950 LP  0  0  0  0  0  0  0  0  0  0  0  0  # atno 4314 bound_to 3832
    1.4144  -19.9670    8.9810 LP  0  0  0  0  0  0  0  0  0  0  0  0  # atno 4315 bound_to 3832
   -5.4704  -22.4508   10.3289 LP  0  0  0  0  0  0  0  0  0  0  0  0  # atno 4318 bound_to 3762
   -4.5476  -22.1159   11.6339 LP  0  0  0  0  0  0  0  0  0  0  0  0  # atno 4319 bound_to 3762
   -4.4544   -4.8024    7.6707 LP  0  0  0  0  0  0  0  0  0  0  0  0  # atno 4320 bound_to 2467
   -3.8257   -5.2516    9.1093 LP  0  0  0  0  0  0  0  0  0  0  0  0  # atno 4321 bound_to 2467

> <Gold.Score>
     Score     S(PLP)   S(hbond)     S(cho)   S(metal)  DE(clash)   DE(tors)     intcor
     38.36     -35.69       1.00       0.00       0.00       0.00       0.36       0.39

> <Gold.PLP.Fitness>
38.3650

> <Gold.PLP.PLP>
-35.6945

> <Gold.PLP.part.hbond>
-1.8329

> <Gold.PLP.part.metal>
0.0000

> <Gold.PLP.part.buried>
-3.6148

> <Gold.PLP.part.nonpolar>
-31.1975

> <Gold.PLP.part.repulsive>
0.0736

> <Gold.PLP.ligand.clash>
0.0000

> <Gold.PLP.ligand.torsion>
0.3597

> <Gold.PLP.Chemscore.Hbond>
1.0000

> <Gold.PLP.Chemscore.CHOScore>
0.0000

> <Gold.PLP.Chemscore.Metal>
0.0000

> <Gold.Chemscore.Hbonds>
donor molecule, donor type, donor heavy atom, donor atom, acceptor molecule, acceptor atom, score
      L1  H    13    32       P1  3712  1.00

> <Gold.PLP.Chemscore.Internal.Correction>
0.3900

