#       Name:                EN300-256216_i001
#       Creating user name   fsindt
#       Creation time:       Mon Feb 27 23:22:23 2023


#       File generated by GOLD software.
#

@<TRIPOS>MOLECULE
EN300-256216_i001|amine_3|mol2|1236|dock18
    33    34     1
SMALL
USER_CHARGES


@<TRIPOS>ATOM
      1 C1           0.4982 -11.3446   9.8685 C.3            1 <1>                0.0000
      2 C2          -0.4810 -12.3736   9.3001 C.3            1 <1>                0.0000
      3 C3          -1.9098 -11.8401   9.4230 C.3            1 <1>                0.0000
      4 C4          -0.1563 -12.6272   7.8267 C.3            1 <1>                0.0000
      5 O5          -0.3628 -13.6159  10.0426 O.3            1 <1>                0.0000
      6 C6           0.8778 -14.1097  10.2143 C.2            1 <1>                0.0000
      7 O7           1.7360 -13.9000   9.3801 O.2            1 <1>                0.0000
      8 N8           1.1679 -14.8368  11.3114 N.am           1 <1>                0.0000
      9 C9           2.3594 -15.5221  11.8414 C.3            1 <1>                0.0000
     10 C10          1.4137 -16.4519  12.5888 C.3            1 <1>                0.0000
     11 C11          1.7931 -17.0997  13.9185 C.3            1 <1>                0.0000
     12 C12          1.9967 -18.3921  13.1028 C.3            1 <1>                0.0000
     13 N13          1.0849 -17.7941  12.0987 N.4            1 <1>                1.0000
     14 C14          0.4334 -15.2867  12.5065 C.3            1 <1>                0.0000
     15 H15          0.2668 -11.1640  10.9182 H              1 <1>                0.0000
     16 H16          1.5160 -11.7247   9.7810 H              1 <1>                0.0000
     17 H17          0.4094 -10.4121   9.3112 H              1 <1>                0.0000
     18 H18         -1.9986 -10.9077   8.8657 H              1 <1>                0.0000
     19 H19         -2.6075 -12.5732   9.0181 H              1 <1>                0.0000
     20 H20         -2.1411 -11.6595  10.4728 H              1 <1>                0.0000
     21 H21          0.8615 -13.0073   7.7391 H              1 <1>                0.0000
     22 H22         -0.8540 -13.3603   7.4218 H              1 <1>                0.0000
     23 H23         -0.2451 -11.6947   7.2694 H              1 <1>                0.0000
     24 H24          2.9487 -16.0253  11.0748 H              1 <1>                0.0000
     25 H25          2.9647 -14.8974  12.4981 H              1 <1>                0.0000
     26 H26          2.7110 -16.7050  14.3542 H              1 <1>                0.0000
     27 H27          0.9708 -17.1545  14.6318 H              1 <1>                0.0000
     28 H28          3.0168 -18.5271  12.7430 H              1 <1>                0.0000
     29 H29          1.5941 -19.2827  13.5851 H              1 <1>                0.0000
     30 H30          0.5033 -14.5989  13.3493 H              1 <1>                0.0000
     31 H31         -0.5909 -15.5938  12.2950 H              1 <1>                0.0000
     32 H32          0.1180 -18.0423  12.2461 H              1 <1>                0.0000
     33 H33          1.3856 -17.9521  11.1486 H              1 <1>                0.0000
@<TRIPOS>BOND
    1    1    2 1     
    2    1   15 1     
    3    1   16 1     
    4    1   17 1     
    5    2    3 1     
    6    2    4 1     
    7    2    5 1     
    8    3   18 1     
    9    3   19 1     
   10    3   20 1     
   11    4   21 1     
   12    4   22 1     
   13    4   23 1     
   14    5    6 1     
   15    6    7 2     
   16    6    8 am    
   17    8    9 1     
   18    8   14 1     
   19    9   10 1     
   20    9   24 1     
   21    9   25 1     
   22   10   11 1     
   23   10   13 1     
   24   10   14 1     
   25   11   12 1     
   26   11   26 1     
   27   11   27 1     
   28   12   13 1     
   29   12   28 1     
   30   12   29 1     
   31   13   32 1     
   32   13   33 1     
   33   14   30 1     
   34   14   31 1     
@<TRIPOS>SUBSTRUCTURE
      1 ****           1
@<TRIPOS>SET
DONOR_HYDROGENS      STATIC     ATOMS    <user>   **** ""
2 32 33
ATOM$RED        STATIC     ATOMS    COLORGROUP SYSTEM
2 32 33
@<TRIPOS>COMMENT
> <Gold.Version>
2022.2.0

> <Gold.Id.Protein>
3pbl|protein|mol2

> <Gold.Protein.RotatedTorsions>
[ 1303 1298 1297 1294 ] final -172.13 input  179.99 | X-H torsion
[ 2461 2456 2455 2452 ] final -161.43 input   30.03 | X-H torsion
[ 2515 2510 2509 2506 ] final -173.31 input  -89.99 | X-H torsion
[ 3721 3712 3711 3710 ] final  -30.37 input -179.91 | X-H torsion
[ 3841 3832 3831 3830 ] final  -86.28 input -179.91 | X-H torsion
[ 3767 3762 3761 3758 ] final -176.84 input  -89.99 | X-H torsion
[ 2472 2467 2466 2463 ] final  -11.16 input  -89.97 | X-H torsion

> <Gold.Protein.ActiveResidues>
 VAL82   VAL86   LEU89   PHE106  VAL107  ASP110  VAL111  MET112  CYS114  THR115 
 CYS181  SER182  ILE183  PHE188  VAL189  ILE190  SER192  SER193  SER196  TRP342 
 PHE345  PHE346  HIS349  VAL350  TYR365  THR369  GLY372  TYR373 

> <Gold.Protein.RotatedAtoms>
    4.8077   -8.7773    4.6102 H   0  0  0  0  0  0  0  0  0  0  0  0  # atno 1303 bound_to 1298
    1.1560   -9.2824    8.3637 H   0  0  0  0  0  0  0  0  0  0  0  0  # atno 2461 bound_to 2456
   -3.7101   -4.9219    8.2274 H   0  0  0  0  0  0  0  0  0  0  0  0  # atno 2472 bound_to 2467
    2.3698   -9.1020    5.7665 H   0  0  0  0  0  0  0  0  0  0  0  0  # atno 2515 bound_to 2510
   -2.6051  -17.6958   14.5942 H   0  0  0  0  0  0  0  0  0  0  0  0  # atno 3721 bound_to 3712
   -4.1240  -22.4940   11.5848 H   0  0  0  0  0  0  0  0  0  0  0  0  # atno 3767 bound_to 3762
    1.8136  -19.6307    8.7444 H   0  0  0  0  0  0  0  0  0  0  0  0  # atno 3841 bound_to 3832
    4.1165  -10.2538    4.7022 LP  0  0  0  0  0  0  0  0  0  0  0  0  # atno 4297 bound_to 1298
    3.4376   -9.0905    3.7790 LP  0  0  0  0  0  0  0  0  0  0  0  0  # atno 4298 bound_to 1298
    2.0797   -8.1820    7.5868 LP  0  0  0  0  0  0  0  0  0  0  0  0  # atno 4299 bound_to 2456
    0.5020   -8.3440    7.1979 LP  0  0  0  0  0  0  0  0  0  0  0  0  # atno 4300 bound_to 2456
    2.1181   -7.5039    5.5457 LP  0  0  0  0  0  0  0  0  0  0  0  0  # atno 4301 bound_to 2510
    2.8089   -8.3929    4.3628 LP  0  0  0  0  0  0  0  0  0  0  0  0  # atno 4302 bound_to 2510
   -3.5570  -16.5558   13.9840 LP  0  0  0  0  0  0  0  0  0  0  0  0  # atno 4306 bound_to 3712
   -2.9631  -17.7404   13.0297 LP  0  0  0  0  0  0  0  0  0  0  0  0  # atno 4307 bound_to 3712
    3.1115  -20.5190    8.4244 LP  0  0  0  0  0  0  0  0  0  0  0  0  # atno 4314 bound_to 3832
    2.0228  -21.0099    9.5381 LP  0  0  0  0  0  0  0  0  0  0  0  0  # atno 4315 bound_to 3832
   -4.5261  -23.2954   10.2199 LP  0  0  0  0  0  0  0  0  0  0  0  0  # atno 4318 bound_to 3762
   -5.4770  -22.0857   10.7667 LP  0  0  0  0  0  0  0  0  0  0  0  0  # atno 4319 bound_to 3762
   -4.6837   -5.4592    9.4232 LP  0  0  0  0  0  0  0  0  0  0  0  0  # atno 4320 bound_to 2467
   -5.3229   -5.0124    7.9885 LP  0  0  0  0  0  0  0  0  0  0  0  0  # atno 4321 bound_to 2467

> <Gold.Score>
     Score     S(PLP)   S(hbond)     S(cho)   S(metal)  DE(clash)   DE(tors)     intcor
     38.33     -32.85       2.00       0.00       0.00       0.00       0.45       0.39

> <Gold.PLP.Fitness>
38.3287

> <Gold.PLP.PLP>
-32.8454

> <Gold.PLP.part.hbond>
-1.0000

> <Gold.PLP.part.metal>
0.0000

> <Gold.PLP.part.buried>
-0.2308

> <Gold.PLP.part.nonpolar>
-32.2160

> <Gold.PLP.part.repulsive>
0.1093

> <Gold.PLP.ligand.clash>
0.0000

> <Gold.PLP.ligand.torsion>
0.4533

> <Gold.PLP.Chemscore.Hbond>
2.0000

> <Gold.PLP.Chemscore.CHOScore>
0.0000

> <Gold.PLP.Chemscore.Metal>
0.0000

> <Gold.Chemscore.Hbonds>
donor molecule, donor type, donor heavy atom, donor atom, acceptor molecule, acceptor atom, score
      L1  H    13    33       P1  1227  2.00

> <Gold.PLP.Chemscore.Internal.Correction>
0.3900

