#       Name:                EN300-256216_i001
#       Creating user name   fsindt
#       Creation time:       Mon Feb 27 23:22:19 2023


#       File generated by GOLD software.
#

@<TRIPOS>MOLECULE
EN300-256216_i001|amine_3|mol2|1236|dock13
    33    34     1
SMALL
USER_CHARGES


@<TRIPOS>ATOM
      1 C1          -0.7249 -22.5283  12.2507 C.3            1 <1>                0.0000
      2 C2          -0.1883 -21.5291  13.2776 C.3            1 <1>                0.0000
      3 C3          -1.1474 -21.4561  14.4676 C.3            1 <1>                0.0000
      4 C4           1.1901 -21.9846  13.7607 C.3            1 <1>                0.0000
      5 O5          -0.0773 -20.2175  12.6645 O.3            1 <1>                0.0000
      6 C6           0.1734 -19.1790  13.4838 C.2            1 <1>                0.0000
      7 O7           0.6469 -19.3748  14.5855 O.2            1 <1>                0.0000
      8 N8          -0.1010 -17.9221  13.0819 N.am           1 <1>                0.0000
      9 C9          -0.6575 -17.2972  11.8695 C.3            1 <1>                0.0000
     10 C10          0.1124 -16.0378  12.2423 C.3            1 <1>                0.0000
     11 C11         -0.3819 -14.6424  11.8683 C.3            1 <1>                0.0000
     12 C12          0.7092 -14.6698  10.7792 C.3            1 <1>                0.0000
     13 N13          1.3904 -15.6866  11.6154 N.4            1 <1>                1.0000
     14 C14          0.0186 -16.5753  13.6664 C.3            1 <1>                0.0000
     15 H15         -1.7069 -22.2037  11.9066 H              1 <1>                0.0000
     16 H16         -0.0417 -22.5802  11.4030 H              1 <1>                0.0000
     17 H17         -0.8082 -23.5128  12.7109 H              1 <1>                0.0000
     18 H18         -1.2307 -22.4406  14.9278 H              1 <1>                0.0000
     19 H19         -0.7652 -20.7442  15.1991 H              1 <1>                0.0000
     20 H20         -2.1294 -21.1316  14.1234 H              1 <1>                0.0000
     21 H21          1.8732 -22.0365  12.9130 H              1 <1>                0.0000
     22 H22          1.5722 -21.2727  14.4922 H              1 <1>                0.0000
     23 H23          1.1066 -22.9691  14.2209 H              1 <1>                0.0000
     24 H24         -0.3132 -17.7598  10.9445 H              1 <1>                0.0000
     25 H25         -1.7397 -17.1714  11.9022 H              1 <1>                0.0000
     26 H26         -1.3977 -14.6266  11.4732 H              1 <1>                0.0000
     27 H27         -0.2127 -13.8935  12.6420 H              1 <1>                0.0000
     28 H28          0.3613 -15.0530   9.8199 H              1 <1>                0.0000
     29 H29          1.2619 -13.7348  10.6890 H              1 <1>                0.0000
     30 H30         -0.8746 -16.2464  14.1976 H              1 <1>                0.0000
     31 H31          0.9312 -16.4341  14.2457 H              1 <1>                0.0000
     32 H32          2.0514 -15.2859  12.2641 H              1 <1>                0.0000
     33 H33          1.7859 -16.4416  11.0753 H              1 <1>                0.0000
@<TRIPOS>BOND
    1    1    2 1     
    2    1   15 1     
    3    1   16 1     
    4    1   17 1     
    5    2    3 1     
    6    2    4 1     
    7    2    5 1     
    8    3   18 1     
    9    3   19 1     
   10    3   20 1     
   11    4   21 1     
   12    4   22 1     
   13    4   23 1     
   14    5    6 1     
   15    6    7 2     
   16    6    8 am    
   17    8    9 1     
   18    8   14 1     
   19    9   10 1     
   20    9   24 1     
   21    9   25 1     
   22   10   11 1     
   23   10   13 1     
   24   10   14 1     
   25   11   12 1     
   26   11   26 1     
   27   11   27 1     
   28   12   13 1     
   29   12   28 1     
   30   12   29 1     
   31   13   32 1     
   32   13   33 1     
   33   14   30 1     
   34   14   31 1     
@<TRIPOS>SUBSTRUCTURE
      1 ****           1
@<TRIPOS>SET
DONOR_HYDROGENS      STATIC     ATOMS    <user>   **** ""
2 32 33
ATOM$RED        STATIC     ATOMS    COLORGROUP SYSTEM
2 32 33
@<TRIPOS>COMMENT
> <Gold.Version>
2022.2.0

> <Gold.Id.Protein>
3pbl|protein|mol2

> <Gold.Protein.RotatedTorsions>
[ 1303 1298 1297 1294 ] final   16.50 input  179.99 | X-H torsion
[ 2461 2456 2455 2452 ] final  173.89 input   30.03 | X-H torsion
[ 2515 2510 2509 2506 ] final  -98.58 input  -89.99 | X-H torsion
[ 3721 3712 3711 3710 ] final -137.33 input -179.91 | X-H torsion
[ 3841 3832 3831 3830 ] final  111.47 input -179.91 | X-H torsion
[ 3767 3762 3761 3758 ] final   70.59 input  -89.99 | X-H torsion
[ 2472 2467 2466 2463 ] final -118.43 input  -89.97 | X-H torsion

> <Gold.Protein.ActiveResidues>
 VAL82   VAL86   LEU89   PHE106  VAL107  ASP110  VAL111  MET112  CYS114  THR115 
 CYS181  SER182  ILE183  PHE188  VAL189  ILE190  SER192  SER193  SER196  TRP342 
 PHE345  PHE346  HIS349  VAL350  TYR365  THR369  GLY372  TYR373 

> <Gold.Protein.RotatedAtoms>
    3.5000  -10.0641    4.2008 H   0  0  0  0  0  0  0  0  0  0  0  0  # atno 1303 bound_to 1298
    1.5446   -9.1813    8.3983 H   0  0  0  0  0  0  0  0  0  0  0  0  # atno 2461 bound_to 2456
   -4.4759   -5.4402    9.4319 H   0  0  0  0  0  0  0  0  0  0  0  0  # atno 2472 bound_to 2467
    2.8004   -9.0305    4.7091 H   0  0  0  0  0  0  0  0  0  0  0  0  # atno 2515 bound_to 2510
   -3.2930  -16.5604   14.1745 H   0  0  0  0  0  0  0  0  0  0  0  0  # atno 3721 bound_to 3712
   -4.4262  -23.3199   10.2858 H   0  0  0  0  0  0  0  0  0  0  0  0  # atno 3767 bound_to 3762
    3.0315  -20.7964    9.0340 H   0  0  0  0  0  0  0  0  0  0  0  0  # atno 3841 bound_to 3832
    4.0062   -8.5310    3.9570 LP  0  0  0  0  0  0  0  0  0  0  0  0  # atno 4297 bound_to 1298
    4.8562   -9.5260    4.9338 LP  0  0  0  0  0  0  0  0  0  0  0  0  # atno 4298 bound_to 1298
    1.8459   -7.9943    7.3177 LP  0  0  0  0  0  0  0  0  0  0  0  0  # atno 4299 bound_to 2456
    0.3473   -8.6328    7.4324 LP  0  0  0  0  0  0  0  0  0  0  0  0  # atno 4300 bound_to 2456
    2.1048   -8.5097    6.0914 LP  0  0  0  0  0  0  0  0  0  0  0  0  # atno 4301 bound_to 2510
    2.3913   -7.4586    4.8750 LP  0  0  0  0  0  0  0  0  0  0  0  0  # atno 4302 bound_to 2510
   -3.0461  -17.6034   12.9791 LP  0  0  0  0  0  0  0  0  0  0  0  0  # atno 4306 bound_to 3712
   -2.6798  -18.0036   14.5193 LP  0  0  0  0  0  0  0  0  0  0  0  0  # atno 4307 bound_to 3712
    1.4988  -20.5084    9.4135 LP  0  0  0  0  0  0  0  0  0  0  0  0  # atno 4314 bound_to 3832
    2.2287  -19.6740    8.2145 LP  0  0  0  0  0  0  0  0  0  0  0  0  # atno 4315 bound_to 3832
   -5.5006  -22.1501   10.6653 LP  0  0  0  0  0  0  0  0  0  0  0  0  # atno 4318 bound_to 3762
   -4.2004  -22.4053   11.6197 LP  0  0  0  0  0  0  0  0  0  0  0  0  # atno 4319 bound_to 3762
   -5.4284   -5.0838    8.1543 LP  0  0  0  0  0  0  0  0  0  0  0  0  # atno 4320 bound_to 2467
   -3.8127   -4.8696    8.0531 LP  0  0  0  0  0  0  0  0  0  0  0  0  # atno 4321 bound_to 2467

> <Gold.Score>
     Score     S(PLP)   S(hbond)     S(cho)   S(metal)  DE(clash)   DE(tors)     intcor
     37.37     -31.71       2.00       0.00       0.00       0.00       0.36       0.39

> <Gold.PLP.Fitness>
37.3740

> <Gold.PLP.PLP>
-31.7062

> <Gold.PLP.part.hbond>
-1.0000

> <Gold.PLP.part.metal>
0.0000

> <Gold.PLP.part.buried>
-3.7524

> <Gold.PLP.part.nonpolar>
-27.2989

> <Gold.PLP.part.repulsive>
0.0459

> <Gold.PLP.ligand.clash>
0.0000

> <Gold.PLP.ligand.torsion>
0.3611

> <Gold.PLP.Chemscore.Hbond>
2.0000

> <Gold.PLP.Chemscore.CHOScore>
0.0000

> <Gold.PLP.Chemscore.Metal>
0.0000

> <Gold.Chemscore.Hbonds>
donor molecule, donor type, donor heavy atom, donor atom, acceptor molecule, acceptor atom, score
      L1  H    13    33       P1  1227  2.00

> <Gold.PLP.Chemscore.Internal.Correction>
0.3900

