#       Name:                EN300-256216_i001
#       Creating user name   fsindt
#       Creation time:       Mon Feb 27 23:22:15 2023


#       File generated by GOLD software.
#

@<TRIPOS>MOLECULE
EN300-256216_i001|amine_3|mol2|1236|dock7
    33    34     1
SMALL
USER_CHARGES


@<TRIPOS>ATOM
      1 C1           1.8737 -14.3916   9.1103 C.3            1 <1>                0.0000
      2 C2           0.8406 -13.6925   8.2244 C.3            1 <1>                0.0000
      3 C3           1.3665 -12.3143   7.8180 C.3            1 <1>                0.0000
      4 C4           0.5914 -14.5332   6.9707 C.3            1 <1>                0.0000
      5 O5          -0.4023 -13.5388   8.9592 O.3            1 <1>                0.0000
      6 C6          -0.4139 -12.6376   9.9593 C.2            1 <1>                0.0000
      7 O7           0.6173 -12.3606  10.5394 O.2            1 <1>                0.0000
      8 N8          -1.5690 -12.0428  10.3172 N.am           1 <1>                0.0000
      9 C9          -2.9730 -12.1075   9.8756 C.3            1 <1>                0.0000
     10 C10         -3.1370 -10.6880  10.4007 C.3            1 <1>                0.0000
     11 C11         -4.4693 -10.1681  10.9356 C.3            1 <1>                0.0000
     12 C12         -4.5802  -9.4056   9.6002 C.3            1 <1>                0.0000
     13 N13         -3.1044  -9.5177   9.5181 N.4            1 <1>                1.0000
     14 C14         -1.9791 -11.0497  11.3249 C.3            1 <1>                0.0000
     15 H15          2.0512 -13.7926  10.0035 H              1 <1>                0.0000
     16 H16          1.4991 -15.3734   9.3999 H              1 <1>                0.0000
     17 H17          2.8067 -14.5069   8.5588 H              1 <1>                0.0000
     18 H18          2.2995 -12.4296   7.2665 H              1 <1>                0.0000
     19 H19          0.6305 -11.8162   7.1869 H              1 <1>                0.0000
     20 H20          1.5440 -11.7153   8.7113 H              1 <1>                0.0000
     21 H21          0.2168 -15.5150   7.2601 H              1 <1>                0.0000
     22 H22         -0.1446 -14.0351   6.3396 H              1 <1>                0.0000
     23 H23          1.5245 -14.6485   6.4192 H              1 <1>                0.0000
     24 H24         -3.0857 -12.1872   8.7943 H              1 <1>                0.0000
     25 H25         -3.5664 -12.8434  10.4181 H              1 <1>                0.0000
     26 H26         -5.2247 -10.9434  11.0637 H              1 <1>                0.0000
     27 H27         -4.3711  -9.5194  11.8060 H              1 <1>                0.0000
     28 H28         -5.1057  -9.9590   8.8219 H              1 <1>                0.0000
     29 H29         -4.9366  -8.3813   9.7087 H              1 <1>                0.0000
     30 H30         -2.2979 -11.4894  12.2700 H              1 <1>                0.0000
     31 H31         -1.2583 -10.2425  11.4557 H              1 <1>                0.0000
     32 H32         -2.6253  -8.7288   9.9260 H              1 <1>                0.0000
     33 H33         -2.7758  -9.7330   8.5887 H              1 <1>                0.0000
@<TRIPOS>BOND
    1    1    2 1     
    2    1   15 1     
    3    1   16 1     
    4    1   17 1     
    5    2    3 1     
    6    2    4 1     
    7    2    5 1     
    8    3   18 1     
    9    3   19 1     
   10    3   20 1     
   11    4   21 1     
   12    4   22 1     
   13    4   23 1     
   14    5    6 1     
   15    6    7 2     
   16    6    8 am    
   17    8    9 1     
   18    8   14 1     
   19    9   10 1     
   20    9   24 1     
   21    9   25 1     
   22   10   11 1     
   23   10   13 1     
   24   10   14 1     
   25   11   12 1     
   26   11   26 1     
   27   11   27 1     
   28   12   13 1     
   29   12   28 1     
   30   12   29 1     
   31   13   32 1     
   32   13   33 1     
   33   14   30 1     
   34   14   31 1     
@<TRIPOS>SUBSTRUCTURE
      1 ****           1
@<TRIPOS>SET
DONOR_HYDROGENS      STATIC     ATOMS    <user>   **** ""
2 32 33
ATOM$RED        STATIC     ATOMS    COLORGROUP SYSTEM
2 32 33
@<TRIPOS>COMMENT
> <Gold.Version>
2022.2.0

> <Gold.Id.Protein>
3pbl|protein|mol2

> <Gold.Protein.RotatedTorsions>
[ 1303 1298 1297 1294 ] final -163.94 input  179.99 | X-H torsion
[ 2461 2456 2455 2452 ] final -113.74 input   30.03 | X-H torsion
[ 2515 2510 2509 2506 ] final  -28.78 input  -89.99 | X-H torsion
[ 3721 3712 3711 3710 ] final  117.24 input -179.91 | X-H torsion
[ 3841 3832 3831 3830 ] final -122.15 input -179.91 | X-H torsion
[ 3767 3762 3761 3758 ] final  -31.83 input  -89.99 | X-H torsion
[ 2472 2467 2466 2463 ] final  168.25 input  -89.97 | X-H torsion

> <Gold.Protein.ActiveResidues>
 VAL82   VAL86   LEU89   PHE106  VAL107  ASP110  VAL111  MET112  CYS114  THR115 
 CYS181  SER182  ILE183  PHE188  VAL189  ILE190  SER192  SER193  SER196  TRP342 
 PHE345  PHE346  HIS349  VAL350  TYR365  THR369  GLY372  TYR373 

> <Gold.Protein.RotatedAtoms>
    4.7449   -8.6877    4.5318 H   0  0  0  0  0  0  0  0  0  0  0  0  # atno 1303 bound_to 1298
    0.5116   -9.1294    7.9859 H   0  0  0  0  0  0  0  0  0  0  0  0  # atno 2461 bound_to 2456
   -5.4382   -5.3387    8.8564 H   0  0  0  0  0  0  0  0  0  0  0  0  # atno 2472 bound_to 2467
    2.7146   -8.0045    4.3881 H   0  0  0  0  0  0  0  0  0  0  0  0  # atno 2515 bound_to 2510
   -2.9883  -17.2694   13.0325 H   0  0  0  0  0  0  0  0  0  0  0  0  # atno 3721 bound_to 3712
   -5.5029  -22.3312   10.4414 H   0  0  0  0  0  0  0  0  0  0  0  0  # atno 3767 bound_to 3762
    2.2529  -19.5991    8.4442 H   0  0  0  0  0  0  0  0  0  0  0  0  # atno 3841 bound_to 3832
    4.2293  -10.2191    4.7671 LP  0  0  0  0  0  0  0  0  0  0  0  0  # atno 4297 bound_to 1298
    3.3877   -9.2148    3.7926 LP  0  0  0  0  0  0  0  0  0  0  0  0  # atno 4298 bound_to 1298
    2.0864   -8.7201    8.1267 LP  0  0  0  0  0  0  0  0  0  0  0  0  # atno 4299 bound_to 2456
    1.1395   -7.9588    7.0356 LP  0  0  0  0  0  0  0  0  0  0  0  0  # atno 4300 bound_to 2456
    2.5408   -9.2459    5.4342 LP  0  0  0  0  0  0  0  0  0  0  0  0  # atno 4301 bound_to 2510
    2.0412   -7.7488    5.8533 LP  0  0  0  0  0  0  0  0  0  0  0  0  # atno 4302 bound_to 2510
   -2.6370  -18.1032   14.3589 LP  0  0  0  0  0  0  0  0  0  0  0  0  # atno 4306 bound_to 3712
   -3.4407  -16.6852   14.4579 LP  0  0  0  0  0  0  0  0  0  0  0  0  # atno 4307 bound_to 3712
    3.0495  -20.9362    8.8363 LP  0  0  0  0  0  0  0  0  0  0  0  0  # atno 4314 bound_to 3832
    1.5774  -20.6292    9.4730 LP  0  0  0  0  0  0  0  0  0  0  0  0  # atno 4315 bound_to 3832
   -4.4115  -22.2114   11.6502 LP  0  0  0  0  0  0  0  0  0  0  0  0  # atno 4318 bound_to 3762
   -4.2133  -23.3323   10.4793 LP  0  0  0  0  0  0  0  0  0  0  0  0  # atno 4319 bound_to 3762
   -4.4513   -4.8022    7.6712 LP  0  0  0  0  0  0  0  0  0  0  0  0  # atno 4320 bound_to 2467
   -3.8276   -5.2527    9.1116 LP  0  0  0  0  0  0  0  0  0  0  0  0  # atno 4321 bound_to 2467

> <Gold.Score>
     Score     S(PLP)   S(hbond)     S(cho)   S(metal)  DE(clash)   DE(tors)     intcor
     42.32     -41.61       0.41       0.00       0.00       0.00       0.46       0.39

> <Gold.PLP.Fitness>
42.3203

> <Gold.PLP.PLP>
-41.6070

> <Gold.PLP.part.hbond>
-0.6553

> <Gold.PLP.part.metal>
0.0000

> <Gold.PLP.part.buried>
-0.6874

> <Gold.PLP.part.nonpolar>
-41.9954

> <Gold.PLP.part.repulsive>
0.0798

> <Gold.PLP.ligand.clash>
0.0000

> <Gold.PLP.ligand.torsion>
0.4608

> <Gold.PLP.Chemscore.Hbond>
0.4150

> <Gold.PLP.Chemscore.CHOScore>
0.0000

> <Gold.PLP.Chemscore.Metal>
0.0000

> <Gold.Chemscore.Hbonds>
donor molecule, donor type, donor heavy atom, donor atom, acceptor molecule, acceptor atom, score
      L1  H    13    32       P1  2398  0.41

> <Gold.PLP.Chemscore.Internal.Correction>
0.3900

