#       Name:                EN300-96185_i001
#       Creating user name   aseyller
#       Creation time:       Fri Apr 21 17:00:09 2023


#       File generated by GOLD software.
#

@<TRIPOS>MOLECULE
EN300-96185_i001|Sulfonylchlorides|mol2|135|dock11
    18    18     1
SMALL
USER_CHARGES


@<TRIPOS>ATOM
      1 Cl1         33.3025  36.9945  34.6749 Cl             1 <1>                0.0000
      2 S2          31.7573  37.1786  35.9629 S.o2           1 <1>                0.0000
      3 O3          31.8235  38.5295  36.3987 O.2            1 <1>                0.0000
      4 O4          30.6354  36.6975  35.2355 O.2            1 <1>                0.0000
      5 C5          32.1653  36.0502  37.3234 C.3            1 <1>                0.0000
      6 C6          30.9945  35.9579  38.2678 C.ar           1 <1>                0.0000
      7 C7          30.3300  37.1052  38.6594 C.ar           1 <1>                0.0000
      8 C8          29.2560  37.0207  39.5251 C.ar           1 <1>                0.0000
      9 C9          28.8458  35.7888  40.0004 C.ar           1 <1>                0.0000
     10 C10         29.5094  34.6413  39.6095 C.ar           1 <1>                0.0000
     11 C11         30.5810  34.7249  38.7384 C.ar           1 <1>                0.0000
     12 Br12        31.4894  33.1552  38.2031 Br             1 <1>                0.0000
     13 H13         32.3866  35.0614  36.9215 H              1 <1>                0.0000
     14 H14         33.0358  36.4275  37.8599 H              1 <1>                0.0000
     15 H15         30.6505  38.0678  38.2890 H              1 <1>                0.0000
     16 H16         28.7371  37.9173  39.8309 H              1 <1>                0.0000
     17 H17         28.0069  35.7232  40.6774 H              1 <1>                0.0000
     18 H18         29.1891  33.6792  39.9810 H              1 <1>                0.0000
@<TRIPOS>BOND
    1    1    2 1     
    2    2    3 2     
    3    2    4 2     
    4    2    5 1     
    5    5    6 1     
    6    5   13 1     
    7    5   14 1     
    8    6    7 ar    
    9    6   11 ar    
   10    7    8 ar    
   11    7   15 1     
   12    8    9 ar    
   13    8   16 1     
   14    9   10 ar    
   15    9   17 1     
   16   10   11 ar    
   17   10   18 1     
   18   11   12 1     
@<TRIPOS>SUBSTRUCTURE
      1 ****           1
@<TRIPOS>COMMENT
> <Gold.Version>
2022.2.0

> <Gold.Id.Protein>
1qkm|1qkm_protein|mol2

> <Gold.Protein.RotatedTorsions>
[  496  491  490  487 ] final  100.61 input  -89.99 | X-H torsion

> <Gold.Protein.ActiveResidues>
 MET295  LEU298  THR299  LEU301  ALA302  GLU305  TRP335  MET336  LEU339  MET340 
 GLY342  LEU343  ARG346  PHE356  ILE373  ILE376  PHE377  LEU380  LYS471  GLY472 
 MET473  HIS475  LEU476  LEU477  ASN478  MET479  VAL484  VAL487 

> <Gold.Protein.RotatedAtoms>
   36.9172   32.9667   41.8901 H   0  0  0  0  0  0  0  0  0  0  0  0  # atno 496  bound_to 491 

> <Gold.Score>
     Score     S(PLP)   S(hbond)     S(cho)   S(metal)  DE(clash)   DE(tors)     intcor
     37.23     -37.74       0.00       0.00       0.00       0.00       0.32       0.14

> <Gold.PLP.Fitness>
37.2341

> <Gold.PLP.PLP>
-37.7397

> <Gold.PLP.part.hbond>
0.0000

> <Gold.PLP.part.metal>
0.0000

> <Gold.PLP.part.buried>
-2.2911

> <Gold.PLP.part.nonpolar>
-36.1791

> <Gold.PLP.part.repulsive>
0.0630

> <Gold.PLP.ligand.clash>
0.0000

> <Gold.PLP.ligand.torsion>
0.3205

> <Gold.PLP.Chemscore.Hbond>
0.0000

> <Gold.PLP.Chemscore.CHOScore>
0.0000

> <Gold.PLP.Chemscore.Metal>
0.0000

> <Gold.PLP.Chemscore.Internal.Correction>
0.1353

