#       Name:                EN300-96185_i001
#       Creating user name   aseyller
#       Creation time:       Fri Apr 21 17:00:06 2023


#       File generated by GOLD software.
#

@<TRIPOS>MOLECULE
EN300-96185_i001|Sulfonylchlorides|mol2|135|dock2
    18    18     1
SMALL
USER_CHARGES


@<TRIPOS>ATOM
      1 Cl1         26.6757  37.0127  39.5456 Cl             1 <1>                0.0000
      2 S2          28.6174  36.4688  39.4258 S.o2           1 <1>                0.0000
      3 O3          29.1969  36.9731  40.6212 O.2            1 <1>                0.0000
      4 O4          28.5748  35.0726  39.1645 O.2            1 <1>                0.0000
      5 C5          29.2510  37.3673  37.9830 C.3            1 <1>                0.0000
      6 C6          30.5980  36.8125  37.5973 C.ar           1 <1>                0.0000
      7 C7          31.2291  35.8964  38.4181 C.ar           1 <1>                0.0000
      8 C8          32.4642  35.3871  38.0643 C.ar           1 <1>                0.0000
      9 C9          33.0696  35.7938  36.8896 C.ar           1 <1>                0.0000
     10 C10         32.4395  36.7096  36.0685 C.ar           1 <1>                0.0000
     11 C11         31.2005  37.2154  36.4194 C.ar           1 <1>                0.0000
     12 Br12        30.3378  38.4684  35.2963 Br             1 <1>                0.0000
     13 H13         28.5581  37.2512  37.1495 H              1 <1>                0.0000
     14 H14         29.3503  38.4247  38.2282 H              1 <1>                0.0000
     15 H15         30.7569  35.5788  39.3361 H              1 <1>                0.0000
     16 H16         32.9570  34.6713  38.7058 H              1 <1>                0.0000
     17 H17         34.0351  35.3962  36.6139 H              1 <1>                0.0000
     18 H18         32.9125  37.0275  35.1512 H              1 <1>                0.0000
@<TRIPOS>BOND
    1    1    2 1     
    2    2    3 2     
    3    2    4 2     
    4    2    5 1     
    5    5    6 1     
    6    5   13 1     
    7    5   14 1     
    8    6    7 ar    
    9    6   11 ar    
   10    7    8 ar    
   11    7   15 1     
   12    8    9 ar    
   13    8   16 1     
   14    9   10 ar    
   15    9   17 1     
   16   10   11 ar    
   17   10   18 1     
   18   11   12 1     
@<TRIPOS>SUBSTRUCTURE
      1 ****           1
@<TRIPOS>COMMENT
> <Gold.Version>
2022.2.0

> <Gold.Id.Protein>
1qkm|1qkm_protein|mol2

> <Gold.Protein.RotatedTorsions>
[  496  491  490  487 ] final  111.12 input  -89.99 | X-H torsion

> <Gold.Protein.ActiveResidues>
 MET295  LEU298  THR299  LEU301  ALA302  GLU305  TRP335  MET336  LEU339  MET340 
 GLY342  LEU343  ARG346  PHE356  ILE373  ILE376  PHE377  LEU380  LYS471  GLY472 
 MET473  HIS475  LEU476  LEU477  ASN478  MET479  VAL484  VAL487 

> <Gold.Protein.RotatedAtoms>
   37.0088   32.9413   41.7459 H   0  0  0  0  0  0  0  0  0  0  0  0  # atno 496  bound_to 491 

> <Gold.Score>
     Score     S(PLP)   S(hbond)     S(cho)   S(metal)  DE(clash)   DE(tors)     intcor
     36.93     -37.40       0.00       0.00       0.00       0.00       0.30       0.14

> <Gold.PLP.Fitness>
36.9324

> <Gold.PLP.PLP>
-37.3990

> <Gold.PLP.part.hbond>
0.0000

> <Gold.PLP.part.metal>
0.0000

> <Gold.PLP.part.buried>
-3.0816

> <Gold.PLP.part.nonpolar>
-34.7980

> <Gold.PLP.part.repulsive>
0.1099

> <Gold.PLP.ligand.clash>
0.0000

> <Gold.PLP.ligand.torsion>
0.3011

> <Gold.PLP.Chemscore.Hbond>
0.0000

> <Gold.PLP.Chemscore.CHOScore>
0.0000

> <Gold.PLP.Chemscore.Metal>
0.0000

> <Gold.PLP.Chemscore.Internal.Correction>
0.1356

