#       Name:                EN300-96185_i001
#       Creating user name   aseyller
#       Creation time:       Fri Apr 21 17:00:08 2023


#       File generated by GOLD software.
#

@<TRIPOS>MOLECULE
EN300-96185_i001|Sulfonylchlorides|mol2|135|dock7
    18    18     1
SMALL
USER_CHARGES


@<TRIPOS>ATOM
      1 Cl1         29.2851  36.7984  40.5899 Cl             1 <1>                0.0000
      2 S2          29.6389  36.4931  38.6247 S.o2           1 <1>                0.0000
      3 O3          30.2908  35.2313  38.5779 O.2            1 <1>                0.0000
      4 O4          28.3744  36.6879  38.0065 O.2            1 <1>                0.0000
      5 C5          30.7857  37.8196  38.1599 C.3            1 <1>                0.0000
      6 C6          31.7457  37.3108  37.1156 C.ar           1 <1>                0.0000
      7 C7          32.6088  36.2737  37.4166 C.ar           1 <1>                0.0000
      8 C8          33.4889  35.8067  36.4587 C.ar           1 <1>                0.0000
      9 C9          33.5069  36.3767  35.1991 C.ar           1 <1>                0.0000
     10 C10         32.6445  37.4134  34.8973 C.ar           1 <1>                0.0000
     11 C11         31.7593  37.8775  35.8540 C.ar           1 <1>                0.0000
     12 Br12        30.5789  39.2960  35.4416 Br             1 <1>                0.0000
     13 H13         30.2231  38.6617  37.7568 H              1 <1>                0.0000
     14 H14         31.3431  38.1427  39.0391 H              1 <1>                0.0000
     15 H15         32.5956  35.8286  38.4006 H              1 <1>                0.0000
     16 H16         34.1632  34.9964  36.6943 H              1 <1>                0.0000
     17 H17         34.1953  36.0119  34.4512 H              1 <1>                0.0000
     18 H18         32.6588  37.8588  33.9136 H              1 <1>                0.0000
@<TRIPOS>BOND
    1    1    2 1     
    2    2    3 2     
    3    2    4 2     
    4    2    5 1     
    5    5    6 1     
    6    5   13 1     
    7    5   14 1     
    8    6    7 ar    
    9    6   11 ar    
   10    7    8 ar    
   11    7   15 1     
   12    8    9 ar    
   13    8   16 1     
   14    9   10 ar    
   15    9   17 1     
   16   10   11 ar    
   17   10   18 1     
   18   11   12 1     
@<TRIPOS>SUBSTRUCTURE
      1 ****           1
@<TRIPOS>COMMENT
> <Gold.Version>
2022.2.0

> <Gold.Id.Protein>
1qkm|1qkm_protein|mol2

> <Gold.Protein.RotatedTorsions>
[  496  491  490  487 ] final -106.44 input  -89.99 | X-H torsion

> <Gold.Protein.ActiveResidues>
 MET295  LEU298  THR299  LEU301  ALA302  GLU305  TRP335  MET336  LEU339  MET340 
 GLY342  LEU343  ARG346  PHE356  ILE373  ILE376  PHE377  LEU380  LYS471  GLY472 
 MET473  HIS475  LEU476  LEU477  ASN478  MET479  VAL484  VAL487 

> <Gold.Protein.RotatedAtoms>
   36.9083   34.5136   40.9049 H   0  0  0  0  0  0  0  0  0  0  0  0  # atno 496  bound_to 491 

> <Gold.Score>
     Score     S(PLP)   S(hbond)     S(cho)   S(metal)  DE(clash)   DE(tors)     intcor
     36.22     -37.04       0.00       0.00       0.00       0.00       0.48       0.14

> <Gold.PLP.Fitness>
36.2170

> <Gold.PLP.PLP>
-37.0431

> <Gold.PLP.part.hbond>
0.0000

> <Gold.PLP.part.metal>
0.0000

> <Gold.PLP.part.buried>
-2.8812

> <Gold.PLP.part.nonpolar>
-34.4687

> <Gold.PLP.part.repulsive>
0.0620

> <Gold.PLP.ligand.clash>
0.0000

> <Gold.PLP.ligand.torsion>
0.4807

> <Gold.PLP.Chemscore.Hbond>
0.0000

> <Gold.PLP.Chemscore.CHOScore>
0.0000

> <Gold.PLP.Chemscore.Metal>
0.0000

> <Gold.PLP.Chemscore.Internal.Correction>
0.1353

