#       Name:                EN300-96185_i001
#       Creating user name   aseyller
#       Creation time:       Fri Apr 21 17:00:06 2023


#       File generated by GOLD software.
#

@<TRIPOS>MOLECULE
EN300-96185_i001|Sulfonylchlorides|mol2|135|dock3
    18    18     1
SMALL
USER_CHARGES


@<TRIPOS>ATOM
      1 Cl1         28.0891  35.9366  41.5066 Cl             1 <1>                0.0000
      2 S2          28.4151  36.1279  39.5222 S.o2           1 <1>                0.0000
      3 O3          28.7857  34.8225  39.1007 O.2            1 <1>                0.0000
      4 O4          27.2350  36.7489  39.0314 O.2            1 <1>                0.0000
      5 C5          29.8272  37.2603  39.4027 C.3            1 <1>                0.0000
      6 C6          30.1881  37.4620  37.9534 C.ar           1 <1>                0.0000
      7 C7          29.5188  38.4079  37.1996 C.ar           1 <1>                0.0000
      8 C8          29.8500  38.5933  35.8706 C.ar           1 <1>                0.0000
      9 C9          30.8504  37.8325  35.2942 C.ar           1 <1>                0.0000
     10 C10         31.5199  36.8865  36.0471 C.ar           1 <1>                0.0000
     11 C11         31.1926  36.7046  37.3790 C.ar           1 <1>                0.0000
     12 Br12        32.1084  35.4104  38.4097 Br             1 <1>                0.0000
     13 H13         29.5626  38.2193  39.8481 H              1 <1>                0.0000
     14 H14         30.6793  36.8359  39.9336 H              1 <1>                0.0000
     15 H15         28.7369  39.0021  37.6491 H              1 <1>                0.0000
     16 H16         29.3270  39.3325  35.2819 H              1 <1>                0.0000
     17 H17         31.1083  37.9771  34.2556 H              1 <1>                0.0000
     18 H18         32.3010  36.2921  35.5968 H              1 <1>                0.0000
@<TRIPOS>BOND
    1    1    2 1     
    2    2    3 2     
    3    2    4 2     
    4    2    5 1     
    5    5    6 1     
    6    5   13 1     
    7    5   14 1     
    8    6    7 ar    
    9    6   11 ar    
   10    7    8 ar    
   11    7   15 1     
   12    8    9 ar    
   13    8   16 1     
   14    9   10 ar    
   15    9   17 1     
   16   10   11 ar    
   17   10   18 1     
   18   11   12 1     
@<TRIPOS>SUBSTRUCTURE
      1 ****           1
@<TRIPOS>COMMENT
> <Gold.Version>
2022.2.0

> <Gold.Id.Protein>
1qkm|1qkm_protein|mol2

> <Gold.Protein.RotatedTorsions>
[  496  491  490  487 ] final -114.05 input  -89.99 | X-H torsion

> <Gold.Protein.ActiveResidues>
 MET295  LEU298  THR299  LEU301  ALA302  GLU305  TRP335  MET336  LEU339  MET340 
 GLY342  LEU343  ARG346  PHE356  ILE373  ILE376  PHE377  LEU380  LYS471  GLY472 
 MET473  HIS475  LEU476  LEU477  ASN478  MET479  VAL484  VAL487 

> <Gold.Protein.RotatedAtoms>
   36.9757   34.4293   40.8414 H   0  0  0  0  0  0  0  0  0  0  0  0  # atno 496  bound_to 491 

> <Gold.Score>
     Score     S(PLP)   S(hbond)     S(cho)   S(metal)  DE(clash)   DE(tors)     intcor
     35.60     -36.28       0.00       0.00       0.00       0.00       0.41       0.14

> <Gold.PLP.Fitness>
35.5980

> <Gold.PLP.PLP>
-36.2850

> <Gold.PLP.part.hbond>
0.0000

> <Gold.PLP.part.metal>
0.0000

> <Gold.PLP.part.buried>
-2.7253

> <Gold.PLP.part.nonpolar>
-34.2460

> <Gold.PLP.part.repulsive>
0.0433

> <Gold.PLP.ligand.clash>
0.0000

> <Gold.PLP.ligand.torsion>
0.4112

> <Gold.PLP.Chemscore.Hbond>
0.0000

> <Gold.PLP.Chemscore.CHOScore>
0.0000

> <Gold.PLP.Chemscore.Metal>
0.0000

> <Gold.PLP.Chemscore.Internal.Correction>
0.1353

