#       Name:                EN300-96185_i001
#       Creating user name   aseyller
#       Creation time:       Fri Apr 21 17:00:11 2023


#       File generated by GOLD software.
#

@<TRIPOS>MOLECULE
EN300-96185_i001|Sulfonylchlorides|mol2|135|dock16
    18    18     1
SMALL
USER_CHARGES


@<TRIPOS>ATOM
      1 Cl1         30.1463  37.9072  35.2804 Cl             1 <1>                0.0000
      2 S2          29.9287  37.9946  37.2868 S.o2           1 <1>                0.0000
      3 O3          31.0505  37.2836  37.7922 O.2            1 <1>                0.0000
      4 O4          29.7541  39.3780  37.5605 O.2            1 <1>                0.0000
      5 C5          28.3959  37.0821  37.6160 C.3            1 <1>                0.0000
      6 C6          28.2878  36.7975  39.0920 C.ar           1 <1>                0.0000
      7 C7          29.3986  36.3737  39.7975 C.ar           1 <1>                0.0000
      8 C8          29.2997  36.1131  41.1512 C.ar           1 <1>                0.0000
      9 C9          28.0898  36.2755  41.8004 C.ar           1 <1>                0.0000
     10 C10         26.9789  36.6990  41.0960 C.ar           1 <1>                0.0000
     11 C11         27.0787  36.9656  39.7421 C.ar           1 <1>                0.0000
     12 Br12        25.5590  37.5452  38.7776 Br             1 <1>                0.0000
     13 H13         27.5417  37.6799  37.2978 H              1 <1>                0.0000
     14 H14         28.4069  36.1420  37.0646 H              1 <1>                0.0000
     15 H15         30.3437  36.2460  39.2907 H              1 <1>                0.0000
     16 H16         30.1677  35.7820  41.7021 H              1 <1>                0.0000
     17 H17         28.0128  36.0710  42.8580 H              1 <1>                0.0000
     18 H18         26.0338  36.8256  41.6031 H              1 <1>                0.0000
@<TRIPOS>BOND
    1    1    2 1     
    2    2    3 2     
    3    2    4 2     
    4    2    5 1     
    5    5    6 1     
    6    5   13 1     
    7    5   14 1     
    8    6    7 ar    
    9    6   11 ar    
   10    7    8 ar    
   11    7   15 1     
   12    8    9 ar    
   13    8   16 1     
   14    9   10 ar    
   15    9   17 1     
   16   10   11 ar    
   17   10   18 1     
   18   11   12 1     
@<TRIPOS>SUBSTRUCTURE
      1 ****           1
@<TRIPOS>COMMENT
> <Gold.Version>
2022.2.0

> <Gold.Id.Protein>
1qkm|1qkm_protein|mol2

> <Gold.Protein.RotatedTorsions>
[  496  491  490  487 ] final  -22.60 input  -89.99 | X-H torsion

> <Gold.Protein.ActiveResidues>
 MET295  LEU298  THR299  LEU301  ALA302  GLU305  TRP335  MET336  LEU339  MET340 
 GLY342  LEU343  ARG346  PHE356  ILE373  ILE376  PHE377  LEU380  LYS471  GLY472 
 MET473  HIS475  LEU476  LEU477  ASN478  MET479  VAL484  VAL487 

> <Gold.Protein.RotatedAtoms>
   36.2882   34.4982   42.0019 H   0  0  0  0  0  0  0  0  0  0  0  0  # atno 496  bound_to 491 

> <Gold.Score>
     Score     S(PLP)   S(hbond)     S(cho)   S(metal)  DE(clash)   DE(tors)     intcor
     36.45     -37.25       0.00       0.00       0.00       0.00       0.47       0.14

> <Gold.PLP.Fitness>
36.4538

> <Gold.PLP.PLP>
-37.2517

> <Gold.PLP.part.hbond>
0.0000

> <Gold.PLP.part.metal>
0.0000

> <Gold.PLP.part.buried>
0.7457

> <Gold.PLP.part.nonpolar>
-37.6817

> <Gold.PLP.part.repulsive>
0.0048

> <Gold.PLP.ligand.clash>
0.0000

> <Gold.PLP.ligand.torsion>
0.4666

> <Gold.PLP.Chemscore.Hbond>
0.0000

> <Gold.PLP.Chemscore.CHOScore>
0.0000

> <Gold.PLP.Chemscore.Metal>
0.0000

> <Gold.PLP.Chemscore.Internal.Correction>
0.1353

