#       Name:                EN300-96185_i001
#       Creating user name   aseyller
#       Creation time:       Fri Apr 21 17:00:07 2023


#       File generated by GOLD software.
#

@<TRIPOS>MOLECULE
EN300-96185_i001|Sulfonylchlorides|mol2|135|dock4
    18    18     1
SMALL
USER_CHARGES


@<TRIPOS>ATOM
      1 Cl1         30.0104  40.2943  36.8444 Cl             1 <1>                0.0000
      2 S2          29.2547  38.4431  37.1317 S.o2           1 <1>                0.0000
      3 O3          27.8591  38.6556  37.2935 O.2            1 <1>                0.0000
      4 O4          29.7588  37.6855  36.0402 O.2            1 <1>                0.0000
      5 C5          29.9988  37.8872  38.6899 C.3            1 <1>                0.0000
      6 C6          30.7398  36.5953  38.4599 C.ar           1 <1>                0.0000
      7 C7          31.8863  36.5839  37.6876 C.ar           1 <1>                0.0000
      8 C8          32.5663  35.3992  37.4770 C.ar           1 <1>                0.0000
      9 C9          32.0999  34.2247  38.0382 C.ar           1 <1>                0.0000
     10 C10         30.9538  34.2351  38.8103 C.ar           1 <1>                0.0000
     11 C11         30.2761  35.4218  39.0261 C.ar           1 <1>                0.0000
     12 Br12        28.7079  35.4366  40.0826 Br             1 <1>                0.0000
     13 H13         30.6937  38.6452  39.0515 H              1 <1>                0.0000
     14 H14         29.2152  37.7297  39.4309 H              1 <1>                0.0000
     15 H15         32.2507  37.5009  37.2485 H              1 <1>                0.0000
     16 H16         33.4620  35.3907  36.8736 H              1 <1>                0.0000
     17 H17         32.6311  33.2991  37.8728 H              1 <1>                0.0000
     18 H18         30.5895  33.3177  39.2484 H              1 <1>                0.0000
@<TRIPOS>BOND
    1    1    2 1     
    2    2    3 2     
    3    2    4 2     
    4    2    5 1     
    5    5    6 1     
    6    5   13 1     
    7    5   14 1     
    8    6    7 ar    
    9    6   11 ar    
   10    7    8 ar    
   11    7   15 1     
   12    8    9 ar    
   13    8   16 1     
   14    9   10 ar    
   15    9   17 1     
   16   10   11 ar    
   17   10   18 1     
   18   11   12 1     
@<TRIPOS>SUBSTRUCTURE
      1 ****           1
@<TRIPOS>COMMENT
> <Gold.Version>
2022.2.0

> <Gold.Id.Protein>
1qkm|1qkm_protein|mol2

> <Gold.Protein.RotatedTorsions>
[  496  491  490  487 ] final    9.66 input  -89.99 | X-H torsion

> <Gold.Protein.ActiveResidues>
 MET295  LEU298  THR299  LEU301  ALA302  GLU305  TRP335  MET336  LEU339  MET340 
 GLY342  LEU343  ARG346  PHE356  ILE373  ILE376  PHE377  LEU380  LYS471  GLY472 
 MET473  HIS475  LEU476  LEU477  ASN478  MET479  VAL484  VAL487 

> <Gold.Protein.RotatedAtoms>
   36.2725   34.0714   42.3056 H   0  0  0  0  0  0  0  0  0  0  0  0  # atno 496  bound_to 491 

> <Gold.Score>
     Score     S(PLP)   S(hbond)     S(cho)   S(metal)  DE(clash)   DE(tors)     intcor
     40.22     -40.36       0.00       0.00       0.00       0.00       0.14       0.14

> <Gold.PLP.Fitness>
40.2190

> <Gold.PLP.PLP>
-40.3643

> <Gold.PLP.part.hbond>
0.0000

> <Gold.PLP.part.metal>
0.0000

> <Gold.PLP.part.buried>
-2.3415

> <Gold.PLP.part.nonpolar>
-37.5943

> <Gold.PLP.part.repulsive>
0.0000

> <Gold.PLP.ligand.clash>
0.0000

> <Gold.PLP.ligand.torsion>
0.1403

> <Gold.PLP.Chemscore.Hbond>
0.0000

> <Gold.PLP.Chemscore.CHOScore>
0.0000

> <Gold.PLP.Chemscore.Metal>
0.0000

> <Gold.PLP.Chemscore.Internal.Correction>
0.1353

