#       Name:                EN300-96185_i001
#       Creating user name   aseyller
#       Creation time:       Fri Apr 21 17:00:06 2023


#       File generated by GOLD software.
#

@<TRIPOS>MOLECULE
EN300-96185_i001|Sulfonylchlorides|mol2|135|dock1
    18    18     1
SMALL
USER_CHARGES


@<TRIPOS>ATOM
      1 Cl1         26.2745  36.9096  40.4155 Cl             1 <1>                0.0000
      2 S2          28.1599  36.2469  40.1208 S.o2           1 <1>                0.0000
      3 O3          28.8095  36.4743  41.3639 O.2            1 <1>                0.0000
      4 O4          27.9932  34.9310  39.6110 O.2            1 <1>                0.0000
      5 C5          28.8308  37.3447  38.8419 C.3            1 <1>                0.0000
      6 C6          30.1828  36.8411  38.4064 C.ar           1 <1>                0.0000
      7 C7          30.6718  35.6500  38.9095 C.ar           1 <1>                0.0000
      8 C8          31.9115  35.1879  38.5097 C.ar           1 <1>                0.0000
      9 C9          32.6635  35.9168  37.6070 C.ar           1 <1>                0.0000
     10 C10         32.1754  37.1077  37.1036 C.ar           1 <1>                0.0000
     11 C11         30.9320  37.5678  37.4990 C.ar           1 <1>                0.0000
     12 Br12        30.2636  39.1972  36.8105 Br             1 <1>                0.0000
     13 H13         28.1559  37.3604  37.9860 H              1 <1>                0.0000
     14 H14         28.9308  38.3527  39.2442 H              1 <1>                0.0000
     15 H15         30.0851  35.0806  39.6152 H              1 <1>                0.0000
     16 H16         32.2933  34.2572  38.9030 H              1 <1>                0.0000
     17 H17         33.6324  35.5557  37.2955 H              1 <1>                0.0000
     18 H18         32.7629  37.6772  36.3987 H              1 <1>                0.0000
@<TRIPOS>BOND
    1    1    2 1     
    2    2    3 2     
    3    2    4 2     
    4    2    5 1     
    5    5    6 1     
    6    5   13 1     
    7    5   14 1     
    8    6    7 ar    
    9    6   11 ar    
   10    7    8 ar    
   11    7   15 1     
   12    8    9 ar    
   13    8   16 1     
   14    9   10 ar    
   15    9   17 1     
   16   10   11 ar    
   17   10   18 1     
   18   11   12 1     
@<TRIPOS>SUBSTRUCTURE
      1 ****           1
@<TRIPOS>COMMENT
> <Gold.Version>
2022.2.0

> <Gold.Id.Protein>
1qkm|1qkm_protein|mol2

> <Gold.Protein.RotatedTorsions>
[  496  491  490  487 ] final   99.74 input  -89.99 | X-H torsion

> <Gold.Protein.ActiveResidues>
 MET295  LEU298  THR299  LEU301  ALA302  GLU305  TRP335  MET336  LEU339  MET340 
 GLY342  LEU343  ARG346  PHE356  ILE373  ILE376  PHE377  LEU380  LYS471  GLY472 
 MET473  HIS475  LEU476  LEU477  ASN478  MET479  VAL484  VAL487 

> <Gold.Protein.RotatedAtoms>
   36.9093   32.9701   41.9016 H   0  0  0  0  0  0  0  0  0  0  0  0  # atno 496  bound_to 491 

> <Gold.Score>
     Score     S(PLP)   S(hbond)     S(cho)   S(metal)  DE(clash)   DE(tors)     intcor
     37.88     -38.04       0.00       0.00       0.00       0.00       0.15       0.14

> <Gold.PLP.Fitness>
37.8799

> <Gold.PLP.PLP>
-38.0356

> <Gold.PLP.part.hbond>
0.0000

> <Gold.PLP.part.metal>
0.0000

> <Gold.PLP.part.buried>
-2.8075

> <Gold.PLP.part.nonpolar>
-36.2677

> <Gold.PLP.part.repulsive>
0.1709

> <Gold.PLP.ligand.clash>
0.0000

> <Gold.PLP.ligand.torsion>
0.1456

> <Gold.PLP.Chemscore.Hbond>
0.0000

> <Gold.PLP.Chemscore.CHOScore>
0.0000

> <Gold.PLP.Chemscore.Metal>
0.0000

> <Gold.PLP.Chemscore.Internal.Correction>
0.1356

