#       Name:                EN300-96185_i001
#       Creating user name   aseyller
#       Creation time:       Fri Apr 21 17:00:10 2023


#       File generated by GOLD software.
#

@<TRIPOS>MOLECULE
EN300-96185_i001|Sulfonylchlorides|mol2|135|dock13
    18    18     1
SMALL
USER_CHARGES


@<TRIPOS>ATOM
      1 Cl1         32.9957  37.0248  35.1650 Cl             1 <1>                0.0000
      2 S2          31.1789  37.7427  35.6794 S.o2           1 <1>                0.0000
      3 O3          31.1997  39.0946  35.2420 O.2            1 <1>                0.0000
      4 O4          30.2630  36.8077  35.1261 O.2            1 <1>                0.0000
      5 C5          31.1561  37.6603  37.4914 C.3            1 <1>                0.0000
      6 C6          29.8033  37.1856  37.9557 C.ar           1 <1>                0.0000
      7 C7          29.6988  36.0434  38.7275 C.ar           1 <1>                0.0000
      8 C8          28.4582  35.6083  39.1537 C.ar           1 <1>                0.0000
      9 C9          27.3209  36.3146  38.8081 C.ar           1 <1>                0.0000
     10 C10         27.4244  37.4564  38.0365 C.ar           1 <1>                0.0000
     11 C11         28.6666  37.8957  37.6144 C.ar           1 <1>                0.0000
     12 Br12        28.8088  39.4580  36.5587 Br             1 <1>                0.0000
     13 H13         31.9223  36.9643  37.8331 H              1 <1>                0.0000
     14 H14         31.3548  38.6499  37.9028 H              1 <1>                0.0000
     15 H15         30.5868  35.4909  38.9972 H              1 <1>                0.0000
     16 H16         28.3769  34.7159  39.7568 H              1 <1>                0.0000
     17 H17         26.3517  35.9738  39.1407 H              1 <1>                0.0000
     18 H18         26.5360  38.0080  37.7663 H              1 <1>                0.0000
@<TRIPOS>BOND
    1    1    2 1     
    2    2    3 2     
    3    2    4 2     
    4    2    5 1     
    5    5    6 1     
    6    5   13 1     
    7    5   14 1     
    8    6    7 ar    
    9    6   11 ar    
   10    7    8 ar    
   11    7   15 1     
   12    8    9 ar    
   13    8   16 1     
   14    9   10 ar    
   15    9   17 1     
   16   10   11 ar    
   17   10   18 1     
   18   11   12 1     
@<TRIPOS>SUBSTRUCTURE
      1 ****           1
@<TRIPOS>COMMENT
> <Gold.Version>
2022.2.0

> <Gold.Id.Protein>
1qkm|1qkm_protein|mol2

> <Gold.Protein.RotatedTorsions>
[  496  491  490  487 ] final -124.91 input  -89.99 | X-H torsion

> <Gold.Protein.ActiveResidues>
 MET295  LEU298  THR299  LEU301  ALA302  GLU305  TRP335  MET336  LEU339  MET340 
 GLY342  LEU343  ARG346  PHE356  ILE373  ILE376  PHE377  LEU380  LYS471  GLY472 
 MET473  HIS475  LEU476  LEU477  ASN478  MET479  VAL484  VAL487 

> <Gold.Protein.RotatedAtoms>
   37.0658   34.2914   40.7726 H   0  0  0  0  0  0  0  0  0  0  0  0  # atno 496  bound_to 491 

> <Gold.Score>
     Score     S(PLP)   S(hbond)     S(cho)   S(metal)  DE(clash)   DE(tors)     intcor
     36.14     -36.75       0.00       0.00       0.00       0.00       0.37       0.14

> <Gold.PLP.Fitness>
36.1370

> <Gold.PLP.PLP>
-36.7477

> <Gold.PLP.part.hbond>
0.0000

> <Gold.PLP.part.metal>
0.0000

> <Gold.PLP.part.buried>
-2.0941

> <Gold.PLP.part.nonpolar>
-34.9746

> <Gold.PLP.part.repulsive>
0.0581

> <Gold.PLP.ligand.clash>
0.0000

> <Gold.PLP.ligand.torsion>
0.3730

> <Gold.PLP.Chemscore.Hbond>
0.0000

> <Gold.PLP.Chemscore.CHOScore>
0.0000

> <Gold.PLP.Chemscore.Metal>
0.0000

> <Gold.PLP.Chemscore.Internal.Correction>
0.1353

