#       Name:                EN300-96185_i001
#       Creating user name   aseyller
#       Creation time:       Fri Apr 21 17:00:08 2023


#       File generated by GOLD software.
#

@<TRIPOS>MOLECULE
EN300-96185_i001|Sulfonylchlorides|mol2|135|dock8
    18    18     1
SMALL
USER_CHARGES


@<TRIPOS>ATOM
      1 Cl1         29.7680  40.2931  36.7251 Cl             1 <1>                0.0000
      2 S2          30.1299  38.3788  36.1911 S.o2           1 <1>                0.0000
      3 O3          29.0519  37.6471  36.7581 O.2            1 <1>                0.0000
      4 O4          30.3159  38.4368  34.7835 O.2            1 <1>                0.0000
      5 C5          31.6879  37.9638  37.0224 C.3            1 <1>                0.0000
      6 C6          31.6085  36.5609  37.5669 C.ar           1 <1>                0.0000
      7 C7          30.6721  36.2466  38.5340 C.ar           1 <1>                0.0000
      8 C8          30.5989  34.9598  39.0331 C.ar           1 <1>                0.0000
      9 C9          31.4626  33.9863  38.5659 C.ar           1 <1>                0.0000
     10 C10         32.3991  34.2997  37.5991 C.ar           1 <1>                0.0000
     11 C11         32.4689  35.5862  37.0951 C.ar           1 <1>                0.0000
     12 Br12        33.7500  36.0155  35.7722 Br             1 <1>                0.0000
     13 H13         32.5094  38.0308  36.3091 H              1 <1>                0.0000
     14 H14         31.8600  38.6622  37.8414 H              1 <1>                0.0000
     15 H15         29.9977  37.0067  38.8999 H              1 <1>                0.0000
     16 H16         29.8671  34.7145  39.7887 H              1 <1>                0.0000
     17 H17         31.4055  32.9812  38.9567 H              1 <1>                0.0000
     18 H18         33.0738  33.5394  37.2344 H              1 <1>                0.0000
@<TRIPOS>BOND
    1    1    2 1     
    2    2    3 2     
    3    2    4 2     
    4    2    5 1     
    5    5    6 1     
    6    5   13 1     
    7    5   14 1     
    8    6    7 ar    
    9    6   11 ar    
   10    7    8 ar    
   11    7   15 1     
   12    8    9 ar    
   13    8   16 1     
   14    9   10 ar    
   15    9   17 1     
   16   10   11 ar    
   17   10   18 1     
   18   11   12 1     
@<TRIPOS>SUBSTRUCTURE
      1 ****           1
@<TRIPOS>COMMENT
> <Gold.Version>
2022.2.0

> <Gold.Id.Protein>
1qkm|1qkm_protein|mol2

> <Gold.Protein.RotatedTorsions>
[  496  491  490  487 ] final -149.61 input  -89.99 | X-H torsion

> <Gold.Protein.ActiveResidues>
 MET295  LEU298  THR299  LEU301  ALA302  GLU305  TRP335  MET336  LEU339  MET340 
 GLY342  LEU343  ARG346  PHE356  ILE373  ILE376  PHE377  LEU380  LYS471  GLY472 
 MET473  HIS475  LEU476  LEU477  ASN478  MET479  VAL484  VAL487 

> <Gold.Protein.RotatedAtoms>
   37.2292   33.9260   40.7224 H   0  0  0  0  0  0  0  0  0  0  0  0  # atno 496  bound_to 491 

> <Gold.Score>
     Score     S(PLP)   S(hbond)     S(cho)   S(metal)  DE(clash)   DE(tors)     intcor
     37.86     -38.49       0.00       0.00       0.00       0.00       0.39       0.14

> <Gold.PLP.Fitness>
37.8565

> <Gold.PLP.PLP>
-38.4919

> <Gold.PLP.part.hbond>
0.0000

> <Gold.PLP.part.metal>
0.0000

> <Gold.PLP.part.buried>
-2.5348

> <Gold.PLP.part.nonpolar>
-36.1618

> <Gold.PLP.part.repulsive>
0.0198

> <Gold.PLP.ligand.clash>
0.0000

> <Gold.PLP.ligand.torsion>
0.3854

> <Gold.PLP.Chemscore.Hbond>
0.0000

> <Gold.PLP.Chemscore.CHOScore>
0.0000

> <Gold.PLP.Chemscore.Metal>
0.0000

> <Gold.PLP.Chemscore.Internal.Correction>
0.1353

