#       Name:                EN300-96185_i001
#       Creating user name   aseyller
#       Creation time:       Fri Apr 21 17:00:10 2023


#       File generated by GOLD software.
#

@<TRIPOS>MOLECULE
EN300-96185_i001|Sulfonylchlorides|mol2|135|dock14
    18    18     1
SMALL
USER_CHARGES


@<TRIPOS>ATOM
      1 Cl1         32.1971  37.2898  37.2988 Cl             1 <1>                0.0000
      2 S2          30.2037  37.4483  37.5849 S.o2           1 <1>                0.0000
      3 O3          30.0001  38.8237  37.8782 O.2            1 <1>                0.0000
      4 O4          29.6349  36.8543  36.4261 O.2            1 <1>                0.0000
      5 C5          29.8742  36.4297  39.0493 C.3            1 <1>                0.0000
      6 C6          28.4214  36.5529  39.4305 C.ar           1 <1>                0.0000
      7 C7          27.4468  36.5494  38.4501 C.ar           1 <1>                0.0000
      8 C8          26.1143  36.6619  38.7996 C.ar           1 <1>                0.0000
      9 C9          25.7554  36.7787  40.1297 C.ar           1 <1>                0.0000
     10 C10         26.7291  36.7824  41.1104 C.ar           1 <1>                0.0000
     11 C11         28.0626  36.6640  40.7615 C.ar           1 <1>                0.0000
     12 Br12        29.3953  36.6689  42.1030 Br             1 <1>                0.0000
     13 H13         30.1042  35.3877  38.8264 H              1 <1>                0.0000
     14 H14         30.4970  36.7702  39.8765 H              1 <1>                0.0000
     15 H15         27.7266  36.4589  37.4109 H              1 <1>                0.0000
     16 H16         25.3531  36.6591  38.0333 H              1 <1>                0.0000
     17 H17         24.7142  36.8674  40.4023 H              1 <1>                0.0000
     18 H18         26.4487  36.8739  42.1494 H              1 <1>                0.0000
@<TRIPOS>BOND
    1    1    2 1     
    2    2    3 2     
    3    2    4 2     
    4    2    5 1     
    5    5    6 1     
    6    5   13 1     
    7    5   14 1     
    8    6    7 ar    
    9    6   11 ar    
   10    7    8 ar    
   11    7   15 1     
   12    8    9 ar    
   13    8   16 1     
   14    9   10 ar    
   15    9   17 1     
   16   10   11 ar    
   17   10   18 1     
   18   11   12 1     
@<TRIPOS>SUBSTRUCTURE
      1 ****           1
@<TRIPOS>COMMENT
> <Gold.Version>
2022.2.0

> <Gold.Id.Protein>
1qkm|1qkm_protein|mol2

> <Gold.Protein.RotatedTorsions>
[  496  491  490  487 ] final  162.49 input  -89.99 | X-H torsion

> <Gold.Protein.ActiveResidues>
 MET295  LEU298  THR299  LEU301  ALA302  GLU305  TRP335  MET336  LEU339  MET340 
 GLY342  LEU343  ARG346  PHE356  ILE373  ILE376  PHE377  LEU380  LYS471  GLY472 
 MET473  HIS475  LEU476  LEU477  ASN478  MET479  VAL484  VAL487 

> <Gold.Protein.RotatedAtoms>
   37.3028   33.2337   41.0413 H   0  0  0  0  0  0  0  0  0  0  0  0  # atno 496  bound_to 491 

> <Gold.Score>
     Score     S(PLP)   S(hbond)     S(cho)   S(metal)  DE(clash)   DE(tors)     intcor
     38.59     -39.14       0.00       0.00       0.00       0.00       0.34       0.14

> <Gold.PLP.Fitness>
38.5915

> <Gold.PLP.PLP>
-39.1411

> <Gold.PLP.part.hbond>
0.0000

> <Gold.PLP.part.metal>
0.0000

> <Gold.PLP.part.buried>
0.7430

> <Gold.PLP.part.nonpolar>
-40.0909

> <Gold.PLP.part.repulsive>
0.0000

> <Gold.PLP.ligand.clash>
0.0000

> <Gold.PLP.ligand.torsion>
0.3425

> <Gold.PLP.Chemscore.Hbond>
0.0000

> <Gold.PLP.Chemscore.CHOScore>
0.0000

> <Gold.PLP.Chemscore.Metal>
0.0000

> <Gold.PLP.Chemscore.Internal.Correction>
0.1353

