#       Name:                EN300-96185_i001
#       Creating user name   aseyller
#       Creation time:       Fri Apr 21 17:00:10 2023


#       File generated by GOLD software.
#

@<TRIPOS>MOLECULE
EN300-96185_i001|Sulfonylchlorides|mol2|135|dock15
    18    18     1
SMALL
USER_CHARGES


@<TRIPOS>ATOM
      1 Cl1         27.4638  38.8047  37.2984 Cl             1 <1>                0.0000
      2 S2          29.4731  38.6096  37.2267 S.o2           1 <1>                0.0000
      3 O3          29.7026  37.7537  36.1159 O.2            1 <1>                0.0000
      4 O4          29.9555  39.9462  37.2339 O.2            1 <1>                0.0000
      5 C5          29.9018  37.7699  38.7765 C.3            1 <1>                0.0000
      6 C6          30.6762  36.5139  38.4697 C.ar           1 <1>                0.0000
      7 C7          31.9130  36.5965  37.8575 C.ar           1 <1>                0.0000
      8 C8          32.6235  35.4448  37.5766 C.ar           1 <1>                0.0000
      9 C9          32.0976  34.2095  37.9071 C.ar           1 <1>                0.0000
     10 C10         30.8613  34.1260  38.5191 C.ar           1 <1>                0.0000
     11 C11         30.1523  35.2789  38.8057 C.ar           1 <1>                0.0000
     12 Br12        28.4606  35.1653  39.6431 Br             1 <1>                0.0000
     13 H13         30.5117  38.4316  39.3917 H              1 <1>                0.0000
     14 H14         28.9897  37.5119  39.3145 H              1 <1>                0.0000
     15 H15         32.3239  37.5611  37.5985 H              1 <1>                0.0000
     16 H16         33.5897  35.5096  37.0983 H              1 <1>                0.0000
     17 H17         32.6528  33.3098  37.6867 H              1 <1>                0.0000
     18 H18         30.4505  33.1611  38.7770 H              1 <1>                0.0000
@<TRIPOS>BOND
    1    1    2 1     
    2    2    3 2     
    3    2    4 2     
    4    2    5 1     
    5    5    6 1     
    6    5   13 1     
    7    5   14 1     
    8    6    7 ar    
    9    6   11 ar    
   10    7    8 ar    
   11    7   15 1     
   12    8    9 ar    
   13    8   16 1     
   14    9   10 ar    
   15    9   17 1     
   16   10   11 ar    
   17   10   18 1     
   18   11   12 1     
@<TRIPOS>SUBSTRUCTURE
      1 ****           1
@<TRIPOS>COMMENT
> <Gold.Version>
2022.2.0

> <Gold.Id.Protein>
1qkm|1qkm_protein|mol2

> <Gold.Protein.RotatedTorsions>
[  496  491  490  487 ] final -166.99 input  -89.99 | X-H torsion

> <Gold.Protein.ActiveResidues>
 MET295  LEU298  THR299  LEU301  ALA302  GLU305  TRP335  MET336  LEU339  MET340 
 GLY342  LEU343  ARG346  PHE356  ILE373  ILE376  PHE377  LEU380  LYS471  GLY472 
 MET473  HIS475  LEU476  LEU477  ASN478  MET479  VAL484  VAL487 

> <Gold.Protein.RotatedAtoms>
   37.2972   33.6550   40.7786 H   0  0  0  0  0  0  0  0  0  0  0  0  # atno 496  bound_to 491 

> <Gold.Score>
     Score     S(PLP)   S(hbond)     S(cho)   S(metal)  DE(clash)   DE(tors)     intcor
     39.94     -40.02       0.00       0.00       0.00       0.00       0.10       0.14

> <Gold.PLP.Fitness>
39.9437

> <Gold.PLP.PLP>
-40.0154

> <Gold.PLP.part.hbond>
0.0000

> <Gold.PLP.part.metal>
0.0000

> <Gold.PLP.part.buried>
-2.8109

> <Gold.PLP.part.nonpolar>
-36.7459

> <Gold.PLP.part.repulsive>
0.0000

> <Gold.PLP.ligand.clash>
0.0000

> <Gold.PLP.ligand.torsion>
0.1035

> <Gold.PLP.Chemscore.Hbond>
0.0000

> <Gold.PLP.Chemscore.CHOScore>
0.0000

> <Gold.PLP.Chemscore.Metal>
0.0000

> <Gold.PLP.Chemscore.Internal.Correction>
0.1353

