#       Name:                EN300-96185_i001
#       Creating user name   aseyller
#       Creation time:       Fri Apr 21 17:00:07 2023


#       File generated by GOLD software.
#

@<TRIPOS>MOLECULE
EN300-96185_i001|Sulfonylchlorides|mol2|135|dock5
    18    18     1
SMALL
USER_CHARGES


@<TRIPOS>ATOM
      1 Cl1         30.1198  37.4701  35.8221 Cl             1 <1>                0.0000
      2 S2          29.0492  38.1411  37.3982 S.o2           1 <1>                0.0000
      3 O3          29.9181  37.9715  38.5097 O.2            1 <1>                0.0000
      4 O4          28.6121  39.4334  37.0003 O.2            1 <1>                0.0000
      5 C5          27.6434  37.0000  37.5092 C.3            1 <1>                0.0000
      6 C6          27.1759  36.9166  38.9395 C.ar           1 <1>                0.0000
      7 C7          25.9352  37.4146  39.2913 C.ar           1 <1>                0.0000
      8 C8          25.5061  37.3377  40.6029 C.ar           1 <1>                0.0000
      9 C9          26.3176  36.7633  41.5638 C.ar           1 <1>                0.0000
     10 C10         27.5580  36.2653  41.2129 C.ar           1 <1>                0.0000
     11 C11         27.9856  36.3368  39.8991 C.ar           1 <1>                0.0000
     12 Br12        29.6828  35.6555  39.4184 Br             1 <1>                0.0000
     13 H13         26.8298  37.3636  36.8816 H              1 <1>                0.0000
     14 H14         27.9504  36.0110  37.1691 H              1 <1>                0.0000
     15 H15         25.3012  37.8640  38.5413 H              1 <1>                0.0000
     16 H16         24.5367  37.7268  40.8775 H              1 <1>                0.0000
     17 H17         25.9822  36.7041  42.5886 H              1 <1>                0.0000
     18 H18         28.1919  35.8169  41.9635 H              1 <1>                0.0000
@<TRIPOS>BOND
    1    1    2 1     
    2    2    3 2     
    3    2    4 2     
    4    2    5 1     
    5    5    6 1     
    6    5   13 1     
    7    5   14 1     
    8    6    7 ar    
    9    6   11 ar    
   10    7    8 ar    
   11    7   15 1     
   12    8    9 ar    
   13    8   16 1     
   14    9   10 ar    
   15    9   17 1     
   16   10   11 ar    
   17   10   18 1     
   18   11   12 1     
@<TRIPOS>SUBSTRUCTURE
      1 ****           1
@<TRIPOS>COMMENT
> <Gold.Version>
2022.2.0

> <Gold.Id.Protein>
1qkm|1qkm_protein|mol2

> <Gold.Protein.RotatedTorsions>
[  496  491  490  487 ] final  -17.02 input  -89.99 | X-H torsion

> <Gold.Protein.ActiveResidues>
 MET295  LEU298  THR299  LEU301  ALA302  GLU305  TRP335  MET336  LEU339  MET340 
 GLY342  LEU343  ARG346  PHE356  ILE373  ILE376  PHE377  LEU380  LYS471  GLY472 
 MET473  HIS475  LEU476  LEU477  ASN478  MET479  VAL484  VAL487 

> <Gold.Protein.RotatedAtoms>
   36.2737   34.4360   42.0677 H   0  0  0  0  0  0  0  0  0  0  0  0  # atno 496  bound_to 491 

> <Gold.Score>
     Score     S(PLP)   S(hbond)     S(cho)   S(metal)  DE(clash)   DE(tors)     intcor
     40.08     -41.06       0.00       0.00       0.00       0.04       0.54       0.14

> <Gold.PLP.Fitness>
40.0791

> <Gold.PLP.PLP>
-41.0642

> <Gold.PLP.part.hbond>
0.0000

> <Gold.PLP.part.metal>
0.0000

> <Gold.PLP.part.buried>
-2.2112

> <Gold.PLP.part.nonpolar>
-39.8530

> <Gold.PLP.part.repulsive>
0.0000

> <Gold.PLP.ligand.clash>
0.0374

> <Gold.PLP.ligand.torsion>
0.5415

> <Gold.PLP.Chemscore.Hbond>
0.0000

> <Gold.PLP.Chemscore.CHOScore>
0.0000

> <Gold.PLP.Chemscore.Metal>
0.0000

> <Gold.PLP.Chemscore.Internal.Correction>
0.1353

