#       Name:                EN300-96185_i001
#       Creating user name   aseyller
#       Creation time:       Fri Apr 21 17:00:11 2023


#       File generated by GOLD software.
#

@<TRIPOS>MOLECULE
EN300-96185_i001|Sulfonylchlorides|mol2|135|dock17
    18    18     1
SMALL
USER_CHARGES


@<TRIPOS>ATOM
      1 Cl1         25.9005  37.3014  40.1194 Cl             1 <1>                0.0000
      2 S2          27.3461  36.7541  38.8189 S.o2           1 <1>                0.0000
      3 O3          27.0016  35.4255  38.4510 O.2            1 <1>                0.0000
      4 O4          27.3656  37.7992  37.8563 O.2            1 <1>                0.0000
      5 C5          28.8694  36.7672  39.8037 C.3            1 <1>                0.0000
      6 C6          30.0233  36.3075  38.9502 C.ar           1 <1>                0.0000
      7 C7          30.6117  35.0791  39.1866 C.ar           1 <1>                0.0000
      8 C8          31.6696  34.6572  38.4037 C.ar           1 <1>                0.0000
      9 C9          32.1404  35.4637  37.3840 C.ar           1 <1>                0.0000
     10 C10         31.5529  36.6919  37.1470 C.ar           1 <1>                0.0000
     11 C11         30.4901  37.1121  37.9267 C.ar           1 <1>                0.0000
     12 Br12        29.6858  38.7925  37.6029 Br             1 <1>                0.0000
     13 H13         29.0623  37.7788  40.1612 H              1 <1>                0.0000
     14 H14         28.7575  36.0962  40.6552 H              1 <1>                0.0000
     15 H15         30.2448  34.4491  39.9834 H              1 <1>                0.0000
     16 H16         32.1291  33.6974  38.5886 H              1 <1>                0.0000
     17 H17         32.9675  35.1339  36.7729 H              1 <1>                0.0000
     18 H18         31.9208  37.3218  36.3507 H              1 <1>                0.0000
@<TRIPOS>BOND
    1    1    2 1     
    2    2    3 2     
    3    2    4 2     
    4    2    5 1     
    5    5    6 1     
    6    5   13 1     
    7    5   14 1     
    8    6    7 ar    
    9    6   11 ar    
   10    7    8 ar    
   11    7   15 1     
   12    8    9 ar    
   13    8   16 1     
   14    9   10 ar    
   15    9   17 1     
   16   10   11 ar    
   17   10   18 1     
   18   11   12 1     
@<TRIPOS>SUBSTRUCTURE
      1 ****           1
@<TRIPOS>COMMENT
> <Gold.Version>
2022.2.0

> <Gold.Id.Protein>
1qkm|1qkm_protein|mol2

> <Gold.Protein.RotatedTorsions>
[  496  491  490  487 ] final  -41.54 input  -89.99 | X-H torsion

> <Gold.Protein.ActiveResidues>
 MET295  LEU298  THR299  LEU301  ALA302  GLU305  TRP335  MET336  LEU339  MET340 
 GLY342  LEU343  ARG346  PHE356  ILE373  ILE376  PHE377  LEU380  LYS471  GLY472 
 MET473  HIS475  LEU476  LEU477  ASN478  MET479  VAL484  VAL487 

> <Gold.Protein.RotatedAtoms>
   36.3719   34.6600   41.7506 H   0  0  0  0  0  0  0  0  0  0  0  0  # atno 496  bound_to 491 

> <Gold.Score>
     Score     S(PLP)   S(hbond)     S(cho)   S(metal)  DE(clash)   DE(tors)     intcor
     38.38     -38.59       0.00       0.00       0.00       0.00       0.17       0.14

> <Gold.PLP.Fitness>
38.3814

> <Gold.PLP.PLP>
-38.5866

> <Gold.PLP.part.hbond>
0.0000

> <Gold.PLP.part.metal>
0.0000

> <Gold.PLP.part.buried>
-0.9439

> <Gold.PLP.part.nonpolar>
-38.2127

> <Gold.PLP.part.repulsive>
0.0428

> <Gold.PLP.ligand.clash>
0.0000

> <Gold.PLP.ligand.torsion>
0.1703

> <Gold.PLP.Chemscore.Hbond>
0.0000

> <Gold.PLP.Chemscore.CHOScore>
0.0000

> <Gold.PLP.Chemscore.Metal>
0.0000

> <Gold.PLP.Chemscore.Internal.Correction>
0.1353

