#       Name:                EN300-96185_i001
#       Creating user name   aseyller
#       Creation time:       Fri Apr 21 17:00:10 2023


#       File generated by GOLD software.
#

@<TRIPOS>MOLECULE
EN300-96185_i001|Sulfonylchlorides|mol2|135|dock12
    18    18     1
SMALL
USER_CHARGES


@<TRIPOS>ATOM
      1 Cl1         30.1880  40.2934  36.6675 Cl             1 <1>                0.0000
      2 S2          30.8329  38.3870  36.4940 S.o2           1 <1>                0.0000
      3 O3          30.0460  37.8453  35.4421 O.2            1 <1>                0.0000
      4 O4          32.2435  38.5041  36.3682 O.2            1 <1>                0.0000
      5 C5          30.3969  37.6159  38.0770 C.3            1 <1>                0.0000
      6 C6          30.9719  36.2240  38.1330 C.ar           1 <1>                0.0000
      7 C7          31.9857  35.8594  37.2668 C.ar           1 <1>                0.0000
      8 C8          32.5135  34.5831  37.3184 C.ar           1 <1>                0.0000
      9 C9          32.0275  33.6701  38.2360 C.ar           1 <1>                0.0000
     10 C10         31.0140  34.0336  39.1023 C.ar           1 <1>                0.0000
     11 C11         30.4893  35.3129  39.0549 C.ar           1 <1>                0.0000
     12 Br12        29.1026  35.8109  40.2401 Br             1 <1>                0.0000
     13 H13         30.8039  38.2103  38.8951 H              1 <1>                0.0000
     14 H14         29.3121  37.5648  38.1698 H              1 <1>                0.0000
     15 H15         32.3652  36.5720  36.5494 H              1 <1>                0.0000
     16 H16         33.3056  34.2986  36.6415 H              1 <1>                0.0000
     17 H17         32.4397  32.6727  38.2755 H              1 <1>                0.0000
     18 H18         30.6343  33.3203  39.8188 H              1 <1>                0.0000
@<TRIPOS>BOND
    1    1    2 1     
    2    2    3 2     
    3    2    4 2     
    4    2    5 1     
    5    5    6 1     
    6    5   13 1     
    7    5   14 1     
    8    6    7 ar    
    9    6   11 ar    
   10    7    8 ar    
   11    7   15 1     
   12    8    9 ar    
   13    8   16 1     
   14    9   10 ar    
   15    9   17 1     
   16   10   11 ar    
   17   10   18 1     
   18   11   12 1     
@<TRIPOS>SUBSTRUCTURE
      1 ****           1
@<TRIPOS>COMMENT
> <Gold.Version>
2022.2.0

> <Gold.Id.Protein>
1qkm|1qkm_protein|mol2

> <Gold.Protein.RotatedTorsions>
[  496  491  490  487 ] final  138.09 input  -89.99 | X-H torsion

> <Gold.Protein.ActiveResidues>
 MET295  LEU298  THR299  LEU301  ALA302  GLU305  TRP335  MET336  LEU339  MET340 
 GLY342  LEU343  ARG346  PHE356  ILE373  ILE376  PHE377  LEU380  LYS471  GLY472 
 MET473  HIS475  LEU476  LEU477  ASN478  MET479  VAL484  VAL487 

> <Gold.Protein.RotatedAtoms>
   37.2035   33.0130   41.3580 H   0  0  0  0  0  0  0  0  0  0  0  0  # atno 496  bound_to 491 

> <Gold.Score>
     Score     S(PLP)   S(hbond)     S(cho)   S(metal)  DE(clash)   DE(tors)     intcor
     38.82     -39.40       0.00       0.00       0.00       0.00       0.36       0.14

> <Gold.PLP.Fitness>
38.8217

> <Gold.PLP.PLP>
-39.3978

> <Gold.PLP.part.hbond>
0.0000

> <Gold.PLP.part.metal>
0.0000

> <Gold.PLP.part.buried>
-1.7118

> <Gold.PLP.part.nonpolar>
-37.5964

> <Gold.PLP.part.repulsive>
0.0176

> <Gold.PLP.ligand.clash>
0.0000

> <Gold.PLP.ligand.torsion>
0.3557

> <Gold.PLP.Chemscore.Hbond>
0.0000

> <Gold.PLP.Chemscore.CHOScore>
0.0000

> <Gold.PLP.Chemscore.Metal>
0.0000

> <Gold.PLP.Chemscore.Internal.Correction>
0.1353

