#       Name:                EN300-96185_i001
#       Creating user name   aseyller
#       Creation time:       Fri Apr 21 17:00:12 2023


#       File generated by GOLD software.
#

@<TRIPOS>MOLECULE
EN300-96185_i001|Sulfonylchlorides|mol2|135|dock19
    18    18     1
SMALL
USER_CHARGES


@<TRIPOS>ATOM
      1 Cl1         32.7544  36.8718  35.1027 Cl             1 <1>                0.0000
      2 S2          31.0653  37.7306  35.8027 S.o2           1 <1>                0.0000
      3 O3          31.1995  39.1019  35.4552 O.2            1 <1>                0.0000
      4 O4          30.0182  36.9367  35.2617 O.2            1 <1>                0.0000
      5 C5          31.1613  37.5175  37.6016 C.3            1 <1>                0.0000
      6 C6          29.8796  36.9043  38.1039 C.ar           1 <1>                0.0000
      7 C7          28.6925  37.6061  38.0059 C.ar           1 <1>                0.0000
      8 C8          27.5169  37.0436  38.4661 C.ar           1 <1>                0.0000
      9 C9          27.5274  35.7790  39.0252 C.ar           1 <1>                0.0000
     10 C10         28.7136  35.0768  39.1237 C.ar           1 <1>                0.0000
     11 C11         29.8897  35.6371  38.6579 C.ar           1 <1>                0.0000
     12 Br12        31.5131  34.6767  38.7923 Br             1 <1>                0.0000
     13 H13         31.9976  36.8624  37.8459 H              1 <1>                0.0000
     14 H14         31.3097  38.4880  38.0752 H              1 <1>                0.0000
     15 H15         28.6839  38.5941  37.5698 H              1 <1>                0.0000
     16 H16         26.5897  37.5921  38.3893 H              1 <1>                0.0000
     17 H17         26.6088  35.3402  39.3853 H              1 <1>                0.0000
     18 H18         28.7218  34.0892  39.5607 H              1 <1>                0.0000
@<TRIPOS>BOND
    1    1    2 1     
    2    2    3 2     
    3    2    4 2     
    4    2    5 1     
    5    5    6 1     
    6    5   13 1     
    7    5   14 1     
    8    6    7 ar    
    9    6   11 ar    
   10    7    8 ar    
   11    7   15 1     
   12    8    9 ar    
   13    8   16 1     
   14    9   10 ar    
   15    9   17 1     
   16   10   11 ar    
   17   10   18 1     
   18   11   12 1     
@<TRIPOS>SUBSTRUCTURE
      1 ****           1
@<TRIPOS>COMMENT
> <Gold.Version>
2022.2.0

> <Gold.Id.Protein>
1qkm|1qkm_protein|mol2

> <Gold.Protein.RotatedTorsions>
[  496  491  490  487 ] final -121.77 input  -89.99 | X-H torsion

> <Gold.Protein.ActiveResidues>
 MET295  LEU298  THR299  LEU301  ALA302  GLU305  TRP335  MET336  LEU339  MET340 
 GLY342  LEU343  ARG346  PHE356  ILE373  ILE376  PHE377  LEU380  LYS471  GLY472 
 MET473  HIS475  LEU476  LEU477  ASN478  MET479  VAL484  VAL487 

> <Gold.Protein.RotatedAtoms>
   37.0406   34.3331   40.7897 H   0  0  0  0  0  0  0  0  0  0  0  0  # atno 496  bound_to 491 

> <Gold.Score>
     Score     S(PLP)   S(hbond)     S(cho)   S(metal)  DE(clash)   DE(tors)     intcor
     36.22     -36.44       0.00       0.00       0.00       0.00       0.18       0.14

> <Gold.PLP.Fitness>
36.2185

> <Gold.PLP.PLP>
-36.4374

> <Gold.PLP.part.hbond>
0.0000

> <Gold.PLP.part.metal>
0.0000

> <Gold.PLP.part.buried>
-2.2224

> <Gold.PLP.part.nonpolar>
-34.4947

> <Gold.PLP.part.repulsive>
0.0431

> <Gold.PLP.ligand.clash>
0.0000

> <Gold.PLP.ligand.torsion>
0.1771

> <Gold.PLP.Chemscore.Hbond>
0.0000

> <Gold.PLP.Chemscore.CHOScore>
0.0000

> <Gold.PLP.Chemscore.Metal>
0.0000

> <Gold.PLP.Chemscore.Internal.Correction>
0.1353

