#       Name:                EN300-96185_i001
#       Creating user name   aseyller
#       Creation time:       Fri Apr 21 17:00:12 2023


#       File generated by GOLD software.
#

@<TRIPOS>MOLECULE
EN300-96185_i001|Sulfonylchlorides|mol2|135|dock18
    18    18     1
SMALL
USER_CHARGES


@<TRIPOS>ATOM
      1 Cl1         30.2963  39.9180  36.7661 Cl             1 <1>                0.0000
      2 S2          30.8639  38.1589  35.9513 S.o2           1 <1>                0.0000
      3 O3          29.7326  37.3150  36.1165 O.2            1 <1>                0.0000
      4 O4          31.3347  38.5080  34.6567 O.2            1 <1>                0.0000
      5 C5          32.2353  37.5971  36.9973 C.3            1 <1>                0.0000
      6 C6          31.9116  36.2384  37.5631 C.ar           1 <1>                0.0000
      7 C7          32.6826  35.1441  37.2176 C.ar           1 <1>                0.0000
      8 C8          32.3861  33.8980  37.7368 C.ar           1 <1>                0.0000
      9 C9          31.3180  33.7450  38.6015 C.ar           1 <1>                0.0000
     10 C10         30.5468  34.8384  38.9474 C.ar           1 <1>                0.0000
     11 C11         30.8467  36.0870  38.4324 C.ar           1 <1>                0.0000
     12 Br12        29.7918  37.5834  38.9054 Br             1 <1>                0.0000
     13 H13         33.1455  37.5348  36.4007 H              1 <1>                0.0000
     14 H14         32.3835  38.3045  37.8132 H              1 <1>                0.0000
     15 H15         33.5165  35.2629  36.5417 H              1 <1>                0.0000
     16 H16         32.9886  33.0432  37.4667 H              1 <1>                0.0000
     17 H17         31.0863  32.7711  39.0064 H              1 <1>                0.0000
     18 H18         29.7124  34.7188  39.6226 H              1 <1>                0.0000
@<TRIPOS>BOND
    1    1    2 1     
    2    2    3 2     
    3    2    4 2     
    4    2    5 1     
    5    5    6 1     
    6    5   13 1     
    7    5   14 1     
    8    6    7 ar    
    9    6   11 ar    
   10    7    8 ar    
   11    7   15 1     
   12    8    9 ar    
   13    8   16 1     
   14    9   10 ar    
   15    9   17 1     
   16   10   11 ar    
   17   10   18 1     
   18   11   12 1     
@<TRIPOS>SUBSTRUCTURE
      1 ****           1
@<TRIPOS>COMMENT
> <Gold.Version>
2022.2.0

> <Gold.Id.Protein>
1qkm|1qkm_protein|mol2

> <Gold.Protein.RotatedTorsions>
[  496  491  490  487 ] final -166.45 input  -89.99 | X-H torsion

> <Gold.Protein.ActiveResidues>
 MET295  LEU298  THR299  LEU301  ALA302  GLU305  TRP335  MET336  LEU339  MET340 
 GLY342  LEU343  ARG346  PHE356  ILE373  ILE376  PHE377  LEU380  LYS471  GLY472 
 MET473  HIS475  LEU476  LEU477  ASN478  MET479  VAL484  VAL487 

> <Gold.Protein.RotatedAtoms>
   37.2958   33.6633   40.7757 H   0  0  0  0  0  0  0  0  0  0  0  0  # atno 496  bound_to 491 

> <Gold.Score>
     Score     S(PLP)   S(hbond)     S(cho)   S(metal)  DE(clash)   DE(tors)     intcor
     38.65     -38.70       0.00       0.00       0.00       0.00       0.09       0.14

> <Gold.PLP.Fitness>
38.6487

> <Gold.PLP.PLP>
-38.6996

> <Gold.PLP.part.hbond>
0.0000

> <Gold.PLP.part.metal>
0.0000

> <Gold.PLP.part.buried>
-2.8649

> <Gold.PLP.part.nonpolar>
-36.6097

> <Gold.PLP.part.repulsive>
0.0582

> <Gold.PLP.ligand.clash>
0.0000

> <Gold.PLP.ligand.torsion>
0.0931

> <Gold.PLP.Chemscore.Hbond>
0.0000

> <Gold.PLP.Chemscore.CHOScore>
0.0000

> <Gold.PLP.Chemscore.Metal>
0.0000

> <Gold.PLP.Chemscore.Internal.Correction>
0.1353

