#       Name:                EN300-96185_i001
#       Creating user name   aseyller
#       Creation time:       Fri Apr 21 17:00:08 2023


#       File generated by GOLD software.
#

@<TRIPOS>MOLECULE
EN300-96185_i001|Sulfonylchlorides|mol2|135|dock9
    18    18     1
SMALL
USER_CHARGES


@<TRIPOS>ATOM
      1 Cl1         25.7619  37.5804  39.8720 Cl             1 <1>                0.0000
      2 S2          27.3058  36.3290  39.5103 S.o2           1 <1>                0.0000
      3 O3          27.6109  35.7724  40.7816 O.2            1 <1>                0.0000
      4 O4          26.8504  35.5100  38.4421 O.2            1 <1>                0.0000
      5 C5          28.6475  37.4149  38.9524 C.3            1 <1>                0.0000
      6 C6          29.8520  36.5825  38.5953 C.ar           1 <1>                0.0000
      7 C7          30.0007  35.3166  39.1305 C.ar           1 <1>                0.0000
      8 C8          31.1051  34.5529  38.8028 C.ar           1 <1>                0.0000
      9 C9          32.0619  35.0548  37.9400 C.ar           1 <1>                0.0000
     10 C10         31.9141  36.3202  37.4046 C.ar           1 <1>                0.0000
     11 C11         30.8059  37.0828  37.7278 C.ar           1 <1>                0.0000
     12 Br12        30.6030  38.8143  36.9954 Br             1 <1>                0.0000
     13 H13         28.3208  37.9756  38.0765 H              1 <1>                0.0000
     14 H14         28.9093  38.1089  39.7510 H              1 <1>                0.0000
     15 H15         29.2540  34.9244  39.8051 H              1 <1>                0.0000
     16 H16         31.2210  33.5639  39.2211 H              1 <1>                0.0000
     17 H17         32.9251  34.4580  37.6848 H              1 <1>                0.0000
     18 H18         32.6616  36.7122  36.7309 H              1 <1>                0.0000
@<TRIPOS>BOND
    1    1    2 1     
    2    2    3 2     
    3    2    4 2     
    4    2    5 1     
    5    5    6 1     
    6    5   13 1     
    7    5   14 1     
    8    6    7 ar    
    9    6   11 ar    
   10    7    8 ar    
   11    7   15 1     
   12    8    9 ar    
   13    8   16 1     
   14    9   10 ar    
   15    9   17 1     
   16   10   11 ar    
   17   10   18 1     
   18   11   12 1     
@<TRIPOS>SUBSTRUCTURE
      1 ****           1
@<TRIPOS>COMMENT
> <Gold.Version>
2022.2.0

> <Gold.Id.Protein>
1qkm|1qkm_protein|mol2

> <Gold.Protein.RotatedTorsions>
[  496  491  490  487 ] final  -49.89 input  -89.99 | X-H torsion

> <Gold.Protein.ActiveResidues>
 MET295  LEU298  THR299  LEU301  ALA302  GLU305  TRP335  MET336  LEU339  MET340 
 GLY342  LEU343  ARG346  PHE356  ILE373  ILE376  PHE377  LEU380  LYS471  GLY472 
 MET473  HIS475  LEU476  LEU477  ASN478  MET479  VAL484  VAL487 

> <Gold.Protein.RotatedAtoms>
   36.4239   34.7037   41.6312 H   0  0  0  0  0  0  0  0  0  0  0  0  # atno 496  bound_to 491 

> <Gold.Score>
     Score     S(PLP)   S(hbond)     S(cho)   S(metal)  DE(clash)   DE(tors)     intcor
     36.36     -37.01       0.00       0.00       0.00       0.00       0.39       0.14

> <Gold.PLP.Fitness>
36.3555

> <Gold.PLP.PLP>
-37.0090

> <Gold.PLP.part.hbond>
0.0000

> <Gold.PLP.part.metal>
0.0000

> <Gold.PLP.part.buried>
-2.7541

> <Gold.PLP.part.nonpolar>
-34.4913

> <Gold.PLP.part.repulsive>
0.1565

> <Gold.PLP.ligand.clash>
0.0000

> <Gold.PLP.ligand.torsion>
0.3944

> <Gold.PLP.Chemscore.Hbond>
0.0000

> <Gold.PLP.Chemscore.CHOScore>
0.0000

> <Gold.PLP.Chemscore.Metal>
0.0000

> <Gold.PLP.Chemscore.Internal.Correction>
0.1353

