#       Name:                EN300-96185_i001
#       Creating user name   aseyller
#       Creation time:       Fri Apr 21 17:00:09 2023


#       File generated by GOLD software.
#

@<TRIPOS>MOLECULE
EN300-96185_i001|Sulfonylchlorides|mol2|135|dock10
    18    18     1
SMALL
USER_CHARGES


@<TRIPOS>ATOM
      1 Cl1         28.4956  36.0966  41.5401 Cl             1 <1>                0.0000
      2 S2          28.5240  36.2174  39.5238 S.o2           1 <1>                0.0000
      3 O3          28.8714  34.9066  39.0992 O.2            1 <1>                0.0000
      4 O4          27.2658  36.7868  39.1890 O.2            1 <1>                0.0000
      5 C5          29.8667  37.3814  39.1590 C.3            1 <1>                0.0000
      6 C6          30.8142  36.7599  38.1654 C.ar           1 <1>                0.0000
      7 C7          31.5113  35.6136  38.4986 C.ar           1 <1>                0.0000
      8 C8          32.3800  35.0433  37.5873 C.ar           1 <1>                0.0000
      9 C9          32.5525  35.6192  36.3422 C.ar           1 <1>                0.0000
     10 C10         31.8560  36.7652  36.0083 C.ar           1 <1>                0.0000
     11 C11         30.9821  37.3332  36.9181 C.ar           1 <1>                0.0000
     12 Br12        30.0288  38.9012  36.4617 Br             1 <1>                0.0000
     13 H13         29.4498  38.2972  38.7398 H              1 <1>                0.0000
     14 H14         30.4051  37.6146  40.0776 H              1 <1>                0.0000
     15 H15         31.3774  35.1638  39.4713 H              1 <1>                0.0000
     16 H16         32.9245  34.1477  37.8479 H              1 <1>                0.0000
     17 H17         33.2319  35.1737  35.6306 H              1 <1>                0.0000
     18 H18         31.9911  37.2152  35.0358 H              1 <1>                0.0000
@<TRIPOS>BOND
    1    1    2 1     
    2    2    3 2     
    3    2    4 2     
    4    2    5 1     
    5    5    6 1     
    6    5   13 1     
    7    5   14 1     
    8    6    7 ar    
    9    6   11 ar    
   10    7    8 ar    
   11    7   15 1     
   12    8    9 ar    
   13    8   16 1     
   14    9   10 ar    
   15    9   17 1     
   16   10   11 ar    
   17   10   18 1     
   18   11   12 1     
@<TRIPOS>SUBSTRUCTURE
      1 ****           1
@<TRIPOS>COMMENT
> <Gold.Version>
2022.2.0

> <Gold.Id.Protein>
1qkm|1qkm_protein|mol2

> <Gold.Protein.RotatedTorsions>
[  496  491  490  487 ] final    1.28 input  -89.99 | X-H torsion

> <Gold.Protein.ActiveResidues>
 MET295  LEU298  THR299  LEU301  ALA302  GLU305  TRP335  MET336  LEU339  MET340 
 GLY342  LEU343  ARG346  PHE356  ILE373  ILE376  PHE377  LEU380  LYS471  GLY472 
 MET473  HIS475  LEU476  LEU477  ASN478  MET479  VAL484  VAL487 

> <Gold.Protein.RotatedAtoms>
   36.2605   34.1953   42.2464 H   0  0  0  0  0  0  0  0  0  0  0  0  # atno 496  bound_to 491 

> <Gold.Score>
     Score     S(PLP)   S(hbond)     S(cho)   S(metal)  DE(clash)   DE(tors)     intcor
     38.32     -38.47       0.00       0.00       0.00       0.00       0.14       0.14

> <Gold.PLP.Fitness>
38.3233

> <Gold.PLP.PLP>
-38.4745

> <Gold.PLP.part.hbond>
0.0000

> <Gold.PLP.part.metal>
0.0000

> <Gold.PLP.part.buried>
-3.0254

> <Gold.PLP.part.nonpolar>
-36.0461

> <Gold.PLP.part.repulsive>
0.0459

> <Gold.PLP.ligand.clash>
0.0000

> <Gold.PLP.ligand.torsion>
0.1433

> <Gold.PLP.Chemscore.Hbond>
0.0000

> <Gold.PLP.Chemscore.CHOScore>
0.0000

> <Gold.PLP.Chemscore.Metal>
0.0000

> <Gold.PLP.Chemscore.Internal.Correction>
0.1353

