#       Name:                EN300-96185_i001
#       Creating user name   aseyller
#       Creation time:       Fri Apr 21 17:00:12 2023


#       File generated by GOLD software.
#

@<TRIPOS>MOLECULE
EN300-96185_i001|Sulfonylchlorides|mol2|135|dock20
    18    18     1
SMALL
USER_CHARGES


@<TRIPOS>ATOM
      1 Cl1         26.7347  36.6940  38.8179 Cl             1 <1>                0.0000
      2 S2          28.2711  35.8761  39.8430 S.o2           1 <1>                0.0000
      3 O3          27.7914  35.7818  41.1773 O.2            1 <1>                0.0000
      4 O4          28.6070  34.7115  39.1012 O.2            1 <1>                0.0000
      5 C5          29.5979  37.1079  39.7292 C.3            1 <1>                0.0000
      6 C6          29.8950  37.3937  38.2797 C.ar           1 <1>                0.0000
      7 C7          29.2022  38.3883  37.6150 C.ar           1 <1>                0.0000
      8 C8          29.4750  38.6508  36.2858 C.ar           1 <1>                0.0000
      9 C9          30.4405  37.9185  35.6199 C.ar           1 <1>                0.0000
     10 C10         31.1336  36.9240  36.2836 C.ar           1 <1>                0.0000
     11 C11         30.8649  36.6648  37.6158 C.ar           1 <1>                0.0000
     12 Br12        31.8130  35.3042  38.5244 Br             1 <1>                0.0000
     13 H13         29.2837  38.0271  40.2238 H              1 <1>                0.0000
     14 H14         30.4944  36.7224  40.2147 H              1 <1>                0.0000
     15 H15         28.4474  38.9601  38.1344 H              1 <1>                0.0000
     16 H16         28.9334  39.4279  35.7667 H              1 <1>                0.0000
     17 H17         30.6528  38.1235  34.5811 H              1 <1>                0.0000
     18 H18         31.8875  36.3519  35.7634 H              1 <1>                0.0000
@<TRIPOS>BOND
    1    1    2 1     
    2    2    3 2     
    3    2    4 2     
    4    2    5 1     
    5    5    6 1     
    6    5   13 1     
    7    5   14 1     
    8    6    7 ar    
    9    6   11 ar    
   10    7    8 ar    
   11    7   15 1     
   12    8    9 ar    
   13    8   16 1     
   14    9   10 ar    
   15    9   17 1     
   16   10   11 ar    
   17   10   18 1     
   18   11   12 1     
@<TRIPOS>SUBSTRUCTURE
      1 ****           1
@<TRIPOS>COMMENT
> <Gold.Version>
2022.2.0

> <Gold.Id.Protein>
1qkm|1qkm_protein|mol2

> <Gold.Protein.RotatedTorsions>
[  496  491  490  487 ] final -128.79 input  -89.99 | X-H torsion

> <Gold.Protein.ActiveResidues>
 MET295  LEU298  THR299  LEU301  ALA302  GLU305  TRP335  MET336  LEU339  MET340 
 GLY342  LEU343  ARG346  PHE356  ILE373  ILE376  PHE377  LEU380  LYS471  GLY472 
 MET473  HIS475  LEU476  LEU477  ASN478  MET479  VAL484  VAL487 

> <Gold.Protein.RotatedAtoms>
   37.0957   34.2378   40.7547 H   0  0  0  0  0  0  0  0  0  0  0  0  # atno 496  bound_to 491 

> <Gold.Score>
     Score     S(PLP)   S(hbond)     S(cho)   S(metal)  DE(clash)   DE(tors)     intcor
     35.61     -36.38       0.00       0.00       0.00       0.00       0.45       0.14

> <Gold.PLP.Fitness>
35.6148

> <Gold.PLP.PLP>
-36.3843

> <Gold.PLP.part.hbond>
0.0000

> <Gold.PLP.part.metal>
0.0000

> <Gold.PLP.part.buried>
-2.8877

> <Gold.PLP.part.nonpolar>
-34.1700

> <Gold.PLP.part.repulsive>
0.1592

> <Gold.PLP.ligand.clash>
0.0000

> <Gold.PLP.ligand.torsion>
0.4524

> <Gold.PLP.Chemscore.Hbond>
0.0000

> <Gold.PLP.Chemscore.CHOScore>
0.0000

> <Gold.PLP.Chemscore.Metal>
0.0000

> <Gold.PLP.Chemscore.Internal.Correction>
0.1353

