#       Name:                EN300-96185_i001
#       Creating user name   aseyller
#       Creation time:       Fri Apr 21 17:00:07 2023


#       File generated by GOLD software.
#

@<TRIPOS>MOLECULE
EN300-96185_i001|Sulfonylchlorides|mol2|135|dock6
    18    18     1
SMALL
USER_CHARGES


@<TRIPOS>ATOM
      1 Cl1         26.7422  37.1943  38.7307 Cl             1 <1>                0.0000
      2 S2          28.1247  36.1399  39.7591 S.o2           1 <1>                0.0000
      3 O3          27.7101  36.2467  41.1141 O.2            1 <1>                0.0000
      4 O4          28.1651  34.8805  39.1022 O.2            1 <1>                0.0000
      5 C5          29.6739  37.0458  39.4943 C.3            1 <1>                0.0000
      6 C6          30.6313  36.1854  38.7106 C.ar           1 <1>                0.0000
      7 C7          30.9176  34.9027  39.1393 C.ar           1 <1>                0.0000
      8 C8          31.7953  34.1133  38.4204 C.ar           1 <1>                0.0000
      9 C9          32.3878  34.6062  37.2725 C.ar           1 <1>                0.0000
     10 C10         32.1022  35.8884  36.8432 C.ar           1 <1>                0.0000
     11 C11         31.2193  36.6769  37.5593 C.ar           1 <1>                0.0000
     12 Br12        30.8281  38.4314  36.9724 Br             1 <1>                0.0000
     13 H13         29.4693  37.9609  38.9383 H              1 <1>                0.0000
     14 H14         30.1170  37.2976  40.4578 H              1 <1>                0.0000
     15 H15         30.4556  34.5174  40.0363 H              1 <1>                0.0000
     16 H16         32.0187  33.1112  38.7556 H              1 <1>                0.0000
     17 H17         33.0741  33.9894  36.7115 H              1 <1>                0.0000
     18 H18         32.5653  36.2735  35.9468 H              1 <1>                0.0000
@<TRIPOS>BOND
    1    1    2 1     
    2    2    3 2     
    3    2    4 2     
    4    2    5 1     
    5    5    6 1     
    6    5   13 1     
    7    5   14 1     
    8    6    7 ar    
    9    6   11 ar    
   10    7    8 ar    
   11    7   15 1     
   12    8    9 ar    
   13    8   16 1     
   14    9   10 ar    
   15    9   17 1     
   16   10   11 ar    
   17   10   18 1     
   18   11   12 1     
@<TRIPOS>SUBSTRUCTURE
      1 ****           1
@<TRIPOS>COMMENT
> <Gold.Version>
2022.2.0

> <Gold.Id.Protein>
1qkm|1qkm_protein|mol2

> <Gold.Protein.RotatedTorsions>
[  496  491  490  487 ] final  -87.26 input  -89.99 | X-H torsion

> <Gold.Protein.ActiveResidues>
 MET295  LEU298  THR299  LEU301  ALA302  GLU305  TRP335  MET336  LEU339  MET340 
 GLY342  LEU343  ARG346  PHE356  ILE373  ILE376  PHE377  LEU380  LYS471  GLY472 
 MET473  HIS475  LEU476  LEU477  ASN478  MET479  VAL484  VAL487 

> <Gold.Protein.RotatedAtoms>
   36.7321   34.6703   41.1125 H   0  0  0  0  0  0  0  0  0  0  0  0  # atno 496  bound_to 491 

> <Gold.Score>
     Score     S(PLP)   S(hbond)     S(cho)   S(metal)  DE(clash)   DE(tors)     intcor
     39.27     -39.45       0.00       0.00       0.00       0.00       0.15       0.14

> <Gold.PLP.Fitness>
39.2747

> <Gold.PLP.PLP>
-39.4457

> <Gold.PLP.part.hbond>
0.0000

> <Gold.PLP.part.metal>
0.0000

> <Gold.PLP.part.buried>
-1.6634

> <Gold.PLP.part.nonpolar>
-37.8172

> <Gold.PLP.part.repulsive>
0.1194

> <Gold.PLP.ligand.clash>
0.0000

> <Gold.PLP.ligand.torsion>
0.1532

> <Gold.PLP.Chemscore.Hbond>
0.0000

> <Gold.PLP.Chemscore.CHOScore>
0.0000

> <Gold.PLP.Chemscore.Metal>
0.0000

> <Gold.PLP.Chemscore.Internal.Correction>
0.1353

