#       Name:                plp ligand
#       Creating user name   aseyller
#       Creation time:       Fri Apr 21 17:00:06 2023


#       File generated by GOLD software.
#

@<TRIPOS>MOLECULE
plp ligand
    18    18     1
SMALL
USER_CHARGES


@<TRIPOS>ATOM
      1 Cl1         -4.1934   1.2864  -0.3083 NONPOLAR       1 <1>                0.0000
      2 S2          -2.4780   0.5921   0.5017 NONPOLAR       1 <1>                0.0000
      3 O3          -2.1026   1.5928   1.4381 ACCEPTOR       1 <1>                0.0000
      4 O4          -2.7990  -0.7253   0.9265 ACCEPTOR       1 <1>                0.0000
      5 C5          -1.3088   0.5469  -0.8845 NONPOLAR       1 <1>                0.0000
      6 C6           0.0250   0.0393  -0.4003 NONPOLAR       1 <1>                0.0000
      7 C7           0.2998  -1.3153  -0.4257 NONPOLAR       1 <1>                0.0000
      8 C8           1.5232  -1.7810   0.0179 NONPOLAR       1 <1>                0.0000
      9 C9           2.4726  -0.8923   0.4878 NONPOLAR       1 <1>                0.0000
     10 C10          2.1987   0.4619   0.5136 NONPOLAR       1 <1>                0.0000
     11 C11          0.9764   0.9291   0.0643 NONPOLAR       1 <1>                0.0000
     12 Br12         0.6011   2.7820   0.0993 NONPOLAR       1 <1>                0.0000
     13 H13         -1.6904  -0.1172  -1.6602                1 <1>                0.0000
     14 H14         -1.1893   1.5507  -1.2921                1 <1>                0.0000
     15 H15         -0.4417  -2.0099  -0.7920                1 <1>                0.0000
     16 H16          1.7376  -2.8393  -0.0021                1 <1>                0.0000
     17 H17          3.4281  -1.2566   0.8350                1 <1>                0.0000
     18 H18          2.9402   1.1560   0.8809                1 <1>                0.0000
@<TRIPOS>BOND
    1    1    2 1     
    2    2    3 2     
    3    2    4 2     
    4    2    5 1     
    5    5    6 1     
    6    5   13 1     
    7    5   14 1     
    8    6    7 ar    
    9    6   11 ar    
   10    7    8 ar    
   11    7   15 1     
   12    8    9 ar    
   13    8   16 1     
   14    9   10 ar    
   15    9   17 1     
   16   10   11 ar    
   17   10   18 1     
   18   11   12 1     
@<TRIPOS>SUBSTRUCTURE
      1 ****           1
@<TRIPOS>SET
DONOR_HYDROGENS      STATIC     ATOMS    <user>   **** ""
0
ATOM$RED        STATIC     ATOMS    COLORGROUP SYSTEM
0
