#       Name:                EN300-75846_i001
#       Creating user name   aseyller
#       Creation time:       Fri Apr 21 18:01:19 2023


#       File generated by GOLD software.
#

@<TRIPOS>MOLECULE
EN300-75846_i001|benzaldehydes|mol2|405|dock20
    19    20     1
SMALL
USER_CHARGES


@<TRIPOS>ATOM
      1 Cl1         26.0965  36.5082  39.0953 Cl             1 <1>                0.0000
      2 C2          27.4095  37.3222  38.3035 C.ar           1 <1>                0.0000
      3 C3          27.1696  38.4780  37.5993 C.ar           1 <1>                0.0000
      4 C4          28.1886  39.1587  36.9530 C.ar           1 <1>                0.0000
      5 C5          29.4987  38.6869  36.9988 C.ar           1 <1>                0.0000
      6 C6          30.5754  39.4081  36.3152 C.2            1 <1>                0.0000
      7 O7          30.4724  40.5995  36.1096 O.2            1 <1>                0.0000
      8 C8          29.7803  37.4582  37.7427 C.ar           1 <1>                0.0000
      9 N9          31.0146  36.9638  37.8178 N.ar           1 <1>                0.0000
     10 C10         31.2684  35.8612  38.4845 C.ar           1 <1>                0.0000
     11 C11         30.2640  35.1580  39.1428 C.ar           1 <1>                0.0000
     12 C12         28.9754  35.6124  39.1045 C.ar           1 <1>                0.0000
     13 C13         28.7104  36.7971  38.3925 C.ar           1 <1>                0.0000
     14 H14         26.1625  38.8646  37.5485 H              1 <1>                0.0000
     15 H15         27.9651  40.0639  36.4078 H              1 <1>                0.0000
     16 H16         31.4607  38.8793  35.9943 H              1 <1>                0.0000
     17 H17         32.2821  35.4908  38.5226 H              1 <1>                0.0000
     18 H18         30.5024  34.2537  39.6832 H              1 <1>                0.0000
     19 H19         28.1836  35.0794  39.6097 H              1 <1>                0.0000
@<TRIPOS>BOND
    1    1    2 1     
    2    2    3 ar    
    3    2   13 ar    
    4    3    4 ar    
    5    3   14 1     
    6    4    5 ar    
    7    4   15 1     
    8    5    6 1     
    9    5    8 ar    
   10    6    7 2     
   11    6   16 1     
   12    8    9 ar    
   13    8   13 ar    
   14    9   10 ar    
   15   10   11 ar    
   16   10   17 1     
   17   11   12 ar    
   18   11   18 1     
   19   12   13 ar    
   20   12   19 1     
@<TRIPOS>SUBSTRUCTURE
      1 ****           1
@<TRIPOS>COMMENT
> <Gold.Version>
2022.2.0

> <Gold.Id.Protein>
1qkm|1qkm_protein|mol2

> <Gold.Protein.RotatedTorsions>
[  496  491  490  487 ] final -113.76 input  -89.99 | X-H torsion

> <Gold.Protein.ActiveResidues>
 MET295  LEU298  THR299  LEU301  ALA302  GLU305  TRP335  MET336  LEU339  MET340 
 GLY342  LEU343  ARG346  PHE356  ILE373  ILE376  PHE377  LEU380  LYS471  GLY472 
 MET473  HIS475  LEU476  LEU477  ASN478  MET479  VAL484  VAL487 

> <Gold.Protein.RotatedAtoms>
   36.9732   34.4326   40.8435 H   0  0  0  0  0  0  0  0  0  0  0  0  # atno 496  bound_to 491 

> <Gold.Score>
     Score     S(PLP)   S(hbond)     S(cho)   S(metal)  DE(clash)   DE(tors)     intcor
     42.34     -42.61       0.00       0.00       0.00       0.00       0.14       0.00

> <Gold.PLP.Fitness>
42.3353

> <Gold.PLP.PLP>
-42.6135

> <Gold.PLP.part.hbond>
0.0000

> <Gold.PLP.part.metal>
0.0000

> <Gold.PLP.part.buried>
-1.6469

> <Gold.PLP.part.nonpolar>
-40.9865

> <Gold.PLP.part.repulsive>
0.0131

> <Gold.PLP.ligand.clash>
0.0000

> <Gold.PLP.ligand.torsion>
0.1391

> <Gold.PLP.Chemscore.Hbond>
0.0000

> <Gold.PLP.Chemscore.CHOScore>
0.0000

> <Gold.PLP.Chemscore.Metal>
0.0000

> <Gold.PLP.Chemscore.Internal.Correction>
0.0000

