#       Name:                EN300-75846_i001
#       Creating user name   aseyller
#       Creation time:       Fri Apr 21 18:01:18 2023


#       File generated by GOLD software.
#

@<TRIPOS>MOLECULE
EN300-75846_i001|benzaldehydes|mol2|405|dock18
    19    20     1
SMALL
USER_CHARGES


@<TRIPOS>ATOM
      1 Cl1         28.3690  39.6993  36.6907 Cl             1 <1>                0.0000
      2 C2          29.7862  38.7297  36.4355 C.ar           1 <1>                0.0000
      3 C3          30.5740  38.9513  35.3313 C.ar           1 <1>                0.0000
      4 C4          31.7132  38.2005  35.0900 C.ar           1 <1>                0.0000
      5 C5          32.0969  37.1896  35.9685 C.ar           1 <1>                0.0000
      6 C6          33.3021  36.3967  35.7123 C.2            1 <1>                0.0000
      7 O7          33.6079  35.4968  36.4666 O.2            1 <1>                0.0000
      8 C8          31.2748  36.9341  37.1523 C.ar           1 <1>                0.0000
      9 N9          31.5963  35.9796  38.0235 N.ar           1 <1>                0.0000
     10 C10         30.8592  35.7492  39.0857 C.ar           1 <1>                0.0000
     11 C11         29.7106  36.4882  39.3522 C.ar           1 <1>                0.0000
     12 C12         29.3254  37.4826  38.4969 C.ar           1 <1>                0.0000
     13 C13         30.1219  37.7281  37.3629 C.ar           1 <1>                0.0000
     14 H14         30.2983  39.7293  34.6347 H              1 <1>                0.0000
     15 H15         32.3095  38.4007  34.2120 H              1 <1>                0.0000
     16 H16         33.9183  36.6133  34.8522 H              1 <1>                0.0000
     17 H17         31.1519  34.9662  39.7696 H              1 <1>                0.0000
     18 H18         29.1237  36.2760  40.2337 H              1 <1>                0.0000
     19 H19         28.4369  38.0661  38.6882 H              1 <1>                0.0000
@<TRIPOS>BOND
    1    1    2 1     
    2    2    3 ar    
    3    2   13 ar    
    4    3    4 ar    
    5    3   14 1     
    6    4    5 ar    
    7    4   15 1     
    8    5    6 1     
    9    5    8 ar    
   10    6    7 2     
   11    6   16 1     
   12    8    9 ar    
   13    8   13 ar    
   14    9   10 ar    
   15   10   11 ar    
   16   10   17 1     
   17   11   12 ar    
   18   11   18 1     
   19   12   13 ar    
   20   12   19 1     
@<TRIPOS>SUBSTRUCTURE
      1 ****           1
@<TRIPOS>COMMENT
> <Gold.Version>
2022.2.0

> <Gold.Id.Protein>
1qkm|1qkm_protein|mol2

> <Gold.Protein.RotatedTorsions>
[  496  491  490  487 ] final -124.58 input  -89.99 | X-H torsion

> <Gold.Protein.ActiveResidues>
 MET295  LEU298  THR299  LEU301  ALA302  GLU305  TRP335  MET336  LEU339  MET340 
 GLY342  LEU343  ARG346  PHE356  ILE373  ILE376  PHE377  LEU380  LYS471  GLY472 
 MET473  HIS475  LEU476  LEU477  ASN478  MET479  VAL484  VAL487 

> <Gold.Protein.RotatedAtoms>
   37.0632   34.2958   40.7743 H   0  0  0  0  0  0  0  0  0  0  0  0  # atno 496  bound_to 491 

> <Gold.Score>
     Score     S(PLP)   S(hbond)     S(cho)   S(metal)  DE(clash)   DE(tors)     intcor
     41.70     -38.71       0.00       1.00       0.00       0.00       0.00       0.00

> <Gold.PLP.Fitness>
41.6971

> <Gold.PLP.PLP>
-38.7079

> <Gold.PLP.part.hbond>
0.0000

> <Gold.PLP.part.metal>
0.0000

> <Gold.PLP.part.buried>
-2.0365

> <Gold.PLP.part.nonpolar>
-36.1949

> <Gold.PLP.part.repulsive>
0.0517

> <Gold.PLP.ligand.clash>
0.0000

> <Gold.PLP.ligand.torsion>
0.0007

> <Gold.PLP.Chemscore.Hbond>
0.0000

> <Gold.PLP.Chemscore.CHOScore>
0.9969

> <Gold.PLP.Chemscore.Metal>
0.0000

> <Gold.Chemscore.Hbonds>
donor molecule, donor type, donor heavy atom, donor atom, acceptor molecule, acceptor atom, score
      L1  C    10    17       P1   470  1.00

> <Gold.PLP.Chemscore.Internal.Correction>
0.0000

