#       Name:                EN300-75846_i001
#       Creating user name   aseyller
#       Creation time:       Fri Apr 21 18:01:16 2023


#       File generated by GOLD software.
#

@<TRIPOS>MOLECULE
EN300-75846_i001|benzaldehydes|mol2|405|dock10
    19    20     1
SMALL
USER_CHARGES


@<TRIPOS>ATOM
      1 Cl1         30.8526  39.3818  35.9045 Cl             1 <1>                0.0000
      2 C2          29.7085  38.4861  36.8544 C.ar           1 <1>                0.0000
      3 C3          28.3866  38.8626  36.8631 C.ar           1 <1>                0.0000
      4 C4          27.4412  38.1754  37.6070 C.ar           1 <1>                0.0000
      5 C5          27.8067  37.0719  38.3750 C.ar           1 <1>                0.0000
      6 C6          26.8057  36.3458  39.1610 C.2            1 <1>                0.0000
      7 O7          25.7357  36.8625  39.4064 O.2            1 <1>                0.0000
      8 C8          29.2084  36.6505  38.3823 C.ar           1 <1>                0.0000
      9 N9          29.6110  35.6031  39.0993 N.ar           1 <1>                0.0000
     10 C10         30.8684  35.2244  39.1069 C.ar           1 <1>                0.0000
     11 C11         31.8382  35.8963  38.3689 C.ar           1 <1>                0.0000
     12 C12         31.4903  36.9799  37.6118 C.ar           1 <1>                0.0000
     13 C13         30.1405  37.3781  37.6038 C.ar           1 <1>                0.0000
     14 H14         28.0776  39.7148  36.2760 H              1 <1>                0.0000
     15 H15         26.4108  38.4985  37.5918 H              1 <1>                0.0000
     16 H16         27.0204  35.3508  39.5218 H              1 <1>                0.0000
     17 H17         31.1572  34.3700  39.7011 H              1 <1>                0.0000
     18 H18         32.8650  35.5622  38.3947 H              1 <1>                0.0000
     19 H19         32.2298  37.5131  37.0328 H              1 <1>                0.0000
@<TRIPOS>BOND
    1    1    2 1     
    2    2    3 ar    
    3    2   13 ar    
    4    3    4 ar    
    5    3   14 1     
    6    4    5 ar    
    7    4   15 1     
    8    5    6 1     
    9    5    8 ar    
   10    6    7 2     
   11    6   16 1     
   12    8    9 ar    
   13    8   13 ar    
   14    9   10 ar    
   15   10   11 ar    
   16   10   17 1     
   17   11   12 ar    
   18   11   18 1     
   19   12   13 ar    
   20   12   19 1     
@<TRIPOS>SUBSTRUCTURE
      1 ****           1
@<TRIPOS>COMMENT
> <Gold.Version>
2022.2.0

> <Gold.Id.Protein>
1qkm|1qkm_protein|mol2

> <Gold.Protein.RotatedTorsions>
[  496  491  490  487 ] final -135.80 input  -89.99 | X-H torsion

> <Gold.Protein.ActiveResidues>
 MET295  LEU298  THR299  LEU301  ALA302  GLU305  TRP335  MET336  LEU339  MET340 
 GLY342  LEU343  ARG346  PHE356  ILE373  ILE376  PHE377  LEU380  LYS471  GLY472 
 MET473  HIS475  LEU476  LEU477  ASN478  MET479  VAL484  VAL487 

> <Gold.Protein.RotatedAtoms>
   37.1462   34.1367   40.7317 H   0  0  0  0  0  0  0  0  0  0  0  0  # atno 496  bound_to 491 

> <Gold.Score>
     Score     S(PLP)   S(hbond)     S(cho)   S(metal)  DE(clash)   DE(tors)     intcor
     41.79     -40.23       0.00       0.57       0.00       0.00       0.07       0.00

> <Gold.PLP.Fitness>
41.7938

> <Gold.PLP.PLP>
-40.2268

> <Gold.PLP.part.hbond>
0.0000

> <Gold.PLP.part.metal>
0.0000

> <Gold.PLP.part.buried>
-1.7600

> <Gold.PLP.part.nonpolar>
-39.0781

> <Gold.PLP.part.repulsive>
0.1538

> <Gold.PLP.ligand.clash>
0.0000

> <Gold.PLP.ligand.torsion>
0.0670

> <Gold.PLP.Chemscore.Hbond>
0.0000

> <Gold.PLP.Chemscore.CHOScore>
0.5670

> <Gold.PLP.Chemscore.Metal>
0.0000

> <Gold.Chemscore.Hbonds>
donor molecule, donor type, donor heavy atom, donor atom, acceptor molecule, acceptor atom, score
      L1  C    10    17       P1   470  0.57

> <Gold.PLP.Chemscore.Internal.Correction>
0.0000

