#       Name:                EN300-75846_i001
#       Creating user name   aseyller
#       Creation time:       Fri Apr 21 18:01:16 2023


#       File generated by GOLD software.
#

@<TRIPOS>MOLECULE
EN300-75846_i001|benzaldehydes|mol2|405|dock9
    19    20     1
SMALL
USER_CHARGES


@<TRIPOS>ATOM
      1 Cl1         32.5176  36.0705  37.9688 Cl             1 <1>                0.0000
      2 C2          30.8194  36.2192  38.2972 C.ar           1 <1>                0.0000
      3 C3          30.1921  35.2813  39.0820 C.ar           1 <1>                0.0000
      4 C4          28.8391  35.3626  39.3687 C.ar           1 <1>                0.0000
      5 C5          28.0679  36.4078  38.8650 C.ar           1 <1>                0.0000
      6 C6          26.6371  36.4928  39.1693 C.2            1 <1>                0.0000
      7 O7          25.9964  37.4580  38.8085 O.2            1 <1>                0.0000
      8 C8          28.7125  37.4199  38.0268 C.ar           1 <1>                0.0000
      9 N9          28.0214  38.4390  37.5198 N.ar           1 <1>                0.0000
     10 C10         28.5986  39.3474  36.7673 C.ar           1 <1>                0.0000
     11 C11         29.9556  39.2900  36.4640 C.ar           1 <1>                0.0000
     12 C12         30.7215  38.2690  36.9534 C.ar           1 <1>                0.0000
     13 C13         30.0983  37.3012  37.7631 C.ar           1 <1>                0.0000
     14 H14         30.7678  34.4610  39.4847 H              1 <1>                0.0000
     15 H15         28.3775  34.6080  39.9884 H              1 <1>                0.0000
     16 H16         26.1528  35.6964  39.7149 H              1 <1>                0.0000
     17 H17         28.0052  40.1594  36.3738 H              1 <1>                0.0000
     18 H18         30.4032  40.0513  35.8421 H              1 <1>                0.0000
     19 H19         31.7760  38.2088  36.7281 H              1 <1>                0.0000
@<TRIPOS>BOND
    1    1    2 1     
    2    2    3 ar    
    3    2   13 ar    
    4    3    4 ar    
    5    3   14 1     
    6    4    5 ar    
    7    4   15 1     
    8    5    6 1     
    9    5    8 ar    
   10    6    7 2     
   11    6   16 1     
   12    8    9 ar    
   13    8   13 ar    
   14    9   10 ar    
   15   10   11 ar    
   16   10   17 1     
   17   11   12 ar    
   18   11   18 1     
   19   12   13 ar    
   20   12   19 1     
@<TRIPOS>SUBSTRUCTURE
      1 ****           1
@<TRIPOS>COMMENT
> <Gold.Version>
2022.2.0

> <Gold.Id.Protein>
1qkm|1qkm_protein|mol2

> <Gold.Protein.RotatedTorsions>
[  496  491  490  487 ] final -132.93 input  -89.99 | X-H torsion

> <Gold.Protein.ActiveResidues>
 MET295  LEU298  THR299  LEU301  ALA302  GLU305  TRP335  MET336  LEU339  MET340 
 GLY342  LEU343  ARG346  PHE356  ILE373  ILE376  PHE377  LEU380  LYS471  GLY472 
 MET473  HIS475  LEU476  LEU477  ASN478  MET479  VAL484  VAL487 

> <Gold.Protein.RotatedAtoms>
   37.1261   34.1788   40.7397 H   0  0  0  0  0  0  0  0  0  0  0  0  # atno 496  bound_to 491 

> <Gold.Score>
     Score     S(PLP)   S(hbond)     S(cho)   S(metal)  DE(clash)   DE(tors)     intcor
     41.36     -41.38       0.00       0.00       0.00       0.00       0.01       0.00

> <Gold.PLP.Fitness>
41.3628

> <Gold.PLP.PLP>
-41.3765

> <Gold.PLP.part.hbond>
0.0000

> <Gold.PLP.part.metal>
0.0000

> <Gold.PLP.part.buried>
-2.0778

> <Gold.PLP.part.nonpolar>
-39.8974

> <Gold.PLP.part.repulsive>
0.0569

> <Gold.PLP.ligand.clash>
0.0000

> <Gold.PLP.ligand.torsion>
0.0069

> <Gold.PLP.Chemscore.Hbond>
0.0000

> <Gold.PLP.Chemscore.CHOScore>
0.0000

> <Gold.PLP.Chemscore.Metal>
0.0000

> <Gold.PLP.Chemscore.Internal.Correction>
0.0000

