#       Name:                EN300-75846_i001
#       Creating user name   aseyller
#       Creation time:       Fri Apr 21 18:01:17 2023


#       File generated by GOLD software.
#

@<TRIPOS>MOLECULE
EN300-75846_i001|benzaldehydes|mol2|405|dock12
    19    20     1
SMALL
USER_CHARGES


@<TRIPOS>ATOM
      1 Cl1         32.1001  33.3981  38.5643 Cl             1 <1>                0.0000
      2 C2          31.3906  34.9208  38.1264 C.ar           1 <1>                0.0000
      3 C3          30.2499  35.3493  38.7623 C.ar           1 <1>                0.0000
      4 C4          29.6517  36.5576  38.4434 C.ar           1 <1>                0.0000
      5 C5          30.1946  37.3813  37.4597 C.ar           1 <1>                0.0000
      6 C6          29.5611  38.6591  37.1238 C.2            1 <1>                0.0000
      7 O7          28.3661  38.8025  37.2769 O.2            1 <1>                0.0000
      8 C8          31.4096  36.9476  36.7680 C.ar           1 <1>                0.0000
      9 N9          31.9691  37.6966  35.8197 N.ar           1 <1>                0.0000
     10 C10         33.0588  37.3083  35.1982 C.ar           1 <1>                0.0000
     11 C11         33.6802  36.1000  35.4989 C.ar           1 <1>                0.0000
     12 C12         33.1560  35.2845  36.4626 C.ar           1 <1>                0.0000
     13 C13         31.9908  35.7082  37.1286 C.ar           1 <1>                0.0000
     14 H14         29.8092  34.7291  39.5288 H              1 <1>                0.0000
     15 H15         28.7553  36.8639  38.9623 H              1 <1>                0.0000
     16 H16         30.1579  39.4733  36.7399 H              1 <1>                0.0000
     17 H17         33.4835  37.9428  34.4343 H              1 <1>                0.0000
     18 H18         34.5755  35.8064  34.9709 H              1 <1>                0.0000
     19 H19         33.6250  34.3434  36.7089 H              1 <1>                0.0000
@<TRIPOS>BOND
    1    1    2 1     
    2    2    3 ar    
    3    2   13 ar    
    4    3    4 ar    
    5    3   14 1     
    6    4    5 ar    
    7    4   15 1     
    8    5    6 1     
    9    5    8 ar    
   10    6    7 2     
   11    6   16 1     
   12    8    9 ar    
   13    8   13 ar    
   14    9   10 ar    
   15   10   11 ar    
   16   10   17 1     
   17   11   12 ar    
   18   11   18 1     
   19   12   13 ar    
   20   12   19 1     
@<TRIPOS>SUBSTRUCTURE
      1 ****           1
@<TRIPOS>COMMENT
> <Gold.Version>
2022.2.0

> <Gold.Id.Protein>
1qkm|1qkm_protein|mol2

> <Gold.Protein.RotatedTorsions>
[  496  491  490  487 ] final  104.21 input  -89.99 | X-H torsion

> <Gold.Protein.ActiveResidues>
 MET295  LEU298  THR299  LEU301  ALA302  GLU305  TRP335  MET336  LEU339  MET340 
 GLY342  LEU343  ARG346  PHE356  ILE373  ILE376  PHE377  LEU380  LYS471  GLY472 
 MET473  HIS475  LEU476  LEU477  ASN478  MET479  VAL484  VAL487 

> <Gold.Protein.RotatedAtoms>
   36.9492   32.9546   41.8418 H   0  0  0  0  0  0  0  0  0  0  0  0  # atno 496  bound_to 491 

> <Gold.Score>
     Score     S(PLP)   S(hbond)     S(cho)   S(metal)  DE(clash)   DE(tors)     intcor
     43.60     -41.60       0.00       0.78       0.00       0.00       0.17       0.00

> <Gold.PLP.Fitness>
43.5972

> <Gold.PLP.PLP>
-41.6040

> <Gold.PLP.part.hbond>
0.0000

> <Gold.PLP.part.metal>
0.0000

> <Gold.PLP.part.buried>
-2.3842

> <Gold.PLP.part.nonpolar>
-39.6566

> <Gold.PLP.part.repulsive>
0.0324

> <Gold.PLP.ligand.clash>
0.0000

> <Gold.PLP.ligand.torsion>
0.1674

> <Gold.PLP.Chemscore.Hbond>
0.0000

> <Gold.PLP.Chemscore.CHOScore>
0.7760

> <Gold.PLP.Chemscore.Metal>
0.0000

> <Gold.Chemscore.Hbonds>
donor molecule, donor type, donor heavy atom, donor atom, acceptor molecule, acceptor atom, score
      L1  C    10    17       P1  3229  0.78

> <Gold.PLP.Chemscore.Internal.Correction>
0.0000

