#       Name:                EN300-75846_i001
#       Creating user name   aseyller
#       Creation time:       Fri Apr 21 18:01:15 2023


#       File generated by GOLD software.
#

@<TRIPOS>MOLECULE
EN300-75846_i001|benzaldehydes|mol2|405|dock6
    19    20     1
SMALL
USER_CHARGES


@<TRIPOS>ATOM
      1 Cl1         29.7776  39.5366  37.0277 Cl             1 <1>                0.0000
      2 C2          30.3786  37.9823  37.5143 C.ar           1 <1>                0.0000
      3 C3          29.8438  37.3593  38.6167 C.ar           1 <1>                0.0000
      4 C4          30.2942  36.1190  39.0390 C.ar           1 <1>                0.0000
      5 C5          31.3118  35.4610  38.3516 C.ar           1 <1>                0.0000
      6 C6          31.7868  34.1491  38.7991 C.2            1 <1>                0.0000
      7 O7          31.4967  33.1523  38.1711 O.2            1 <1>                0.0000
      8 C8          31.8975  36.1033  37.1740 C.ar           1 <1>                0.0000
      9 N9          32.8728  35.5180  36.4814 N.ar           1 <1>                0.0000
     10 C10         33.3993  36.0936  35.4249 C.ar           1 <1>                0.0000
     11 C11         32.9658  37.3385  34.9789 C.ar           1 <1>                0.0000
     12 C12         31.9678  37.9925  35.6458 C.ar           1 <1>                0.0000
     13 C13         31.4040  37.3686  36.7744 C.ar           1 <1>                0.0000
     14 H14         29.0538  37.8485  39.1670 H              1 <1>                0.0000
     15 H15         29.8524  35.6579  39.9100 H              1 <1>                0.0000
     16 H16         32.3952  34.0694  39.6879 H              1 <1>                0.0000
     17 H17         34.1889  35.5881  34.8888 H              1 <1>                0.0000
     18 H18         33.4178  37.7878  34.1069 H              1 <1>                0.0000
     19 H19         31.6189  38.9591  35.3137 H              1 <1>                0.0000
@<TRIPOS>BOND
    1    1    2 1     
    2    2    3 ar    
    3    2   13 ar    
    4    3    4 ar    
    5    3   14 1     
    6    4    5 ar    
    7    4   15 1     
    8    5    6 1     
    9    5    8 ar    
   10    6    7 2     
   11    6   16 1     
   12    8    9 ar    
   13    8   13 ar    
   14    9   10 ar    
   15   10   11 ar    
   16   10   17 1     
   17   11   12 ar    
   18   11   18 1     
   19   12   13 ar    
   20   12   19 1     
@<TRIPOS>SUBSTRUCTURE
      1 ****           1
@<TRIPOS>COMMENT
> <Gold.Version>
2022.2.0

> <Gold.Id.Protein>
1qkm|1qkm_protein|mol2

> <Gold.Protein.RotatedTorsions>
[  496  491  490  487 ] final   78.91 input  -89.99 | X-H torsion

> <Gold.Protein.ActiveResidues>
 MET295  LEU298  THR299  LEU301  ALA302  GLU305  TRP335  MET336  LEU339  MET340 
 GLY342  LEU343  ARG346  PHE356  ILE373  ILE376  PHE377  LEU380  LYS471  GLY472 
 MET473  HIS475  LEU476  LEU477  ASN478  MET479  VAL484  VAL487 

> <Gold.Protein.RotatedAtoms>
   36.7179   33.1095   42.1470 H   0  0  0  0  0  0  0  0  0  0  0  0  # atno 496  bound_to 491 

> <Gold.Score>
     Score     S(PLP)   S(hbond)     S(cho)   S(metal)  DE(clash)   DE(tors)     intcor
     43.64     -45.02       0.00       0.00       0.00       0.00       0.69       0.00

> <Gold.PLP.Fitness>
43.6404

> <Gold.PLP.PLP>
-45.0163

> <Gold.PLP.part.hbond>
0.0000

> <Gold.PLP.part.metal>
0.0000

> <Gold.PLP.part.buried>
-3.9454

> <Gold.PLP.part.nonpolar>
-41.6851

> <Gold.PLP.part.repulsive>
0.0499

> <Gold.PLP.ligand.clash>
0.0000

> <Gold.PLP.ligand.torsion>
0.6880

> <Gold.PLP.Chemscore.Hbond>
0.0000

> <Gold.PLP.Chemscore.CHOScore>
0.0000

> <Gold.PLP.Chemscore.Metal>
0.0000

> <Gold.PLP.Chemscore.Internal.Correction>
0.0000

