#       Name:                EN300-75846_i001
#       Creating user name   aseyller
#       Creation time:       Fri Apr 21 18:01:14 2023


#       File generated by GOLD software.
#

@<TRIPOS>MOLECULE
EN300-75846_i001|benzaldehydes|mol2|405|dock2
    19    20     1
SMALL
USER_CHARGES


@<TRIPOS>ATOM
      1 Cl1         28.8019  39.7363  36.6837 Cl             1 <1>                0.0000
      2 C2          29.7864  38.3554  37.0543 C.ar           1 <1>                0.0000
      3 C3          29.5017  37.5926  38.1617 C.ar           1 <1>                0.0000
      4 C4          30.2618  36.4828  38.4934 C.ar           1 <1>                0.0000
      5 C5          31.3470  36.1040  37.7062 C.ar           1 <1>                0.0000
      6 C6          32.1497  34.9297  38.0579 C.2            1 <1>                0.0000
      7 O7          31.7959  34.2017  38.9618 O.2            1 <1>                0.0000
      8 C8          31.6706  36.8997  36.5210 C.ar           1 <1>                0.0000
      9 N9          32.6973  36.5816  35.7349 N.ar           1 <1>                0.0000
     10 C10         32.9889  37.2951  34.6716 C.ar           1 <1>                0.0000
     11 C11         32.2422  38.4141  34.3153 C.ar           1 <1>                0.0000
     12 C12         31.1752  38.7942  35.0806 C.ar           1 <1>                0.0000
     13 C13         30.8647  38.0230  36.2161 C.ar           1 <1>                0.0000
     14 H14         28.6655  37.8652  38.7886 H              1 <1>                0.0000
     15 H15         30.0108  35.9058  39.3712 H              1 <1>                0.0000
     16 H16         33.0561  34.7122  37.5125 H              1 <1>                0.0000
     17 H17         33.8295  37.0061  34.0582 H              1 <1>                0.0000
     18 H18         32.5057  38.9820  33.4352 H              1 <1>                0.0000
     19 H19         30.5847  39.6598  34.8190 H              1 <1>                0.0000
@<TRIPOS>BOND
    1    1    2 1     
    2    2    3 ar    
    3    2   13 ar    
    4    3    4 ar    
    5    3   14 1     
    6    4    5 ar    
    7    4   15 1     
    8    5    6 1     
    9    5    8 ar    
   10    6    7 2     
   11    6   16 1     
   12    8    9 ar    
   13    8   13 ar    
   14    9   10 ar    
   15   10   11 ar    
   16   10   17 1     
   17   11   12 ar    
   18   11   18 1     
   19   12   13 ar    
   20   12   19 1     
@<TRIPOS>SUBSTRUCTURE
      1 ****           1
@<TRIPOS>COMMENT
> <Gold.Version>
2022.2.0

> <Gold.Id.Protein>
1qkm|1qkm_protein|mol2

> <Gold.Protein.RotatedTorsions>
[  496  491  490  487 ] final    1.49 input  -89.99 | X-H torsion

> <Gold.Protein.ActiveResidues>
 MET295  LEU298  THR299  LEU301  ALA302  GLU305  TRP335  MET336  LEU339  MET340 
 GLY342  LEU343  ARG346  PHE356  ILE373  ILE376  PHE377  LEU380  LYS471  GLY472 
 MET473  HIS475  LEU476  LEU477  ASN478  MET479  VAL484  VAL487 

> <Gold.Protein.RotatedAtoms>
   36.2607   34.1922   42.2481 H   0  0  0  0  0  0  0  0  0  0  0  0  # atno 496  bound_to 491 

> <Gold.Score>
     Score     S(PLP)   S(hbond)     S(cho)   S(metal)  DE(clash)   DE(tors)     intcor
     45.73     -42.82       0.00       0.98       0.00       0.00       0.01       0.00

> <Gold.PLP.Fitness>
45.7339

> <Gold.PLP.PLP>
-42.8155

> <Gold.PLP.part.hbond>
0.0000

> <Gold.PLP.part.metal>
0.0000

> <Gold.PLP.part.buried>
-3.2244

> <Gold.PLP.part.nonpolar>
-40.1210

> <Gold.PLP.part.repulsive>
0.1815

> <Gold.PLP.ligand.clash>
0.0000

> <Gold.PLP.ligand.torsion>
0.0121

> <Gold.PLP.Chemscore.Hbond>
0.0000

> <Gold.PLP.Chemscore.CHOScore>
0.9809

> <Gold.PLP.Chemscore.Metal>
0.0000

> <Gold.Chemscore.Hbonds>
donor molecule, donor type, donor heavy atom, donor atom, acceptor molecule, acceptor atom, score
      L1  C    10    17       P1  3229  0.98

> <Gold.PLP.Chemscore.Internal.Correction>
0.0000

