#       Name:                EN300-75846_i001
#       Creating user name   aseyller
#       Creation time:       Fri Apr 21 18:01:18 2023


#       File generated by GOLD software.
#

@<TRIPOS>MOLECULE
EN300-75846_i001|benzaldehydes|mol2|405|dock17
    19    20     1
SMALL
USER_CHARGES


@<TRIPOS>ATOM
      1 Cl1         28.5476  39.0060  36.2497 Cl             1 <1>                0.0000
      2 C2          27.7956  38.2100  37.5967 C.ar           1 <1>                0.0000
      3 C3          26.4829  38.4799  37.9019 C.ar           1 <1>                0.0000
      4 C4          25.8448  37.8668  38.9680 C.ar           1 <1>                0.0000
      5 C5          26.5218  36.9497  39.7689 C.ar           1 <1>                0.0000
      6 C6          25.8456  36.3016  40.8957 C.2            1 <1>                0.0000
      7 O7          24.9180  36.8564  41.4469 O.2            1 <1>                0.0000
      8 C8          27.9206  36.6446  39.4643 C.ar           1 <1>                0.0000
      9 N9          28.6137  35.7761  40.1982 N.ar           1 <1>                0.0000
     10 C10         29.8689  35.5020  39.9261 C.ar           1 <1>                0.0000
     11 C11         30.5338  36.1031  38.8616 C.ar           1 <1>                0.0000
     12 C12         29.8787  37.0040  38.0693 C.ar           1 <1>                0.0000
     13 C13         28.5324  37.2901  38.3628 C.ar           1 <1>                0.0000
     14 H14         25.9358  39.1873  37.2964 H              1 <1>                0.0000
     15 H15         24.8124  38.1024  39.1804 H              1 <1>                0.0000
     16 H16         26.1729  35.3301  41.2355 H              1 <1>                0.0000
     17 H17         30.3985  34.7922  40.5443 H              1 <1>                0.0000
     18 H18         31.5666  35.8584  38.6618 H              1 <1>                0.0000
     19 H19         30.3791  37.4799  37.2390 H              1 <1>                0.0000
@<TRIPOS>BOND
    1    1    2 1     
    2    2    3 ar    
    3    2   13 ar    
    4    3    4 ar    
    5    3   14 1     
    6    4    5 ar    
    7    4   15 1     
    8    5    6 1     
    9    5    8 ar    
   10    6    7 2     
   11    6   16 1     
   12    8    9 ar    
   13    8   13 ar    
   14    9   10 ar    
   15   10   11 ar    
   16   10   17 1     
   17   11   12 ar    
   18   11   18 1     
   19   12   13 ar    
   20   12   19 1     
@<TRIPOS>SUBSTRUCTURE
      1 ****           1
@<TRIPOS>COMMENT
> <Gold.Version>
2022.2.0

> <Gold.Id.Protein>
1qkm|1qkm_protein|mol2

> <Gold.Protein.RotatedTorsions>
[  496  491  490  487 ] final -125.84 input  -89.99 | X-H torsion

> <Gold.Protein.ActiveResidues>
 MET295  LEU298  THR299  LEU301  ALA302  GLU305  TRP335  MET336  LEU339  MET340 
 GLY342  LEU343  ARG346  PHE356  ILE373  ILE376  PHE377  LEU380  LYS471  GLY472 
 MET473  HIS475  LEU476  LEU477  ASN478  MET479  VAL484  VAL487 

> <Gold.Protein.RotatedAtoms>
   37.0730   34.2788   40.7680 H   0  0  0  0  0  0  0  0  0  0  0  0  # atno 496  bound_to 491 

> <Gold.Score>
     Score     S(PLP)   S(hbond)     S(cho)   S(metal)  DE(clash)   DE(tors)     intcor
     42.78     -38.68       0.47       1.00       0.00       0.00       0.15       0.00

> <Gold.PLP.Fitness>
42.7793

> <Gold.PLP.PLP>
-38.6785

> <Gold.PLP.part.hbond>
-1.0000

> <Gold.PLP.part.metal>
0.0000

> <Gold.PLP.part.buried>
-1.7429

> <Gold.PLP.part.nonpolar>
-36.3857

> <Gold.PLP.part.repulsive>
0.7641

> <Gold.PLP.ligand.clash>
0.0000

> <Gold.PLP.ligand.torsion>
0.1524

> <Gold.PLP.Chemscore.Hbond>
0.4685

> <Gold.PLP.Chemscore.CHOScore>
1.0000

> <Gold.PLP.Chemscore.Metal>
0.0000

> <Gold.Chemscore.Hbonds>
donor molecule, donor type, donor heavy atom, donor atom, acceptor molecule, acceptor atom, score
      P1  H  1258  1270       L1     7  0.47
      L1  C    10    17       P1   470  1.00

> <Gold.PLP.Chemscore.Internal.Correction>
0.0000

