#       Name:                EN300-75846_i001
#       Creating user name   aseyller
#       Creation time:       Fri Apr 21 18:01:18 2023


#       File generated by GOLD software.
#

@<TRIPOS>MOLECULE
EN300-75846_i001|benzaldehydes|mol2|405|dock15
    19    20     1
SMALL
USER_CHARGES


@<TRIPOS>ATOM
      1 Cl1         27.1574  35.5601  40.2467 Cl             1 <1>                0.0000
      2 C2          27.7403  36.6831  39.0581 C.ar           1 <1>                0.0000
      3 C3          26.8767  37.5963  38.5018 C.ar           1 <1>                0.0000
      4 C4          27.3006  38.5098  37.5503 C.ar           1 <1>                0.0000
      5 C5          28.6275  38.5296  37.1262 C.ar           1 <1>                0.0000
      6 C6          29.0746  39.4966  36.1202 C.2            1 <1>                0.0000
      7 O7          30.2505  39.5707  35.8305 O.2            1 <1>                0.0000
      8 C8          29.5672  37.5675  37.7039 C.ar           1 <1>                0.0000
      9 N9          30.8461  37.5433  37.3333 N.ar           1 <1>                0.0000
     10 C10         31.6899  36.6803  37.8506 C.ar           1 <1>                0.0000
     11 C11         31.2910  35.7522  38.8078 C.ar           1 <1>                0.0000
     12 C12         29.9915  35.7245  39.2312 C.ar           1 <1>                0.0000
     13 C13         29.0929  36.6550  38.6768 C.ar           1 <1>                0.0000
     14 H14         25.8427  37.6016  38.8136 H              1 <1>                0.0000
     15 H15         26.5954  39.2134  37.1330 H              1 <1>                0.0000
     16 H16         28.3575  40.1435  35.6368 H              1 <1>                0.0000
     17 H17         32.7196  36.6909  37.5248 H              1 <1>                0.0000
     18 H18         32.0072  35.0541  39.2154 H              1 <1>                0.0000
     19 H19         29.6645  35.0112  39.9732 H              1 <1>                0.0000
@<TRIPOS>BOND
    1    1    2 1     
    2    2    3 ar    
    3    2   13 ar    
    4    3    4 ar    
    5    3   14 1     
    6    4    5 ar    
    7    4   15 1     
    8    5    6 1     
    9    5    8 ar    
   10    6    7 2     
   11    6   16 1     
   12    8    9 ar    
   13    8   13 ar    
   14    9   10 ar    
   15   10   11 ar    
   16   10   17 1     
   17   11   12 ar    
   18   11   18 1     
   19   12   13 ar    
   20   12   19 1     
@<TRIPOS>SUBSTRUCTURE
      1 ****           1
@<TRIPOS>COMMENT
> <Gold.Version>
2022.2.0

> <Gold.Id.Protein>
1qkm|1qkm_protein|mol2

> <Gold.Protein.RotatedTorsions>
[  496  491  490  487 ] final   54.30 input  -89.99 | X-H torsion

> <Gold.Protein.ActiveResidues>
 MET295  LEU298  THR299  LEU301  ALA302  GLU305  TRP335  MET336  LEU339  MET340 
 GLY342  LEU343  ARG346  PHE356  ILE373  ILE376  PHE377  LEU380  LYS471  GLY472 
 MET473  HIS475  LEU476  LEU477  ASN478  MET479  VAL484  VAL487 

> <Gold.Protein.RotatedAtoms>
   36.5056   33.3946   42.3347 H   0  0  0  0  0  0  0  0  0  0  0  0  # atno 496  bound_to 491 

> <Gold.Score>
     Score     S(PLP)   S(hbond)     S(cho)   S(metal)  DE(clash)   DE(tors)     intcor
     41.89     -41.90       0.00       0.00       0.00       0.00       0.01       0.00

> <Gold.PLP.Fitness>
41.8861

> <Gold.PLP.PLP>
-41.8998

> <Gold.PLP.part.hbond>
0.0000

> <Gold.PLP.part.metal>
0.0000

> <Gold.PLP.part.buried>
-2.7521

> <Gold.PLP.part.nonpolar>
-39.1248

> <Gold.PLP.part.repulsive>
0.0000

> <Gold.PLP.ligand.clash>
0.0000

> <Gold.PLP.ligand.torsion>
0.0069

> <Gold.PLP.Chemscore.Hbond>
0.0000

> <Gold.PLP.Chemscore.CHOScore>
0.0000

> <Gold.PLP.Chemscore.Metal>
0.0000

> <Gold.PLP.Chemscore.Internal.Correction>
0.0000

