#       Name:                EN300-75846_i001
#       Creating user name   aseyller
#       Creation time:       Fri Apr 21 18:01:14 2023


#       File generated by GOLD software.
#

@<TRIPOS>MOLECULE
EN300-75846_i001|benzaldehydes|mol2|405|dock4
    19    20     1
SMALL
USER_CHARGES


@<TRIPOS>ATOM
      1 Cl1         26.4718  37.3435  38.8314 Cl             1 <1>                0.0000
      2 C2          28.1444  36.9204  38.6388 C.ar           1 <1>                0.0000
      3 C3          28.6371  35.7925  39.2507 C.ar           1 <1>                0.0000
      4 C4          29.9651  35.4189  39.1229 C.ar           1 <1>                0.0000
      5 C5          30.8479  36.1829  38.3627 C.ar           1 <1>                0.0000
      6 C6          32.2520  35.7863  38.2279 C.2            1 <1>                0.0000
      7 O7          32.9983  36.4284  37.5186 O.2            1 <1>                0.0000
      8 C8          30.3476  37.3886  37.7004 C.ar           1 <1>                0.0000
      9 N9          31.1491  38.1544  36.9626 N.ar           1 <1>                0.0000
     10 C10         30.7014  39.2365  36.3684 C.ar           1 <1>                0.0000
     11 C11         29.3726  39.6346  36.4799 C.ar           1 <1>                0.0000
     12 C12         28.4981  38.8920  37.2230 C.ar           1 <1>                0.0000
     13 C13         28.9825  37.7308  37.8535 C.ar           1 <1>                0.0000
     14 H14         27.9731  35.1831  39.8458 H              1 <1>                0.0000
     15 H15         30.3196  34.5268  39.6178 H              1 <1>                0.0000
     16 H16         32.6227  34.9226  38.7598 H              1 <1>                0.0000
     17 H17         31.3818  39.8327  35.7784 H              1 <1>                0.0000
     18 H18         29.0327  40.5297  35.9801 H              1 <1>                0.0000
     19 H19         27.4634  39.1861  37.3204 H              1 <1>                0.0000
@<TRIPOS>BOND
    1    1    2 1     
    2    2    3 ar    
    3    2   13 ar    
    4    3    4 ar    
    5    3   14 1     
    6    4    5 ar    
    7    4   15 1     
    8    5    6 1     
    9    5    8 ar    
   10    6    7 2     
   11    6   16 1     
   12    8    9 ar    
   13    8   13 ar    
   14    9   10 ar    
   15   10   11 ar    
   16   10   17 1     
   17   11   12 ar    
   18   11   18 1     
   19   12   13 ar    
   20   12   19 1     
@<TRIPOS>SUBSTRUCTURE
      1 ****           1
@<TRIPOS>COMMENT
> <Gold.Version>
2022.2.0

> <Gold.Id.Protein>
1qkm|1qkm_protein|mol2

> <Gold.Protein.RotatedTorsions>
[  496  491  490  487 ] final  118.58 input  -89.99 | X-H torsion

> <Gold.Protein.ActiveResidues>
 MET295  LEU298  THR299  LEU301  ALA302  GLU305  TRP335  MET336  LEU339  MET340 
 GLY342  LEU343  ARG346  PHE356  ILE373  ILE376  PHE377  LEU380  LYS471  GLY472 
 MET473  HIS475  LEU476  LEU477  ASN478  MET479  VAL484  VAL487 

> <Gold.Protein.RotatedAtoms>
   37.0695   32.9415   41.6393 H   0  0  0  0  0  0  0  0  0  0  0  0  # atno 496  bound_to 491 

> <Gold.Score>
     Score     S(PLP)   S(hbond)     S(cho)   S(metal)  DE(clash)   DE(tors)     intcor
     42.10     -42.11       0.00       0.00       0.00       0.00       0.00       0.00

> <Gold.PLP.Fitness>
42.1033

> <Gold.PLP.PLP>
-42.1077

> <Gold.PLP.part.hbond>
0.0000

> <Gold.PLP.part.metal>
0.0000

> <Gold.PLP.part.buried>
-2.2762

> <Gold.PLP.part.nonpolar>
-40.0200

> <Gold.PLP.part.repulsive>
0.0045

> <Gold.PLP.ligand.clash>
0.0000

> <Gold.PLP.ligand.torsion>
0.0022

> <Gold.PLP.Chemscore.Hbond>
0.0000

> <Gold.PLP.Chemscore.CHOScore>
0.0000

> <Gold.PLP.Chemscore.Metal>
0.0000

> <Gold.PLP.Chemscore.Internal.Correction>
0.0000

