#       Name:                EN300-75846_i001
#       Creating user name   aseyller
#       Creation time:       Fri Apr 21 18:01:17 2023


#       File generated by GOLD software.
#

@<TRIPOS>MOLECULE
EN300-75846_i001|benzaldehydes|mol2|405|dock14
    19    20     1
SMALL
USER_CHARGES


@<TRIPOS>ATOM
      1 Cl1         31.5012  34.3722  38.8011 Cl             1 <1>                0.0000
      2 C2          30.8079  35.8667  38.2540 C.ar           1 <1>                0.0000
      3 C3          31.5975  36.7890  37.6097 C.ar           1 <1>                0.0000
      4 C4          31.0844  37.9937  37.1571 C.ar           1 <1>                0.0000
      5 C5          29.7400  38.3080  37.3435 C.ar           1 <1>                0.0000
      6 C6          29.1985  39.5822  36.8639 C.2            1 <1>                0.0000
      7 O7          29.9132  40.3574  36.2634 O.2            1 <1>                0.0000
      8 C8          28.8779  37.3422  38.0265 C.ar           1 <1>                0.0000
      9 N9          27.5861  37.5931  38.2308 N.ar           1 <1>                0.0000
     10 C10         26.8118  36.7275  38.8439 C.ar           1 <1>                0.0000
     11 C11         27.3010  35.5103  39.3083 C.ar           1 <1>                0.0000
     12 C12         28.6184  35.1919  39.1302 C.ar           1 <1>                0.0000
     13 C13         29.4422  36.1213  38.4683 C.ar           1 <1>                0.0000
     14 H14         32.6433  36.5693  37.4528 H              1 <1>                0.0000
     15 H15         31.7331  38.6963  36.6551 H              1 <1>                0.0000
     16 H16         28.1634  39.8314  37.0448 H              1 <1>                0.0000
     17 H17         25.7689  36.9665  38.9915 H              1 <1>                0.0000
     18 H18         26.6406  34.8180  39.8093 H              1 <1>                0.0000
     19 H19         29.0151  34.2518  39.4841 H              1 <1>                0.0000
@<TRIPOS>BOND
    1    1    2 1     
    2    2    3 ar    
    3    2   13 ar    
    4    3    4 ar    
    5    3   14 1     
    6    4    5 ar    
    7    4   15 1     
    8    5    6 1     
    9    5    8 ar    
   10    6    7 2     
   11    6   16 1     
   12    8    9 ar    
   13    8   13 ar    
   14    9   10 ar    
   15   10   11 ar    
   16   10   17 1     
   17   11   12 ar    
   18   11   18 1     
   19   12   13 ar    
   20   12   19 1     
@<TRIPOS>SUBSTRUCTURE
      1 ****           1
@<TRIPOS>COMMENT
> <Gold.Version>
2022.2.0

> <Gold.Id.Protein>
1qkm|1qkm_protein|mol2

> <Gold.Protein.RotatedTorsions>
[  496  491  490  487 ] final  -58.71 input  -89.99 | X-H torsion

> <Gold.Protein.ActiveResidues>
 MET295  LEU298  THR299  LEU301  ALA302  GLU305  TRP335  MET336  LEU339  MET340 
 GLY342  LEU343  ARG346  PHE356  ILE373  ILE376  PHE377  LEU380  LYS471  GLY472 
 MET473  HIS475  LEU476  LEU477  ASN478  MET479  VAL484  VAL487 

> <Gold.Protein.RotatedAtoms>
   36.4871   34.7299   41.5034 H   0  0  0  0  0  0  0  0  0  0  0  0  # atno 496  bound_to 491 

> <Gold.Score>
     Score     S(PLP)   S(hbond)     S(cho)   S(metal)  DE(clash)   DE(tors)     intcor
     41.49     -41.50       0.00       0.00       0.00       0.00       0.00       0.00

> <Gold.PLP.Fitness>
41.4947

> <Gold.PLP.PLP>
-41.4970

> <Gold.PLP.part.hbond>
0.0000

> <Gold.PLP.part.metal>
0.0000

> <Gold.PLP.part.buried>
-2.3467

> <Gold.PLP.part.nonpolar>
-39.3542

> <Gold.PLP.part.repulsive>
0.0000

> <Gold.PLP.ligand.clash>
0.0000

> <Gold.PLP.ligand.torsion>
0.0011

> <Gold.PLP.Chemscore.Hbond>
0.0000

> <Gold.PLP.Chemscore.CHOScore>
0.0000

> <Gold.PLP.Chemscore.Metal>
0.0000

> <Gold.PLP.Chemscore.Internal.Correction>
0.0000

