#       Name:                EN300-75846_i001
#       Creating user name   aseyller
#       Creation time:       Fri Apr 21 18:01:16 2023


#       File generated by GOLD software.
#

@<TRIPOS>MOLECULE
EN300-75846_i001|benzaldehydes|mol2|405|dock11
    19    20     1
SMALL
USER_CHARGES


@<TRIPOS>ATOM
      1 Cl1         31.8221  38.4369  34.4592 Cl             1 <1>                0.0000
      2 C2          31.0233  37.9949  35.9357 C.ar           1 <1>                0.0000
      3 C3          30.0096  38.7837  36.4250 C.ar           1 <1>                0.0000
      4 C4          29.3461  38.4672  37.5993 C.ar           1 <1>                0.0000
      5 C5          29.6903  37.3289  38.3251 C.ar           1 <1>                0.0000
      6 C6          28.9874  36.9951  39.5666 C.2            1 <1>                0.0000
      7 O7          29.3625  36.0607  40.2437 O.2            1 <1>                0.0000
      8 C8          30.7664  36.4720  37.8248 C.ar           1 <1>                0.0000
      9 N9          31.1351  35.3728  38.4800 N.ar           1 <1>                0.0000
     10 C10         32.1007  34.6035  38.0324 C.ar           1 <1>                0.0000
     11 C11         32.7834  34.8978  36.8559 C.ar           1 <1>                0.0000
     12 C12         32.4533  36.0120  36.1360 C.ar           1 <1>                0.0000
     13 C13         31.4145  36.8299  36.6181 C.ar           1 <1>                0.0000
     14 H14         29.7236  39.6718  35.8810 H              1 <1>                0.0000
     15 H15         28.5543  39.1095  37.9559 H              1 <1>                0.0000
     16 H16         28.1355  37.5808  39.8791 H              1 <1>                0.0000
     17 H17         32.3720  33.7203  38.5915 H              1 <1>                0.0000
     18 H18         33.5736  34.2468  36.5122 H              1 <1>                0.0000
     19 H19         32.9724  36.2556  35.2209 H              1 <1>                0.0000
@<TRIPOS>BOND
    1    1    2 1     
    2    2    3 ar    
    3    2   13 ar    
    4    3    4 ar    
    5    3   14 1     
    6    4    5 ar    
    7    4   15 1     
    8    5    6 1     
    9    5    8 ar    
   10    6    7 2     
   11    6   16 1     
   12    8    9 ar    
   13    8   13 ar    
   14    9   10 ar    
   15   10   11 ar    
   16   10   17 1     
   17   11   12 ar    
   18   11   18 1     
   19   12   13 ar    
   20   12   19 1     
@<TRIPOS>SUBSTRUCTURE
      1 ****           1
@<TRIPOS>COMMENT
> <Gold.Version>
2022.2.0

> <Gold.Id.Protein>
1qkm|1qkm_protein|mol2

> <Gold.Protein.RotatedTorsions>
[  496  491  490  487 ] final  112.22 input  -89.99 | X-H torsion

> <Gold.Protein.ActiveResidues>
 MET295  LEU298  THR299  LEU301  ALA302  GLU305  TRP335  MET336  LEU339  MET340 
 GLY342  LEU343  ARG346  PHE356  ILE373  ILE376  PHE377  LEU380  LYS471  GLY472 
 MET473  HIS475  LEU476  LEU477  ASN478  MET479  VAL484  VAL487 

> <Gold.Protein.RotatedAtoms>
   37.0180   32.9403   41.7303 H   0  0  0  0  0  0  0  0  0  0  0  0  # atno 496  bound_to 491 

> <Gold.Score>
     Score     S(PLP)   S(hbond)     S(cho)   S(metal)  DE(clash)   DE(tors)     intcor
     40.48     -40.50       0.00       0.00       0.00       0.00       0.01       0.00

> <Gold.PLP.Fitness>
40.4847

> <Gold.PLP.PLP>
-40.4990

> <Gold.PLP.part.hbond>
0.0000

> <Gold.PLP.part.metal>
0.0000

> <Gold.PLP.part.buried>
-3.1367

> <Gold.PLP.part.nonpolar>
-37.8874

> <Gold.PLP.part.repulsive>
0.1665

> <Gold.PLP.ligand.clash>
0.0000

> <Gold.PLP.ligand.torsion>
0.0072

> <Gold.PLP.Chemscore.Hbond>
0.0000

> <Gold.PLP.Chemscore.CHOScore>
0.0000

> <Gold.PLP.Chemscore.Metal>
0.0000

> <Gold.PLP.Chemscore.Internal.Correction>
0.0000

