#       Name:                EN300-75846_i001
#       Creating user name   aseyller
#       Creation time:       Fri Apr 21 18:01:19 2023


#       File generated by GOLD software.
#

@<TRIPOS>MOLECULE
EN300-75846_i001|benzaldehydes|mol2|405|dock19
    19    20     1
SMALL
USER_CHARGES


@<TRIPOS>ATOM
      1 Cl1         33.5924  35.7968  36.5059 Cl             1 <1>                0.0000
      2 C2          32.1467  35.9851  37.4483 C.ar           1 <1>                0.0000
      3 C3          31.7698  34.9947  38.3237 C.ar           1 <1>                0.0000
      4 C4          30.6239  35.1049  39.0945 C.ar           1 <1>                0.0000
      5 C5          29.8127  36.2340  39.0039 C.ar           1 <1>                0.0000
      6 C6          28.6013  36.3494  39.8200 C.2            1 <1>                0.0000
      7 O7          28.3641  35.5210  40.6741 O.2            1 <1>                0.0000
      8 C8          30.1927  37.3032  38.0792 C.ar           1 <1>                0.0000
      9 N9          29.4526  38.4031  37.9537 N.ar           1 <1>                0.0000
     10 C10         29.7922  39.3628  37.1242 C.ar           1 <1>                0.0000
     11 C11         30.9378  39.2780  36.3386 C.ar           1 <1>                0.0000
     12 C12         31.7408  38.1748  36.4200 C.ar           1 <1>                0.0000
     13 C13         31.3743  37.1518  37.3143 C.ar           1 <1>                0.0000
     14 H14         32.3816  34.1091  38.4126 H              1 <1>                0.0000
     15 H15         30.3565  34.3075  39.7720 H              1 <1>                0.0000
     16 H16         27.9196  37.1719  39.6612 H              1 <1>                0.0000
     17 H17         29.1666  40.2400  37.0496 H              1 <1>                0.0000
     18 H18         31.1920  40.0829  35.6648 H              1 <1>                0.0000
     19 H19         32.6335  38.0922  35.8179 H              1 <1>                0.0000
@<TRIPOS>BOND
    1    1    2 1     
    2    2    3 ar    
    3    2   13 ar    
    4    3    4 ar    
    5    3   14 1     
    6    4    5 ar    
    7    4   15 1     
    8    5    6 1     
    9    5    8 ar    
   10    6    7 2     
   11    6   16 1     
   12    8    9 ar    
   13    8   13 ar    
   14    9   10 ar    
   15   10   11 ar    
   16   10   17 1     
   17   11   12 ar    
   18   11   18 1     
   19   12   13 ar    
   20   12   19 1     
@<TRIPOS>SUBSTRUCTURE
      1 ****           1
@<TRIPOS>COMMENT
> <Gold.Version>
2022.2.0

> <Gold.Id.Protein>
1qkm|1qkm_protein|mol2

> <Gold.Protein.RotatedTorsions>
[  496  491  490  487 ] final   43.94 input  -89.99 | X-H torsion

> <Gold.Protein.ActiveResidues>
 MET295  LEU298  THR299  LEU301  ALA302  GLU305  TRP335  MET336  LEU339  MET340 
 GLY342  LEU343  ARG346  PHE356  ILE373  ILE376  PHE377  LEU380  LYS471  GLY472 
 MET473  HIS475  LEU476  LEU477  ASN478  MET479  VAL484  VAL487 

> <Gold.Protein.RotatedAtoms>
   36.4297   33.5423   42.3723 H   0  0  0  0  0  0  0  0  0  0  0  0  # atno 496  bound_to 491 

> <Gold.Score>
     Score     S(PLP)   S(hbond)     S(cho)   S(metal)  DE(clash)   DE(tors)     intcor
     40.75     -40.77       0.00       0.00       0.00       0.00       0.01       0.00

> <Gold.PLP.Fitness>
40.7497

> <Gold.PLP.PLP>
-40.7721

> <Gold.PLP.part.hbond>
0.0000

> <Gold.PLP.part.metal>
0.0000

> <Gold.PLP.part.buried>
-1.1867

> <Gold.PLP.part.nonpolar>
-39.7722

> <Gold.PLP.part.repulsive>
0.1187

> <Gold.PLP.ligand.clash>
0.0000

> <Gold.PLP.ligand.torsion>
0.0112

> <Gold.PLP.Chemscore.Hbond>
0.0000

> <Gold.PLP.Chemscore.CHOScore>
0.0000

> <Gold.PLP.Chemscore.Metal>
0.0000

> <Gold.PLP.Chemscore.Internal.Correction>
0.0000

