#       Name:                EN300-75846_i001
#       Creating user name   aseyller
#       Creation time:       Fri Apr 21 18:01:17 2023


#       File generated by GOLD software.
#

@<TRIPOS>MOLECULE
EN300-75846_i001|benzaldehydes|mol2|405|dock13
    19    20     1
SMALL
USER_CHARGES


@<TRIPOS>ATOM
      1 Cl1         28.8013  36.7842  40.2500 Cl             1 <1>                0.0000
      2 C2          29.7138  37.0769  38.8025 C.ar           1 <1>                0.0000
      3 C3          29.5456  38.2565  38.1174 C.ar           1 <1>                0.0000
      4 C4          30.2538  38.5300  36.9584 C.ar           1 <1>                0.0000
      5 C5          31.1661  37.6083  36.4493 C.ar           1 <1>                0.0000
      6 C6          31.9147  37.8991  35.2237 C.2            1 <1>                0.0000
      7 O7          32.7112  37.0912  34.7934 O.2            1 <1>                0.0000
      8 C8          31.3638  36.3446  37.1608 C.ar           1 <1>                0.0000
      9 N9          32.2230  35.4291  36.7169 N.ar           1 <1>                0.0000
     10 C10         32.4009  34.2948  37.3542 C.ar           1 <1>                0.0000
     11 C11         31.7031  33.9947  38.5203 C.ar           1 <1>                0.0000
     12 C12         30.8060  34.8921  39.0285 C.ar           1 <1>                0.0000
     13 C13         30.6232  36.1080  38.3439 C.ar           1 <1>                0.0000
     14 H14         28.8442  38.9877  38.4914 H              1 <1>                0.0000
     15 H15         30.0968  39.4668  36.4444 H              1 <1>                0.0000
     16 H16         31.7576  38.8324  34.7036 H              1 <1>                0.0000
     17 H17         33.1064  33.5765  36.9634 H              1 <1>                0.0000
     18 H18         31.8698  33.0534  39.0229 H              1 <1>                0.0000
     19 H19         30.2558  34.6758  39.9324 H              1 <1>                0.0000
@<TRIPOS>BOND
    1    1    2 1     
    2    2    3 ar    
    3    2   13 ar    
    4    3    4 ar    
    5    3   14 1     
    6    4    5 ar    
    7    4   15 1     
    8    5    6 1     
    9    5    8 ar    
   10    6    7 2     
   11    6   16 1     
   12    8    9 ar    
   13    8   13 ar    
   14    9   10 ar    
   15   10   11 ar    
   16   10   17 1     
   17   11   12 ar    
   18   11   18 1     
   19   12   13 ar    
   20   12   19 1     
@<TRIPOS>SUBSTRUCTURE
      1 ****           1
@<TRIPOS>COMMENT
> <Gold.Version>
2022.2.0

> <Gold.Id.Protein>
1qkm|1qkm_protein|mol2

> <Gold.Protein.RotatedTorsions>
[  496  491  490  487 ] final   21.84 input  -89.99 | X-H torsion

> <Gold.Protein.ActiveResidues>
 MET295  LEU298  THR299  LEU301  ALA302  GLU305  TRP335  MET336  LEU339  MET340 
 GLY342  LEU343  ARG346  PHE356  ILE373  ILE376  PHE377  LEU380  LYS471  GLY472 
 MET473  HIS475  LEU476  LEU477  ASN478  MET479  VAL484  VAL487 

> <Gold.Protein.RotatedAtoms>
   36.3094   33.8832   42.3627 H   0  0  0  0  0  0  0  0  0  0  0  0  # atno 496  bound_to 491 

> <Gold.Score>
     Score     S(PLP)   S(hbond)     S(cho)   S(metal)  DE(clash)   DE(tors)     intcor
     40.99     -40.99       0.00       0.00       0.00       0.00       0.00       0.00

> <Gold.PLP.Fitness>
40.9883

> <Gold.PLP.PLP>
-40.9884

> <Gold.PLP.part.hbond>
0.0000

> <Gold.PLP.part.metal>
0.0000

> <Gold.PLP.part.buried>
-2.6743

> <Gold.PLP.part.nonpolar>
-38.7234

> <Gold.PLP.part.repulsive>
0.1601

> <Gold.PLP.ligand.clash>
0.0000

> <Gold.PLP.ligand.torsion>
0.0000

> <Gold.PLP.Chemscore.Hbond>
0.0000

> <Gold.PLP.Chemscore.CHOScore>
0.0000

> <Gold.PLP.Chemscore.Metal>
0.0000

> <Gold.PLP.Chemscore.Internal.Correction>
0.0000

