#       Name:                EN300-75846_i001
#       Creating user name   aseyller
#       Creation time:       Fri Apr 21 18:01:15 2023


#       File generated by GOLD software.
#

@<TRIPOS>MOLECULE
EN300-75846_i001|benzaldehydes|mol2|405|dock7
    19    20     1
SMALL
USER_CHARGES


@<TRIPOS>ATOM
      1 Cl1         26.6718  38.8121  37.2995 Cl             1 <1>                0.0000
      2 C2          28.0281  37.8343  37.7665 C.ar           1 <1>                0.0000
      3 C3          29.1766  37.8567  37.0118 C.ar           1 <1>                0.0000
      4 C4          30.2816  37.0920  37.3491 C.ar           1 <1>                0.0000
      5 C5          30.2604  36.2706  38.4741 C.ar           1 <1>                0.0000
      6 C6          31.4299  35.4628  38.8300 C.2            1 <1>                0.0000
      7 O7          32.3631  35.3743  38.0596 O.2            1 <1>                0.0000
      8 C8          29.0490  36.2293  39.2948 C.ar           1 <1>                0.0000
      9 N9          28.9758  35.4609  40.3799 N.ar           1 <1>                0.0000
     10 C10         27.8893  35.4228  41.1166 C.ar           1 <1>                0.0000
     11 C11         26.7655  36.1805  40.8009 C.ar           1 <1>                0.0000
     12 C12         26.7760  36.9901  39.6995 C.ar           1 <1>                0.0000
     13 C13         27.9448  37.0305  38.9166 C.ar           1 <1>                0.0000
     14 H14         29.2186  38.4854  36.1346 H              1 <1>                0.0000
     15 H15         31.1682  37.1329  36.7336 H              1 <1>                0.0000
     16 H16         31.4612  34.9461  39.7778 H              1 <1>                0.0000
     17 H17         27.8673  34.7871  41.9895 H              1 <1>                0.0000
     18 H18         25.8858  36.1287  41.4253 H              1 <1>                0.0000
     19 H19         25.9129  37.5850  39.4396 H              1 <1>                0.0000
@<TRIPOS>BOND
    1    1    2 1     
    2    2    3 ar    
    3    2   13 ar    
    4    3    4 ar    
    5    3   14 1     
    6    4    5 ar    
    7    4   15 1     
    8    5    6 1     
    9    5    8 ar    
   10    6    7 2     
   11    6   16 1     
   12    8    9 ar    
   13    8   13 ar    
   14    9   10 ar    
   15   10   11 ar    
   16   10   17 1     
   17   11   12 ar    
   18   11   18 1     
   19   12   13 ar    
   20   12   19 1     
@<TRIPOS>SUBSTRUCTURE
      1 ****           1
@<TRIPOS>COMMENT
> <Gold.Version>
2022.2.0

> <Gold.Id.Protein>
1qkm|1qkm_protein|mol2

> <Gold.Protein.RotatedTorsions>
[  496  491  490  487 ] final -137.98 input  -89.99 | X-H torsion

> <Gold.Protein.ActiveResidues>
 MET295  LEU298  THR299  LEU301  ALA302  GLU305  TRP335  MET336  LEU339  MET340 
 GLY342  LEU343  ARG346  PHE356  ILE373  ILE376  PHE377  LEU380  LYS471  GLY472 
 MET473  HIS475  LEU476  LEU477  ASN478  MET479  VAL484  VAL487 

> <Gold.Protein.RotatedAtoms>
   37.1608   34.1043   40.7271 H   0  0  0  0  0  0  0  0  0  0  0  0  # atno 496  bound_to 491 

> <Gold.Score>
     Score     S(PLP)   S(hbond)     S(cho)   S(metal)  DE(clash)   DE(tors)     intcor
     43.01     -40.07       0.00       0.99       0.00       0.00       0.02       0.00

> <Gold.PLP.Fitness>
43.0062

> <Gold.PLP.PLP>
-40.0679

> <Gold.PLP.part.hbond>
0.0000

> <Gold.PLP.part.metal>
0.0000

> <Gold.PLP.part.buried>
-2.9117

> <Gold.PLP.part.nonpolar>
-37.9125

> <Gold.PLP.part.repulsive>
0.1597

> <Gold.PLP.ligand.clash>
0.0000

> <Gold.PLP.ligand.torsion>
0.0191

> <Gold.PLP.Chemscore.Hbond>
0.0000

> <Gold.PLP.Chemscore.CHOScore>
0.9922

> <Gold.PLP.Chemscore.Metal>
0.0000

> <Gold.Chemscore.Hbonds>
donor molecule, donor type, donor heavy atom, donor atom, acceptor molecule, acceptor atom, score
      L1  C    10    17       P1   582  0.99

> <Gold.PLP.Chemscore.Internal.Correction>
0.0000

