#       Name:                EN300-75846_i001
#       Creating user name   aseyller
#       Creation time:       Fri Apr 21 18:01:13 2023


#       File generated by GOLD software.
#

@<TRIPOS>MOLECULE
EN300-75846_i001|benzaldehydes|mol2|405|dock1
    19    20     1
SMALL
USER_CHARGES


@<TRIPOS>ATOM
      1 Cl1         31.7510  34.0426  38.4968 Cl             1 <1>                0.0000
      2 C2          31.1869  35.6219  38.0481 C.ar           1 <1>                0.0000
      3 C3          30.1725  36.2122  38.7635 C.ar           1 <1>                0.0000
      4 C4          29.6928  37.4708  38.4390 C.ar           1 <1>                0.0000
      5 C5          30.2304  38.1815  37.3682 C.ar           1 <1>                0.0000
      6 C6          29.7225  39.5128  37.0265 C.2            1 <1>                0.0000
      7 O7          30.3024  40.1907  36.2041 O.2            1 <1>                0.0000
      8 C8          31.3121  37.5749  36.5908 C.ar           1 <1>                0.0000
      9 N9          31.8607  38.2110  35.5574 N.ar           1 <1>                0.0000
     10 C10         32.8310  37.6675  34.8590 C.ar           1 <1>                0.0000
     11 C11         33.3317  36.4051  35.1631 C.ar           1 <1>                0.0000
     12 C12         32.8116  35.6995  36.2120 C.ar           1 <1>                0.0000
     13 C13         31.7754  36.2891  36.9598 C.ar           1 <1>                0.0000
     14 H14         29.7387  35.6819  39.5983 H              1 <1>                0.0000
     15 H15         28.8940  37.9051  39.0219 H              1 <1>                0.0000
     16 H16         28.8319  39.8906  37.5066 H              1 <1>                0.0000
     17 H17         33.2508  38.2139  34.0274 H              1 <1>                0.0000
     18 H18         34.1301  35.9832  34.5707 H              1 <1>                0.0000
     19 H19         33.1881  34.7187  36.4622 H              1 <1>                0.0000
@<TRIPOS>BOND
    1    1    2 1     
    2    2    3 ar    
    3    2   13 ar    
    4    3    4 ar    
    5    3   14 1     
    6    4    5 ar    
    7    4   15 1     
    8    5    6 1     
    9    5    8 ar    
   10    6    7 2     
   11    6   16 1     
   12    8    9 ar    
   13    8   13 ar    
   14    9   10 ar    
   15   10   11 ar    
   16   10   17 1     
   17   11   12 ar    
   18   11   18 1     
   19   12   13 ar    
   20   12   19 1     
@<TRIPOS>SUBSTRUCTURE
      1 ****           1
@<TRIPOS>COMMENT
> <Gold.Version>
2022.2.0

> <Gold.Id.Protein>
1qkm|1qkm_protein|mol2

> <Gold.Protein.RotatedTorsions>
[  496  491  490  487 ] final  127.24 input  -89.99 | X-H torsion

> <Gold.Protein.ActiveResidues>
 MET295  LEU298  THR299  LEU301  ALA302  GLU305  TRP335  MET336  LEU339  MET340 
 GLY342  LEU343  ARG346  PHE356  ILE373  ILE376  PHE377  LEU380  LYS471  GLY472 
 MET473  HIS475  LEU476  LEU477  ASN478  MET479  VAL484  VAL487 

> <Gold.Protein.RotatedAtoms>
   37.1340   32.9607   41.5137 H   0  0  0  0  0  0  0  0  0  0  0  0  # atno 496  bound_to 491 

> <Gold.Score>
     Score     S(PLP)   S(hbond)     S(cho)   S(metal)  DE(clash)   DE(tors)     intcor
     48.08     -45.11       0.00       1.00       0.00       0.00       0.02       0.00

> <Gold.PLP.Fitness>
48.0756

> <Gold.PLP.PLP>
-45.1139

> <Gold.PLP.part.hbond>
0.0000

> <Gold.PLP.part.metal>
0.0000

> <Gold.PLP.part.buried>
-3.3980

> <Gold.PLP.part.nonpolar>
-42.4169

> <Gold.PLP.part.repulsive>
0.0349

> <Gold.PLP.ligand.clash>
0.0000

> <Gold.PLP.ligand.torsion>
0.0191

> <Gold.PLP.Chemscore.Hbond>
0.0000

> <Gold.PLP.Chemscore.CHOScore>
1.0000

> <Gold.PLP.Chemscore.Metal>
0.0000

> <Gold.Chemscore.Hbonds>
donor molecule, donor type, donor heavy atom, donor atom, acceptor molecule, acceptor atom, score
      L1  C    10    17       P1  3229  1.00

> <Gold.PLP.Chemscore.Internal.Correction>
0.0000

