#       Name:                EN300-75846_i001
#       Creating user name   aseyller
#       Creation time:       Fri Apr 21 18:01:16 2023


#       File generated by GOLD software.
#

@<TRIPOS>MOLECULE
EN300-75846_i001|benzaldehydes|mol2|405|dock8
    19    20     1
SMALL
USER_CHARGES


@<TRIPOS>ATOM
      1 Cl1         33.6999  36.7088  34.6822 Cl             1 <1>                0.0000
      2 C2          32.1852  37.2026  35.3717 C.ar           1 <1>                0.0000
      3 C3          31.3996  38.1150  34.7088 C.ar           1 <1>                0.0000
      4 C4          30.1842  38.5359  35.2237 C.ar           1 <1>                0.0000
      5 C5          29.7186  38.0413  36.4401 C.ar           1 <1>                0.0000
      6 C6          28.4328  38.4869  36.9833 C.2            1 <1>                0.0000
      7 O7          27.9331  37.8986  37.9195 O.2            1 <1>                0.0000
      8 C8          30.5366  37.0681  37.1655 C.ar           1 <1>                0.0000
      9 N9          30.1385  36.5644  38.3322 N.ar           1 <1>                0.0000
     10 C10         30.8718  35.6915  38.9841 C.ar           1 <1>                0.0000
     11 C11         32.0960  35.2516  38.4898 C.ar           1 <1>                0.0000
     12 C12         32.5619  35.7302  37.2971 C.ar           1 <1>                0.0000
     13 C13         31.7695  36.6617  36.6007 C.ar           1 <1>                0.0000
     14 H14         31.7380  38.5137  33.7638 H              1 <1>                0.0000
     15 H15         29.5919  39.2547  34.6770 H              1 <1>                0.0000
     16 H16         27.9298  39.3389  36.5504 H              1 <1>                0.0000
     17 H17         30.5158  35.3054  39.9278 H              1 <1>                0.0000
     18 H18         32.6778  34.5331  39.0481 H              1 <1>                0.0000
     19 H19         33.5097  35.3998  36.8985 H              1 <1>                0.0000
@<TRIPOS>BOND
    1    1    2 1     
    2    2    3 ar    
    3    2   13 ar    
    4    3    4 ar    
    5    3   14 1     
    6    4    5 ar    
    7    4   15 1     
    8    5    6 1     
    9    5    8 ar    
   10    6    7 2     
   11    6   16 1     
   12    8    9 ar    
   13    8   13 ar    
   14    9   10 ar    
   15   10   11 ar    
   16   10   17 1     
   17   11   12 ar    
   18   11   18 1     
   19   12   13 ar    
   20   12   19 1     
@<TRIPOS>SUBSTRUCTURE
      1 ****           1
@<TRIPOS>COMMENT
> <Gold.Version>
2022.2.0

> <Gold.Id.Protein>
1qkm|1qkm_protein|mol2

> <Gold.Protein.RotatedTorsions>
[  496  491  490  487 ] final  -18.66 input  -89.99 | X-H torsion

> <Gold.Protein.ActiveResidues>
 MET295  LEU298  THR299  LEU301  ALA302  GLU305  TRP335  MET336  LEU339  MET340 
 GLY342  LEU343  ARG346  PHE356  ILE373  ILE376  PHE377  LEU380  LYS471  GLY472 
 MET473  HIS475  LEU476  LEU477  ASN478  MET479  VAL484  VAL487 

> <Gold.Protein.RotatedAtoms>
   36.2775   34.4549   42.0488 H   0  0  0  0  0  0  0  0  0  0  0  0  # atno 496  bound_to 491 

> <Gold.Score>
     Score     S(PLP)   S(hbond)     S(cho)   S(metal)  DE(clash)   DE(tors)     intcor
     43.16     -40.44       0.00       0.93       0.00       0.00       0.03       0.00

> <Gold.PLP.Fitness>
43.1609

> <Gold.PLP.PLP>
-40.4384

> <Gold.PLP.part.hbond>
0.0000

> <Gold.PLP.part.metal>
0.0000

> <Gold.PLP.part.buried>
-0.5389

> <Gold.PLP.part.nonpolar>
-39.7935

> <Gold.PLP.part.repulsive>
0.0325

> <Gold.PLP.ligand.clash>
0.0000

> <Gold.PLP.ligand.torsion>
0.0329

> <Gold.PLP.Chemscore.Hbond>
0.0000

> <Gold.PLP.Chemscore.CHOScore>
0.9294

> <Gold.PLP.Chemscore.Metal>
0.0000

> <Gold.Chemscore.Hbonds>
donor molecule, donor type, donor heavy atom, donor atom, acceptor molecule, acceptor atom, score
      L1  C    10    17       P1   470  0.93

> <Gold.PLP.Chemscore.Internal.Correction>
0.0000

