#       Name:                EN300-75846_i001
#       Creating user name   aseyller
#       Creation time:       Fri Apr 21 18:01:18 2023


#       File generated by GOLD software.
#

@<TRIPOS>MOLECULE
EN300-75846_i001|benzaldehydes|mol2|405|dock16
    19    20     1
SMALL
USER_CHARGES


@<TRIPOS>ATOM
      1 Cl1         33.0423  36.6767  35.5415 Cl             1 <1>                0.0000
      2 C2          31.8855  36.4813  36.8210 C.ar           1 <1>                0.0000
      3 C3          32.0880  35.5198  37.7821 C.ar           1 <1>                0.0000
      4 C4          31.1899  35.3308  38.8200 C.ar           1 <1>                0.0000
      5 C5          30.0447  36.1178  38.9207 C.ar           1 <1>                0.0000
      6 C6          29.0961  35.9171  40.0191 C.2            1 <1>                0.0000
      7 O7          28.0028  36.4420  39.9800 O.2            1 <1>                0.0000
      8 C8          29.8065  37.1492  37.9097 C.ar           1 <1>                0.0000
      9 N9          28.7276  37.9282  37.9589 N.ar           1 <1>                0.0000
     10 C10         28.5125  38.8536  37.0521 C.ar           1 <1>                0.0000
     11 C11         29.3980  39.0648  35.9996 C.ar           1 <1>                0.0000
     12 C12         30.5248  38.2985  35.8917 C.ar           1 <1>                0.0000
     13 C13         30.7524  37.3117  36.8690 C.ar           1 <1>                0.0000
     14 H14         32.9682  34.8965  37.7267 H              1 <1>                0.0000
     15 H15         31.3793  34.5656  39.5583 H              1 <1>                0.0000
     16 H16         29.3699  35.3021  40.8636 H              1 <1>                0.0000
     17 H17         27.6260  39.4660  37.1251 H              1 <1>                0.0000
     18 H18         29.1950  39.8332  35.2682 H              1 <1>                0.0000
     19 H19         31.2229  38.4487  35.0815 H              1 <1>                0.0000
@<TRIPOS>BOND
    1    1    2 1     
    2    2    3 ar    
    3    2   13 ar    
    4    3    4 ar    
    5    3   14 1     
    6    4    5 ar    
    7    4   15 1     
    8    5    6 1     
    9    5    8 ar    
   10    6    7 2     
   11    6   16 1     
   12    8    9 ar    
   13    8   13 ar    
   14    9   10 ar    
   15   10   11 ar    
   16   10   17 1     
   17   11   12 ar    
   18   11   18 1     
   19   12   13 ar    
   20   12   19 1     
@<TRIPOS>SUBSTRUCTURE
      1 ****           1
@<TRIPOS>COMMENT
> <Gold.Version>
2022.2.0

> <Gold.Id.Protein>
1qkm|1qkm_protein|mol2

> <Gold.Protein.RotatedTorsions>
[  496  491  490  487 ] final  179.77 input  -89.99 | X-H torsion

> <Gold.Protein.ActiveResidues>
 MET295  LEU298  THR299  LEU301  ALA302  GLU305  TRP335  MET336  LEU339  MET340 
 GLY342  LEU343  ARG346  PHE356  ILE373  ILE376  PHE377  LEU380  LYS471  GLY472 
 MET473  HIS475  LEU476  LEU477  ASN478  MET479  VAL484  VAL487 

> <Gold.Protein.RotatedAtoms>
   37.3180   33.4584   40.8693 H   0  0  0  0  0  0  0  0  0  0  0  0  # atno 496  bound_to 491 

> <Gold.Score>
     Score     S(PLP)   S(hbond)     S(cho)   S(metal)  DE(clash)   DE(tors)     intcor
     40.42     -40.48       0.00       0.00       0.00       0.00       0.03       0.00

> <Gold.PLP.Fitness>
40.4154

> <Gold.PLP.PLP>
-40.4836

> <Gold.PLP.part.hbond>
0.0000

> <Gold.PLP.part.metal>
0.0000

> <Gold.PLP.part.buried>
-1.7682

> <Gold.PLP.part.nonpolar>
-39.0950

> <Gold.PLP.part.repulsive>
0.0360

> <Gold.PLP.ligand.clash>
0.0000

> <Gold.PLP.ligand.torsion>
0.0341

> <Gold.PLP.Chemscore.Hbond>
0.0000

> <Gold.PLP.Chemscore.CHOScore>
0.0000

> <Gold.PLP.Chemscore.Metal>
0.0000

> <Gold.PLP.Chemscore.Internal.Correction>
0.0000

