#       Name:                EN300-75846_i001
#       Creating user name   aseyller
#       Creation time:       Fri Apr 21 18:01:15 2023


#       File generated by GOLD software.
#

@<TRIPOS>MOLECULE
EN300-75846_i001|benzaldehydes|mol2|405|dock5
    19    20     1
SMALL
USER_CHARGES


@<TRIPOS>ATOM
      1 Cl1         29.2020  36.3979  40.1264 Cl             1 <1>                0.0000
      2 C2          30.3470  36.4251  38.8218 C.ar           1 <1>                0.0000
      3 C3          31.3207  35.4578  38.7491 C.ar           1 <1>                0.0000
      4 C4          32.2536  35.4428  37.7249 C.ar           1 <1>                0.0000
      5 C5          32.2313  36.4170  36.7293 C.ar           1 <1>                0.0000
      6 C6          33.2183  36.3997  35.6465 C.2            1 <1>                0.0000
      7 O7          33.1154  37.1756  34.7195 O.2            1 <1>                0.0000
      8 C8          31.2038  37.4581  36.7840 C.ar           1 <1>                0.0000
      9 N9          31.1381  38.4129  35.8581 N.ar           1 <1>                0.0000
     10 C10         30.2169  39.3477  35.9064 C.ar           1 <1>                0.0000
     11 C11         29.2678  39.3862  36.9234 C.ar           1 <1>                0.0000
     12 C12         29.2806  38.4349  37.9049 C.ar           1 <1>                0.0000
     13 C13         30.2671  37.4330  37.8452 C.ar           1 <1>                0.0000
     14 H14         31.3596  34.6911  39.5088 H              1 <1>                0.0000
     15 H15         33.0059  34.6683  37.6983 H              1 <1>                0.0000
     16 H16         34.0373  35.6962  35.6736 H              1 <1>                0.0000
     17 H17         30.1955  40.1057  35.1374 H              1 <1>                0.0000
     18 H18         28.5221  40.1674  36.9376 H              1 <1>                0.0000
     19 H19         28.5517  38.4495  38.7017 H              1 <1>                0.0000
@<TRIPOS>BOND
    1    1    2 1     
    2    2    3 ar    
    3    2   13 ar    
    4    3    4 ar    
    5    3   14 1     
    6    4    5 ar    
    7    4   15 1     
    8    5    6 1     
    9    5    8 ar    
   10    6    7 2     
   11    6   16 1     
   12    8    9 ar    
   13    8   13 ar    
   14    9   10 ar    
   15   10   11 ar    
   16   10   17 1     
   17   11   12 ar    
   18   11   18 1     
   19   12   13 ar    
   20   12   19 1     
@<TRIPOS>SUBSTRUCTURE
      1 ****           1
@<TRIPOS>COMMENT
> <Gold.Version>
2022.2.0

> <Gold.Id.Protein>
1qkm|1qkm_protein|mol2

> <Gold.Protein.RotatedTorsions>
[  496  491  490  487 ] final    3.06 input  -89.99 | X-H torsion

> <Gold.Protein.ActiveResidues>
 MET295  LEU298  THR299  LEU301  ALA302  GLU305  TRP335  MET336  LEU339  MET340 
 GLY342  LEU343  ARG346  PHE356  ILE373  ILE376  PHE377  LEU380  LYS471  GLY472 
 MET473  HIS475  LEU476  LEU477  ASN478  MET479  VAL484  VAL487 

> <Gold.Protein.RotatedAtoms>
   36.2622   34.1695   42.2603 H   0  0  0  0  0  0  0  0  0  0  0  0  # atno 496  bound_to 491 

> <Gold.Score>
     Score     S(PLP)   S(hbond)     S(cho)   S(metal)  DE(clash)   DE(tors)     intcor
     42.42     -42.44       0.00       0.00       0.00       0.00       0.01       0.00

> <Gold.PLP.Fitness>
42.4155

> <Gold.PLP.PLP>
-42.4371

> <Gold.PLP.part.hbond>
0.0000

> <Gold.PLP.part.metal>
0.0000

> <Gold.PLP.part.buried>
-3.0080

> <Gold.PLP.part.nonpolar>
-39.5278

> <Gold.PLP.part.repulsive>
0.1639

> <Gold.PLP.ligand.clash>
0.0000

> <Gold.PLP.ligand.torsion>
0.0108

> <Gold.PLP.Chemscore.Hbond>
0.0000

> <Gold.PLP.Chemscore.CHOScore>
0.0000

> <Gold.PLP.Chemscore.Metal>
0.0000

> <Gold.PLP.Chemscore.Internal.Correction>
0.0000

