#       Name:                EN300-75846_i001
#       Creating user name   aseyller
#       Creation time:       Fri Apr 21 18:01:14 2023


#       File generated by GOLD software.
#

@<TRIPOS>MOLECULE
EN300-75846_i001|benzaldehydes|mol2|405|dock3
    19    20     1
SMALL
USER_CHARGES


@<TRIPOS>ATOM
      1 Cl1         33.5990  36.6870  34.9122 Cl             1 <1>                0.0000
      2 C2          32.5094  36.5517  36.2569 C.ar           1 <1>                0.0000
      3 C3          32.5964  35.4686  37.0986 C.ar           1 <1>                0.0000
      4 C4          31.7466  35.3220  38.1829 C.ar           1 <1>                0.0000
      5 C5          30.7701  36.2779  38.4544 C.ar           1 <1>                0.0000
      6 C6          29.8723  36.1219  39.6018 C.2            1 <1>                0.0000
      7 O7          29.0520  36.9804  39.8514 O.2            1 <1>                0.0000
      8 C8          30.6573  37.4411  37.5731 C.ar           1 <1>                0.0000
      9 N9          29.7412  38.3836  37.7872 N.ar           1 <1>                0.0000
     10 C10         29.6388  39.4274  36.9970 C.ar           1 <1>                0.0000
     11 C11         30.4793  39.5995  35.9013 C.ar           1 <1>                0.0000
     12 C12         31.4410  38.6678  35.6262 C.ar           1 <1>                0.0000
     13 C13         31.5491  37.5538  36.4794 C.ar           1 <1>                0.0000
     14 H14         33.3451  34.7134  36.9098 H              1 <1>                0.0000
     15 H15         31.8419  34.4581  38.8240 H              1 <1>                0.0000
     16 H16         29.9408  35.2428  40.2254 H              1 <1>                0.0000
     17 H17         28.8830  40.1710  37.2025 H              1 <1>                0.0000
     18 H18         30.3716  40.4681  35.2684 H              1 <1>                0.0000
     19 H19         32.1019  38.7853  34.7802 H              1 <1>                0.0000
@<TRIPOS>BOND
    1    1    2 1     
    2    2    3 ar    
    3    2   13 ar    
    4    3    4 ar    
    5    3   14 1     
    6    4    5 ar    
    7    4   15 1     
    8    5    6 1     
    9    5    8 ar    
   10    6    7 2     
   11    6   16 1     
   12    8    9 ar    
   13    8   13 ar    
   14    9   10 ar    
   15   10   11 ar    
   16   10   17 1     
   17   11   12 ar    
   18   11   18 1     
   19   12   13 ar    
   20   12   19 1     
@<TRIPOS>SUBSTRUCTURE
      1 ****           1
@<TRIPOS>COMMENT
> <Gold.Version>
2022.2.0

> <Gold.Id.Protein>
1qkm|1qkm_protein|mol2

> <Gold.Protein.RotatedTorsions>
[  496  491  490  487 ] final  115.79 input  -89.99 | X-H torsion

> <Gold.Protein.ActiveResidues>
 MET295  LEU298  THR299  LEU301  ALA302  GLU305  TRP335  MET336  LEU339  MET340 
 GLY342  LEU343  ARG346  PHE356  ILE373  ILE376  PHE377  LEU380  LYS471  GLY472 
 MET473  HIS475  LEU476  LEU477  ASN478  MET479  VAL484  VAL487 

> <Gold.Protein.RotatedAtoms>
   37.0473   32.9396   41.6794 H   0  0  0  0  0  0  0  0  0  0  0  0  # atno 496  bound_to 491 

> <Gold.Score>
     Score     S(PLP)   S(hbond)     S(cho)   S(metal)  DE(clash)   DE(tors)     intcor
     43.43     -43.43       0.00       0.00       0.00       0.00       0.00       0.00

> <Gold.PLP.Fitness>
43.4269

> <Gold.PLP.PLP>
-43.4291

> <Gold.PLP.part.hbond>
0.0000

> <Gold.PLP.part.metal>
0.0000

> <Gold.PLP.part.buried>
-2.7425

> <Gold.PLP.part.nonpolar>
-41.1014

> <Gold.PLP.part.repulsive>
0.0513

> <Gold.PLP.ligand.clash>
0.0000

> <Gold.PLP.ligand.torsion>
0.0011

> <Gold.PLP.Chemscore.Hbond>
0.0000

> <Gold.PLP.Chemscore.CHOScore>
0.0000

> <Gold.PLP.Chemscore.Metal>
0.0000

> <Gold.PLP.Chemscore.Internal.Correction>
0.0000

