#       Name:                plp ligand
#       Creating user name   aseyller
#       Creation time:       Fri Apr 21 18:01:13 2023


#       File generated by GOLD software.
#

@<TRIPOS>MOLECULE
plp ligand
    19    20     1
SMALL
USER_CHARGES


@<TRIPOS>ATOM
      1 Cl1         -3.1454   1.5457  -0.0003 NONPOLAR       1 <1>                0.0000
      2 C2          -1.4356   1.2454  -0.0005 NONPOLAR       1 <1>                0.0000
      3 C3          -0.5577   2.3030  -0.0003 NONPOLAR       1 <1>                0.0000
      4 C4           0.8139   2.1076  -0.0004 NONPOLAR       1 <1>                0.0000
      5 C5           1.3481   0.8209  -0.0003 NONPOLAR       1 <1>                0.0000
      6 C6           2.7989   0.6157   0.0001 NONPOLAR       1 <1>                0.0000
      7 O7           3.5467   1.5712   0.0003 ACCEPTOR       1 <1>                0.0000
      8 C8           0.4341  -0.3224   0.0000 NONPOLAR       1 <1>                0.0000
      9 N9           0.8922  -1.5728  -0.0004 ACCEPTOR       1 <1>                0.0000
     10 C10          0.0731  -2.5993  -0.0006 NONPOLAR       1 <1>                0.0000
     11 C11         -1.3084  -2.4316  -0.0003 NONPOLAR       1 <1>                0.0000
     12 C12         -1.8429  -1.1735   0.0000 NONPOLAR       1 <1>                0.0000
     13 C13         -0.9602  -0.0774   0.0051 NONPOLAR       1 <1>                0.0000
     14 H14         -0.9465   3.3106  -0.0004                1 <1>                0.0000
     15 H15          1.4756   2.9612  -0.0009                1 <1>                0.0000
     16 H16          3.2026  -0.3860   0.0002                1 <1>                0.0000
     17 H17          0.4820  -3.5989  -0.0012                1 <1>                0.0000
     18 H18         -1.9577  -3.2947  -0.0008                1 <1>                0.0000
     19 H19         -2.9126  -1.0248   0.0003                1 <1>                0.0000
@<TRIPOS>BOND
    1    1    2 1     
    2    2    3 ar    
    3    2   13 ar    
    4    3    4 ar    
    5    3   14 1     
    6    4    5 ar    
    7    4   15 1     
    8    5    6 1     
    9    5    8 ar    
   10    6    7 2     
   11    6   16 1     
   12    8    9 ar    
   13    8   13 ar    
   14    9   10 ar    
   15   10   11 ar    
   16   10   17 1     
   17   11   12 ar    
   18   11   18 1     
   19   12   13 ar    
   20   12   19 1     
@<TRIPOS>SUBSTRUCTURE
      1 ****           1
@<TRIPOS>SET
DONOR_HYDROGENS      STATIC     ATOMS    <user>   **** ""
0
ATOM$RED        STATIC     ATOMS    COLORGROUP SYSTEM
0
