#       Name:                EN300-125264_i004
#       Creating user name   aseyller
#       Creation time:       Fri Apr 21 16:45:20 2023


#       File generated by GOLD software.
#

@<TRIPOS>MOLECULE
EN300-125264_i004|Sulfonylchlorides|mol2|73|dock11
    27    27     1
SMALL
USER_CHARGES


@<TRIPOS>ATOM
      1 C1          30.5001  34.2599  38.5373 C.3            1 <1>                0.0000
      2 O2          30.8333  35.6140  38.1329 O.3            1 <1>                0.0000
      3 C3          32.0043  35.7905  37.5008 C.2            1 <1>                0.0000
      4 O4          32.6334  34.8334  37.1160 O.2            1 <1>                0.0000
      5 C5          32.5343  37.1825  37.2711 C.3            1 <1>                0.0000
      6 C6          33.8795  37.1029  36.5467 C.3            1 <1>                0.0000
      7 C7          33.6932  36.3996  35.2007 C.3            1 <1>                0.0000
      8 C8          32.6996  37.1891  34.3460 C.3            1 <1>                0.0000
      9 C9          31.3543  37.2687  35.0705 C.3            1 <1>                0.0000
     10 C10         31.5407  37.9720  36.4165 C.3            1 <1>                0.0000
     11 S11         29.9458  38.0663  37.2754 S.o2           1 <1>                0.0000
     12 O12         28.9675  37.2902  36.5973 O.2            1 <1>                0.0000
     13 O13         30.1281  37.9505  38.6799 O.2            1 <1>                0.0000
     14 Cl14        29.3410  39.9750  37.0073 Cl             1 <1>                0.0000
     15 H15         29.5308  34.2578  39.0357 H              1 <1>                0.0000
     16 H16         30.4577  33.6180  37.6574 H              1 <1>                0.0000
     17 H17         31.2618  33.8875  39.2224 H              1 <1>                0.0000
     18 H18         32.6671  37.6835  38.2300 H              1 <1>                0.0000
     19 H19         34.2629  38.1096  36.3806 H              1 <1>                0.0000
     20 H20         34.5874  36.5404  37.1555 H              1 <1>                0.0000
     21 H21         34.6515  36.3428  34.6846 H              1 <1>                0.0000
     22 H22         33.3097  35.3928  35.3668 H              1 <1>                0.0000
     23 H23         33.0829  38.1959  34.1800 H              1 <1>                0.0000
     24 H24         32.5668  36.6881  33.3872 H              1 <1>                0.0000
     25 H25         30.6465  37.8312  34.4617 H              1 <1>                0.0000
     26 H26         30.9709  36.2619  35.2366 H              1 <1>                0.0000
     27 H27         31.9240  38.9787  36.2504 H              1 <1>                0.0000
@<TRIPOS>BOND
    1    1    2 1     
    2    1   15 1     
    3    1   16 1     
    4    1   17 1     
    5    2    3 1     
    6    3    4 2     
    7    3    5 1     
    8    5    6 1     
    9    5   10 1     
   10    5   18 1     
   11    6    7 1     
   12    6   19 1     
   13    6   20 1     
   14    7    8 1     
   15    7   21 1     
   16    7   22 1     
   17    8    9 1     
   18    8   23 1     
   19    8   24 1     
   20    9   10 1     
   21    9   25 1     
   22    9   26 1     
   23   10   11 1     
   24   10   27 1     
   25   11   12 2     
   26   11   13 2     
   27   11   14 1     
@<TRIPOS>SUBSTRUCTURE
      1 ****           1
@<TRIPOS>COMMENT
> <Gold.Version>
2022.2.0

> <Gold.Id.Protein>
1qkm|1qkm_protein|mol2

> <Gold.Protein.RotatedTorsions>
[  496  491  490  487 ] final -173.83 input  -89.99 | X-H torsion

> <Gold.Protein.ActiveResidues>
 MET295  LEU298  THR299  LEU301  ALA302  GLU305  TRP335  MET336  LEU339  MET340 
 GLY342  LEU343  ARG346  PHE356  ILE373  ILE376  PHE377  LEU380  LYS471  GLY472 
 MET473  HIS475  LEU476  LEU477  ASN478  MET479  VAL484  VAL487 

> <Gold.Protein.RotatedAtoms>
   37.3114   33.5515   40.8206 H   0  0  0  0  0  0  0  0  0  0  0  0  # atno 496  bound_to 491 

> <Gold.Score>
     Score     S(PLP)   S(hbond)     S(cho)   S(metal)  DE(clash)   DE(tors)     intcor
     29.16     -32.62       0.00       0.00       0.00       2.27       0.78       0.38

> <Gold.PLP.Fitness>
29.1576

> <Gold.PLP.PLP>
-32.6192

> <Gold.PLP.part.hbond>
0.0000

> <Gold.PLP.part.metal>
0.0000

> <Gold.PLP.part.buried>
-2.3028

> <Gold.PLP.part.nonpolar>
-30.7983

> <Gold.PLP.part.repulsive>
0.0586

> <Gold.PLP.ligand.clash>
2.2745

> <Gold.PLP.ligand.torsion>
0.7826

> <Gold.PLP.Chemscore.Hbond>
0.0000

> <Gold.PLP.Chemscore.CHOScore>
0.0000

> <Gold.PLP.Chemscore.Metal>
0.0000

> <Gold.PLP.Chemscore.Internal.Correction>
0.3780

