#       Name:                EN300-125264_i004
#       Creating user name   aseyller
#       Creation time:       Fri Apr 21 16:45:25 2023


#       File generated by GOLD software.
#

@<TRIPOS>MOLECULE
EN300-125264_i004|Sulfonylchlorides|mol2|73|dock18
    27    27     1
SMALL
USER_CHARGES


@<TRIPOS>ATOM
      1 C1          26.6332  36.1899  38.4666 C.3            1 <1>                0.0000
      2 O2          27.9642  36.3575  39.0222 O.3            1 <1>                0.0000
      3 C3          28.9211  36.7973  38.1900 C.2            1 <1>                0.0000
      4 O4          28.6742  36.9619  37.0187 O.2            1 <1>                0.0000
      5 C5          30.3035  37.0857  38.7164 C.3            1 <1>                0.0000
      6 C6          30.8398  35.8515  39.4445 C.3            1 <1>                0.0000
      7 C7          30.9002  34.6718  38.4720 C.3            1 <1>                0.0000
      8 C8          31.8278  35.0192  37.3059 C.3            1 <1>                0.0000
      9 C9          31.2915  36.2533  36.5778 C.3            1 <1>                0.0000
     10 C10         31.2311  37.4330  37.5502 C.3            1 <1>                0.0000
     11 S11         30.5952  38.8963  36.6870 S.o2           1 <1>                0.0000
     12 O12         29.3976  39.3551  37.2989 O.2            1 <1>                0.0000
     13 O13         31.6532  39.7948  36.3828 O.2            1 <1>                0.0000
     14 Cl14        29.9997  38.2002  34.8866 Cl             1 <1>                0.0000
     15 H15         25.9580  35.8306  39.2431 H              1 <1>                0.0000
     16 H16         26.2747  37.1470  38.0876 H              1 <1>                0.0000
     17 H17         26.6680  35.4665  37.6520 H              1 <1>                0.0000
     18 H18         30.2604  37.9261  39.4092 H              1 <1>                0.0000
     19 H19         31.8395  36.0601  39.8252 H              1 <1>                0.0000
     20 H20         30.1789  35.6041  40.2752 H              1 <1>                0.0000
     21 H21         31.2822  33.7925  38.9907 H              1 <1>                0.0000
     22 H22         29.9003  34.4632  38.0913 H              1 <1>                0.0000
     23 H23         32.8276  35.2279  37.6867 H              1 <1>                0.0000
     24 H24         31.8708  34.1787  36.6131 H              1 <1>                0.0000
     25 H25         31.9523  36.5009  35.7470 H              1 <1>                0.0000
     26 H26         30.2917  36.0447  36.1970 H              1 <1>                0.0000
     27 H27         32.2308  37.6417  37.9309 H              1 <1>                0.0000
@<TRIPOS>BOND
    1    1    2 1     
    2    1   15 1     
    3    1   16 1     
    4    1   17 1     
    5    2    3 1     
    6    3    4 2     
    7    3    5 1     
    8    5    6 1     
    9    5   10 1     
   10    5   18 1     
   11    6    7 1     
   12    6   19 1     
   13    6   20 1     
   14    7    8 1     
   15    7   21 1     
   16    7   22 1     
   17    8    9 1     
   18    8   23 1     
   19    8   24 1     
   20    9   10 1     
   21    9   25 1     
   22    9   26 1     
   23   10   11 1     
   24   10   27 1     
   25   11   12 2     
   26   11   13 2     
   27   11   14 1     
@<TRIPOS>SUBSTRUCTURE
      1 ****           1
@<TRIPOS>COMMENT
> <Gold.Version>
2022.2.0

> <Gold.Id.Protein>
1qkm|1qkm_protein|mol2

> <Gold.Protein.RotatedTorsions>
[  496  491  490  487 ] final -140.83 input  -89.99 | X-H torsion

> <Gold.Protein.ActiveResidues>
 MET295  LEU298  THR299  LEU301  ALA302  GLU305  TRP335  MET336  LEU339  MET340 
 GLY342  LEU343  ARG346  PHE356  ILE373  ILE376  PHE377  LEU380  LYS471  GLY472 
 MET473  HIS475  LEU476  LEU477  ASN478  MET479  VAL484  VAL487 

> <Gold.Protein.RotatedAtoms>
   37.1791   34.0613   40.7228 H   0  0  0  0  0  0  0  0  0  0  0  0  # atno 496  bound_to 491 

> <Gold.Score>
     Score     S(PLP)   S(hbond)     S(cho)   S(metal)  DE(clash)   DE(tors)     intcor
     28.13     -28.72       0.00       0.00       0.00       0.24       0.36       0.38

> <Gold.PLP.Fitness>
28.1333

> <Gold.PLP.PLP>
-28.7204

> <Gold.PLP.part.hbond>
0.0000

> <Gold.PLP.part.metal>
0.0000

> <Gold.PLP.part.buried>
3.5132

> <Gold.PLP.part.nonpolar>
-31.6918

> <Gold.PLP.part.repulsive>
0.0000

> <Gold.PLP.ligand.clash>
0.2400

> <Gold.PLP.ligand.torsion>
0.3625

> <Gold.PLP.Chemscore.Hbond>
0.0000

> <Gold.PLP.Chemscore.CHOScore>
0.0000

> <Gold.PLP.Chemscore.Metal>
0.0000

> <Gold.PLP.Chemscore.Internal.Correction>
0.3780

