#       Name:                EN300-125264_i004
#       Creating user name   aseyller
#       Creation time:       Fri Apr 21 16:45:17 2023


#       File generated by GOLD software.
#

@<TRIPOS>MOLECULE
EN300-125264_i004|Sulfonylchlorides|mol2|73|dock7
    27    27     1
SMALL
USER_CHARGES


@<TRIPOS>ATOM
      1 C1          29.8889  40.4761  36.4425 C.3            1 <1>                0.0000
      2 O2          30.1546  39.1205  35.9951 O.3            1 <1>                0.0000
      3 C3          30.0938  38.1504  36.9208 C.2            1 <1>                0.0000
      4 O4          29.9860  38.4366  38.0897 O.2            1 <1>                0.0000
      5 C5          30.1601  36.7041  36.5022 C.3            1 <1>                0.0000
      6 C6          31.4117  36.4761  35.6523 C.3            1 <1>                0.0000
      7 C7          32.6553  36.8274  36.4713 C.3            1 <1>                0.0000
      8 C8          32.7146  35.9386  37.7152 C.3            1 <1>                0.0000
      9 C9          31.4631  36.1667  38.5651 C.3            1 <1>                0.0000
     10 C10         30.2194  35.8154  37.7461 C.3            1 <1>                0.0000
     11 S11         28.7355  36.0858  38.7538 S.o2           1 <1>                0.0000
     12 O12         27.8902  37.0537  38.1471 O.2            1 <1>                0.0000
     13 O13         28.2156  34.8476  39.2184 O.2            1 <1>                0.0000
     14 Cl14        29.4184  36.9968  40.4224 Cl             1 <1>                0.0000
     15 H15         29.9704  41.1600  35.5977 H              1 <1>                0.0000
     16 H16         28.8829  40.5308  36.8586 H              1 <1>                0.0000
     17 H17         30.6140  40.7550  37.2071 H              1 <1>                0.0000
     18 H18         29.2741  36.4538  35.9187 H              1 <1>                0.0000
     19 H19         31.4596  35.4301  35.3495 H              1 <1>                0.0000
     20 H20         31.3694  37.1093  34.7661 H              1 <1>                0.0000
     21 H21         33.5470  36.6650  35.8658 H              1 <1>                0.0000
     22 H22         32.6074  37.8735  36.7741 H              1 <1>                0.0000
     23 H23         32.7625  34.8926  37.4124 H              1 <1>                0.0000
     24 H24         33.6006  36.1889  38.2987 H              1 <1>                0.0000
     25 H25         31.5052  35.5335  39.4514 H              1 <1>                0.0000
     26 H26         31.4151  37.2128  38.8680 H              1 <1>                0.0000
     27 H27         30.2672  34.7694  37.4434 H              1 <1>                0.0000
@<TRIPOS>BOND
    1    1    2 1     
    2    1   15 1     
    3    1   16 1     
    4    1   17 1     
    5    2    3 1     
    6    3    4 2     
    7    3    5 1     
    8    5    6 1     
    9    5   10 1     
   10    5   18 1     
   11    6    7 1     
   12    6   19 1     
   13    6   20 1     
   14    7    8 1     
   15    7   21 1     
   16    7   22 1     
   17    8    9 1     
   18    8   23 1     
   19    8   24 1     
   20    9   10 1     
   21    9   25 1     
   22    9   26 1     
   23   10   11 1     
   24   10   27 1     
   25   11   12 2     
   26   11   13 2     
   27   11   14 1     
@<TRIPOS>SUBSTRUCTURE
      1 ****           1
@<TRIPOS>COMMENT
> <Gold.Version>
2022.2.0

> <Gold.Id.Protein>
1qkm|1qkm_protein|mol2

> <Gold.Protein.RotatedTorsions>
[  496  491  490  487 ] final  -45.94 input  -89.99 | X-H torsion

> <Gold.Protein.ActiveResidues>
 MET295  LEU298  THR299  LEU301  ALA302  GLU305  TRP335  MET336  LEU339  MET340 
 GLY342  LEU343  ARG346  PHE356  ILE373  ILE376  PHE377  LEU380  LYS471  GLY472 
 MET473  HIS475  LEU476  LEU477  ASN478  MET479  VAL484  VAL487 

> <Gold.Protein.RotatedAtoms>
   36.3982   34.6852   41.6881 H   0  0  0  0  0  0  0  0  0  0  0  0  # atno 496  bound_to 491 

> <Gold.Score>
     Score     S(PLP)   S(hbond)     S(cho)   S(metal)  DE(clash)   DE(tors)     intcor
     32.74     -33.44       0.00       0.00       0.00       0.23       0.43       0.38

> <Gold.PLP.Fitness>
32.7403

> <Gold.PLP.PLP>
-33.4416

> <Gold.PLP.part.hbond>
0.0000

> <Gold.PLP.part.metal>
0.0000

> <Gold.PLP.part.buried>
-3.4267

> <Gold.PLP.part.nonpolar>
-30.1607

> <Gold.PLP.part.repulsive>
0.0178

> <Gold.PLP.ligand.clash>
0.2283

> <Gold.PLP.ligand.torsion>
0.4255

> <Gold.PLP.Chemscore.Hbond>
0.0000

> <Gold.PLP.Chemscore.CHOScore>
0.0000

> <Gold.PLP.Chemscore.Metal>
0.0000

> <Gold.PLP.Chemscore.Internal.Correction>
0.3780

