#       Name:                EN300-125264_i004
#       Creating user name   aseyller
#       Creation time:       Fri Apr 21 16:45:17 2023


#       File generated by GOLD software.
#

@<TRIPOS>MOLECULE
EN300-125264_i004|Sulfonylchlorides|mol2|73|dock8
    27    27     1
SMALL
USER_CHARGES


@<TRIPOS>ATOM
      1 C1          31.4119  32.8810  38.1996 C.3            1 <1>                0.0000
      2 O2          32.1447  34.1228  38.0287 O.3            1 <1>                0.0000
      3 C3          31.4678  35.2633  38.2354 C.2            1 <1>                0.0000
      4 O4          30.3038  35.2251  38.5575 O.2            1 <1>                0.0000
      5 C5          32.1595  36.5914  38.0659 C.3            1 <1>                0.0000
      6 C6          33.5823  36.3635  37.5515 C.3            1 <1>                0.0000
      7 C7          33.5278  35.6412  36.2038 C.3            1 <1>                0.0000
      8 C8          32.7526  36.4953  35.1985 C.3            1 <1>                0.0000
      9 C9          31.3299  36.7232  35.7129 C.3            1 <1>                0.0000
     10 C10         31.3844  37.4455  37.0606 C.3            1 <1>                0.0000
     11 S11         29.6975  37.7157  37.6705 S.o2           1 <1>                0.0000
     12 O12         28.7823  36.8584  37.0021 O.2            1 <1>                0.0000
     13 O13         29.6919  37.8317  39.0867 O.2            1 <1>                0.0000
     14 Cl14        29.2156  39.5654  37.0172 Cl             1 <1>                0.0000
     15 H15         32.0745  32.0381  38.0031 H              1 <1>                0.0000
     16 H16         31.0370  32.8180  39.2212 H              1 <1>                0.0000
     17 H17         30.5740  32.8547  37.5028 H              1 <1>                0.0000
     18 H18         32.1983  37.1060  39.0260 H              1 <1>                0.0000
     19 H19         34.0825  37.3241  37.4289 H              1 <1>                0.0000
     20 H20         34.1345  35.7551  38.2677 H              1 <1>                0.0000
     21 H21         34.5414  35.4788  35.8373 H              1 <1>                0.0000
     22 H22         33.0274  34.6806  36.3264 H              1 <1>                0.0000
     23 H23         33.2529  37.4559  35.0760 H              1 <1>                0.0000
     24 H24         32.7138  35.9807  34.2383 H              1 <1>                0.0000
     25 H25         30.7776  37.3317  34.9967 H              1 <1>                0.0000
     26 H26         30.8295  35.7625  35.8355 H              1 <1>                0.0000
     27 H27         31.8846  38.4061  36.9380 H              1 <1>                0.0000
@<TRIPOS>BOND
    1    1    2 1     
    2    1   15 1     
    3    1   16 1     
    4    1   17 1     
    5    2    3 1     
    6    3    4 2     
    7    3    5 1     
    8    5    6 1     
    9    5   10 1     
   10    5   18 1     
   11    6    7 1     
   12    6   19 1     
   13    6   20 1     
   14    7    8 1     
   15    7   21 1     
   16    7   22 1     
   17    8    9 1     
   18    8   23 1     
   19    8   24 1     
   20    9   10 1     
   21    9   25 1     
   22    9   26 1     
   23   10   11 1     
   24   10   27 1     
   25   11   12 2     
   26   11   13 2     
   27   11   14 1     
@<TRIPOS>SUBSTRUCTURE
      1 ****           1
@<TRIPOS>COMMENT
> <Gold.Version>
2022.2.0

> <Gold.Id.Protein>
1qkm|1qkm_protein|mol2

> <Gold.Protein.RotatedTorsions>
[  496  491  490  487 ] final -112.56 input  -89.99 | X-H torsion

> <Gold.Protein.ActiveResidues>
 MET295  LEU298  THR299  LEU301  ALA302  GLU305  TRP335  MET336  LEU339  MET340 
 GLY342  LEU343  ARG346  PHE356  ILE373  ILE376  PHE377  LEU380  LYS471  GLY472 
 MET473  HIS475  LEU476  LEU477  ASN478  MET479  VAL484  VAL487 

> <Gold.Protein.RotatedAtoms>
   36.9627   34.4466   40.8528 H   0  0  0  0  0  0  0  0  0  0  0  0  # atno 496  bound_to 491 

> <Gold.Score>
     Score     S(PLP)   S(hbond)     S(cho)   S(metal)  DE(clash)   DE(tors)     intcor
     32.59     -35.66       0.00       0.00       0.00       1.45       1.00       0.38

> <Gold.PLP.Fitness>
32.5857

> <Gold.PLP.PLP>
-35.6589

> <Gold.PLP.part.hbond>
0.0000

> <Gold.PLP.part.metal>
0.0000

> <Gold.PLP.part.buried>
-2.1291

> <Gold.PLP.part.nonpolar>
-34.1333

> <Gold.PLP.part.repulsive>
0.1255

> <Gold.PLP.ligand.clash>
1.4483

> <Gold.PLP.ligand.torsion>
1.0014

> <Gold.PLP.Chemscore.Hbond>
0.0000

> <Gold.PLP.Chemscore.CHOScore>
0.0000

> <Gold.PLP.Chemscore.Metal>
0.0000

> <Gold.PLP.Chemscore.Internal.Correction>
0.3780

