#       Name:                EN300-125264_i004
#       Creating user name   aseyller
#       Creation time:       Fri Apr 21 16:45:23 2023


#       File generated by GOLD software.
#

@<TRIPOS>MOLECULE
EN300-125264_i004|Sulfonylchlorides|mol2|73|dock15
    27    27     1
SMALL
USER_CHARGES


@<TRIPOS>ATOM
      1 C1          28.8054  35.4262  39.7143 C.3            1 <1>                0.0000
      2 O2          30.1424  35.8906  39.3900 O.3            1 <1>                0.0000
      3 C3          30.2970  36.5358  38.2232 C.2            1 <1>                0.0000
      4 O4          29.3731  36.6130  37.4484 O.2            1 <1>                0.0000
      5 C5          31.6231  37.1641  37.8795 C.3            1 <1>                0.0000
      6 C6          32.7302  36.1146  37.9964 C.3            1 <1>                0.0000
      7 C7          32.4456  34.9631  37.0299 C.3            1 <1>                0.0000
      8 C8          32.4000  35.4989  35.5975 C.3            1 <1>                0.0000
      9 C9          31.2929  36.5484  35.4806 C.3            1 <1>                0.0000
     10 C10         31.5775  37.6999  36.4471 C.3            1 <1>                0.0000
     11 S11         30.2649  38.9442  36.3084 S.o2           1 <1>                0.0000
     12 O12         29.4222  38.6588  35.2004 O.2            1 <1>                0.0000
     13 O13         29.7191  39.2380  37.5871 O.2            1 <1>                0.0000
     14 Cl14        31.2297  40.6377  35.7775 Cl             1 <1>                0.0000
     15 H15         28.8201  34.9231  40.6811 H              1 <1>                0.0000
     16 H16         28.1258  36.2773  39.7579 H              1 <1>                0.0000
     17 H17         28.4667  34.7296  38.9473 H              1 <1>                0.0000
     18 H18         31.8259  37.9844  38.5680 H              1 <1>                0.0000
     19 H19         33.6892  36.5689  37.7478 H              1 <1>                0.0000
     20 H20         32.7626  35.7328  39.0168 H              1 <1>                0.0000
     21 H21         33.2343  34.2154  37.1132 H              1 <1>                0.0000
     22 H22         31.4864  34.5087  37.2785 H              1 <1>                0.0000
     23 H23         33.3591  35.9534  35.3490 H              1 <1>                0.0000
     24 H24         32.1973  34.6786  34.9090 H              1 <1>                0.0000
     25 H25         31.2605  36.9303  34.4602 H              1 <1>                0.0000
     26 H26         30.3338  36.0941  35.7292 H              1 <1>                0.0000
     27 H27         32.5365  38.1543  36.1985 H              1 <1>                0.0000
@<TRIPOS>BOND
    1    1    2 1     
    2    1   15 1     
    3    1   16 1     
    4    1   17 1     
    5    2    3 1     
    6    3    4 2     
    7    3    5 1     
    8    5    6 1     
    9    5   10 1     
   10    5   18 1     
   11    6    7 1     
   12    6   19 1     
   13    6   20 1     
   14    7    8 1     
   15    7   21 1     
   16    7   22 1     
   17    8    9 1     
   18    8   23 1     
   19    8   24 1     
   20    9   10 1     
   21    9   25 1     
   22    9   26 1     
   23   10   11 1     
   24   10   27 1     
   25   11   12 2     
   26   11   13 2     
   27   11   14 1     
@<TRIPOS>SUBSTRUCTURE
      1 ****           1
@<TRIPOS>COMMENT
> <Gold.Version>
2022.2.0

> <Gold.Id.Protein>
1qkm|1qkm_protein|mol2

> <Gold.Protein.RotatedTorsions>
[  496  491  490  487 ] final   79.57 input  -89.99 | X-H torsion

> <Gold.Protein.ActiveResidues>
 MET295  LEU298  THR299  LEU301  ALA302  GLU305  TRP335  MET336  LEU339  MET340 
 GLY342  LEU343  ARG346  PHE356  ILE373  ILE376  PHE377  LEU380  LYS471  GLY472 
 MET473  HIS475  LEU476  LEU477  ASN478  MET479  VAL484  VAL487 

> <Gold.Protein.RotatedAtoms>
   36.7240   33.1035   42.1402 H   0  0  0  0  0  0  0  0  0  0  0  0  # atno 496  bound_to 491 

> <Gold.Score>
     Score     S(PLP)   S(hbond)     S(cho)   S(metal)  DE(clash)   DE(tors)     intcor
     28.98     -29.31       0.00       0.00       0.00       0.22       0.24       0.38

> <Gold.PLP.Fitness>
28.9813

> <Gold.PLP.PLP>
-29.3123

> <Gold.PLP.part.hbond>
0.0000

> <Gold.PLP.part.metal>
0.0000

> <Gold.PLP.part.buried>
-1.3447

> <Gold.PLP.part.nonpolar>
-28.1217

> <Gold.PLP.part.repulsive>
0.0929

> <Gold.PLP.ligand.clash>
0.2247

> <Gold.PLP.ligand.torsion>
0.2422

> <Gold.PLP.Chemscore.Hbond>
0.0000

> <Gold.PLP.Chemscore.CHOScore>
0.0000

> <Gold.PLP.Chemscore.Metal>
0.0000

> <Gold.PLP.Chemscore.Internal.Correction>
0.3780

