#       Name:                EN300-125264_i004
#       Creating user name   aseyller
#       Creation time:       Fri Apr 21 16:45:13 2023


#       File generated by GOLD software.
#

@<TRIPOS>MOLECULE
EN300-125264_i004|Sulfonylchlorides|mol2|73|dock2
    27    27     1
SMALL
USER_CHARGES


@<TRIPOS>ATOM
      1 C1          30.3565  40.6070  35.8149 C.3            1 <1>                0.0000
      2 O2          30.3014  39.1908  35.4990 O.3            1 <1>                0.0000
      3 C3          30.2728  38.3363  36.5337 C.2            1 <1>                0.0000
      4 O4          30.3485  38.7543  37.6648 O.2            1 <1>                0.0000
      5 C5          30.1462  36.8553  36.2847 C.3            1 <1>                0.0000
      6 C6          31.2476  36.4038  35.3236 C.3            1 <1>                0.0000
      7 C7          32.6160  36.7022  35.9395 C.3            1 <1>                0.0000
      8 C8          32.7544  35.9488  37.2640 C.3            1 <1>                0.0000
      9 C9          31.6530  36.4003  38.2251 C.3            1 <1>                0.0000
     10 C10         30.2846  36.1018  37.6091 C.3            1 <1>                0.0000
     11 S11         28.9787  36.6372  38.7487 S.o2           1 <1>                0.0000
     12 O12         29.5313  36.9936  40.0084 O.2            1 <1>                0.0000
     13 O13         28.0570  37.4913  38.0851 O.2            1 <1>                0.0000
     14 Cl14        27.9198  34.9589  39.1260 Cl             1 <1>                0.0000
     15 H15         30.3749  41.1848  34.8910 H              1 <1>                0.0000
     16 H16         29.4785  40.8833  36.3989 H              1 <1>                0.0000
     17 H17         31.2572  40.8157  36.3921 H              1 <1>                0.0000
     18 H18         29.1713  36.6427  35.8459 H              1 <1>                0.0000
     19 H19         31.1561  35.3327  35.1435 H              1 <1>                0.0000
     20 H20         31.1490  36.9406  34.3801 H              1 <1>                0.0000
     21 H21         33.4007  36.3806  35.2548 H              1 <1>                0.0000
     22 H22         32.7075  37.7734  36.1197 H              1 <1>                0.0000
     23 H23         32.6627  34.8776  37.0838 H              1 <1>                0.0000
     24 H24         33.7292  36.1614  37.7028 H              1 <1>                0.0000
     25 H25         31.7514  35.8635  39.1686 H              1 <1>                0.0000
     26 H26         31.7445  37.4715  38.4052 H              1 <1>                0.0000
     27 H27         30.1930  35.0308  37.4291 H              1 <1>                0.0000
@<TRIPOS>BOND
    1    1    2 1     
    2    1   15 1     
    3    1   16 1     
    4    1   17 1     
    5    2    3 1     
    6    3    4 2     
    7    3    5 1     
    8    5    6 1     
    9    5   10 1     
   10    5   18 1     
   11    6    7 1     
   12    6   19 1     
   13    6   20 1     
   14    7    8 1     
   15    7   21 1     
   16    7   22 1     
   17    8    9 1     
   18    8   23 1     
   19    8   24 1     
   20    9   10 1     
   21    9   25 1     
   22    9   26 1     
   23   10   11 1     
   24   10   27 1     
   25   11   12 2     
   26   11   13 2     
   27   11   14 1     
@<TRIPOS>SUBSTRUCTURE
      1 ****           1
@<TRIPOS>COMMENT
> <Gold.Version>
2022.2.0

> <Gold.Id.Protein>
1qkm|1qkm_protein|mol2

> <Gold.Protein.RotatedTorsions>
[  496  491  490  487 ] final  -82.93 input  -89.99 | X-H torsion

> <Gold.Protein.ActiveResidues>
 MET295  LEU298  THR299  LEU301  ALA302  GLU305  TRP335  MET336  LEU339  MET340 
 GLY342  LEU343  ARG346  PHE356  ILE373  ILE376  PHE377  LEU380  LYS471  GLY472 
 MET473  HIS475  LEU476  LEU477  ASN478  MET479  VAL484  VAL487 

> <Gold.Protein.RotatedAtoms>
   36.6924   34.6934   41.1671 H   0  0  0  0  0  0  0  0  0  0  0  0  # atno 496  bound_to 491 

> <Gold.Score>
     Score     S(PLP)   S(hbond)     S(cho)   S(metal)  DE(clash)   DE(tors)     intcor
     31.83     -31.91       0.00       0.00       0.00       0.23       0.22       0.57

> <Gold.PLP.Fitness>
31.8265

> <Gold.PLP.PLP>
-31.9126

> <Gold.PLP.part.hbond>
0.0000

> <Gold.PLP.part.metal>
0.0000

> <Gold.PLP.part.buried>
-2.6401

> <Gold.PLP.part.nonpolar>
-29.6600

> <Gold.PLP.part.repulsive>
0.0736

> <Gold.PLP.ligand.clash>
0.2298

> <Gold.PLP.ligand.torsion>
0.2155

> <Gold.PLP.Chemscore.Hbond>
0.0000

> <Gold.PLP.Chemscore.CHOScore>
0.0000

> <Gold.PLP.Chemscore.Metal>
0.0000

> <Gold.PLP.Chemscore.Internal.Correction>
0.5747

