#       Name:                EN300-125264_i004
#       Creating user name   aseyller
#       Creation time:       Fri Apr 21 16:45:23 2023


#       File generated by GOLD software.
#

@<TRIPOS>MOLECULE
EN300-125264_i004|Sulfonylchlorides|mol2|73|dock16
    27    27     1
SMALL
USER_CHARGES


@<TRIPOS>ATOM
      1 C1          28.7586  36.5978  41.4371 C.3            1 <1>                0.0000
      2 O2          28.3763  36.4620  40.0430 O.3            1 <1>                0.0000
      3 C3          29.2954  36.7965  39.1237 C.2            1 <1>                0.0000
      4 O4          30.3569  37.2576  39.4706 O.2            1 <1>                0.0000
      5 C5          29.0032  36.5969  37.6587 C.3            1 <1>                0.0000
      6 C6          27.6946  37.3030  37.2988 C.3            1 <1>                0.0000
      7 C7          27.8242  38.7987  37.5938 C.3            1 <1>                0.0000
      8 C8          28.9660  39.3856  36.7615 C.3            1 <1>                0.0000
      9 C9          30.2747  38.6795  37.1214 C.3            1 <1>                0.0000
     10 C10         30.1451  37.1838  36.8264 C.3            1 <1>                0.0000
     11 S11         31.6967  36.3465  37.2532 S.o2           1 <1>                0.0000
     12 O12         32.7020  37.2960  37.5804 O.2            1 <1>                0.0000
     13 O13         31.4451  35.2275  38.0920 O.2            1 <1>                0.0000
     14 Cl14        32.3259  35.5340  35.5141 Cl             1 <1>                0.0000
     15 H15         27.9267  36.2953  42.0731 H              1 <1>                0.0000
     16 H16         29.6211  35.9632  41.6408 H              1 <1>                0.0000
     17 H17         29.0151  37.6368  41.6440 H              1 <1>                0.0000
     18 H18         28.9109  35.5313  37.4485 H              1 <1>                0.0000
     19 H19         27.4833  37.1587  36.2393 H              1 <1>                0.0000
     20 H20         26.8811  36.8849  37.8917 H              1 <1>                0.0000
     21 H21         26.8919  39.3019  37.3374 H              1 <1>                0.0000
     22 H22         28.0355  38.9431  38.6534 H              1 <1>                0.0000
     23 H23         28.7548  39.2412  35.7020 H              1 <1>                0.0000
     24 H24         29.0584  40.4512  36.9717 H              1 <1>                0.0000
     25 H25         31.0882  39.0975  36.5285 H              1 <1>                0.0000
     26 H26         30.4860  38.8238  38.1810 H              1 <1>                0.0000
     27 H27         29.9339  37.0394  35.7669 H              1 <1>                0.0000
@<TRIPOS>BOND
    1    1    2 1     
    2    1   15 1     
    3    1   16 1     
    4    1   17 1     
    5    2    3 1     
    6    3    4 2     
    7    3    5 1     
    8    5    6 1     
    9    5   10 1     
   10    5   18 1     
   11    6    7 1     
   12    6   19 1     
   13    6   20 1     
   14    7    8 1     
   15    7   21 1     
   16    7   22 1     
   17    8    9 1     
   18    8   23 1     
   19    8   24 1     
   20    9   10 1     
   21    9   25 1     
   22    9   26 1     
   23   10   11 1     
   24   10   27 1     
   25   11   12 2     
   26   11   13 2     
   27   11   14 1     
@<TRIPOS>SUBSTRUCTURE
      1 ****           1
@<TRIPOS>COMMENT
> <Gold.Version>
2022.2.0

> <Gold.Id.Protein>
1qkm|1qkm_protein|mol2

> <Gold.Protein.RotatedTorsions>
[  496  491  490  487 ] final    3.59 input  -89.99 | X-H torsion

> <Gold.Protein.ActiveResidues>
 MET295  LEU298  THR299  LEU301  ALA302  GLU305  TRP335  MET336  LEU339  MET340 
 GLY342  LEU343  ARG346  PHE356  ILE373  ILE376  PHE377  LEU380  LYS471  GLY472 
 MET473  HIS475  LEU476  LEU477  ASN478  MET479  VAL484  VAL487 

> <Gold.Protein.RotatedAtoms>
   36.2627   34.1618   42.2643 H   0  0  0  0  0  0  0  0  0  0  0  0  # atno 496  bound_to 491 

> <Gold.Score>
     Score     S(PLP)   S(hbond)     S(cho)   S(metal)  DE(clash)   DE(tors)     intcor
     30.54     -30.83       0.00       0.00       0.00       0.24       0.21       0.38

> <Gold.PLP.Fitness>
30.5416

> <Gold.PLP.PLP>
-30.8317

> <Gold.PLP.part.hbond>
0.0000

> <Gold.PLP.part.metal>
0.0000

> <Gold.PLP.part.buried>
1.0949

> <Gold.PLP.part.nonpolar>
-31.7640

> <Gold.PLP.part.repulsive>
0.1704

> <Gold.PLP.ligand.clash>
0.2398

> <Gold.PLP.ligand.torsion>
0.2141

> <Gold.PLP.Chemscore.Hbond>
0.0000

> <Gold.PLP.Chemscore.CHOScore>
0.0000

> <Gold.PLP.Chemscore.Metal>
0.0000

> <Gold.PLP.Chemscore.Internal.Correction>
0.3780

