#       Name:                EN300-125264_i004
#       Creating user name   aseyller
#       Creation time:       Fri Apr 21 16:45:18 2023


#       File generated by GOLD software.
#

@<TRIPOS>MOLECULE
EN300-125264_i004|Sulfonylchlorides|mol2|73|dock9
    27    27     1
SMALL
USER_CHARGES


@<TRIPOS>ATOM
      1 C1          26.2359  37.5994  38.3778 C.3            1 <1>                0.0000
      2 O2          27.5479  37.0711  38.7062 O.3            1 <1>                0.0000
      3 C3          28.5995  37.6147  38.0736 C.2            1 <1>                0.0000
      4 O4          28.4688  38.0624  36.9590 O.2            1 <1>                0.0000
      5 C5          29.9435  37.6667  38.7536 C.3            1 <1>                0.0000
      6 C6          29.8461  37.0003  40.1274 C.3            1 <1>                0.0000
      7 C7          29.4167  35.5416  39.9573 C.3            1 <1>                0.0000
      8 C8          30.4491  34.8023  39.1037 C.3            1 <1>                0.0000
      9 C9          30.5465  35.4688  37.7300 C.3            1 <1>                0.0000
     10 C10         30.9758  36.9274  37.9001 C.3            1 <1>                0.0000
     11 S11         31.0913  37.7176  36.2713 S.o2           1 <1>                0.0000
     12 O12         30.1644  37.1331  35.3666 O.2            1 <1>                0.0000
     13 O13         31.1915  39.1285  36.4075 O.2            1 <1>                0.0000
     14 Cl14        32.8986  37.1556  35.5654 Cl             1 <1>                0.0000
     15 H15         25.4771  37.0739  38.9576 H              1 <1>                0.0000
     16 H16         26.2027  38.6628  38.6149 H              1 <1>                0.0000
     17 H17         26.0431  37.4581  37.3143 H              1 <1>                0.0000
     18 H18         30.2494  38.7059  38.8748 H              1 <1>                0.0000
     19 H19         30.8180  37.0379  40.6191 H              1 <1>                0.0000
     20 H20         29.1106  37.5269  40.7354 H              1 <1>                0.0000
     21 H21         29.3473  35.0667  40.9360 H              1 <1>                0.0000
     22 H22         28.4447  35.5040  39.4654 H              1 <1>                0.0000
     23 H23         31.4211  34.8400  39.5955 H              1 <1>                0.0000
     24 H24         30.1432  33.7631  38.9826 H              1 <1>                0.0000
     25 H25         31.2820  34.9421  37.1219 H              1 <1>                0.0000
     26 H26         29.5744  35.4311  37.2381 H              1 <1>                0.0000
     27 H27         31.9478  36.9651  38.3918 H              1 <1>                0.0000
@<TRIPOS>BOND
    1    1    2 1     
    2    1   15 1     
    3    1   16 1     
    4    1   17 1     
    5    2    3 1     
    6    3    4 2     
    7    3    5 1     
    8    5    6 1     
    9    5   10 1     
   10    5   18 1     
   11    6    7 1     
   12    6   19 1     
   13    6   20 1     
   14    7    8 1     
   15    7   21 1     
   16    7   22 1     
   17    8    9 1     
   18    8   23 1     
   19    8   24 1     
   20    9   10 1     
   21    9   25 1     
   22    9   26 1     
   23   10   11 1     
   24   10   27 1     
   25   11   12 2     
   26   11   13 2     
   27   11   14 1     
@<TRIPOS>SUBSTRUCTURE
      1 ****           1
@<TRIPOS>COMMENT
> <Gold.Version>
2022.2.0

> <Gold.Id.Protein>
1qkm|1qkm_protein|mol2

> <Gold.Protein.RotatedTorsions>
[  496  491  490  487 ] final  -47.67 input  -89.99 | X-H torsion

> <Gold.Protein.ActiveResidues>
 MET295  LEU298  THR299  LEU301  ALA302  GLU305  TRP335  MET336  LEU339  MET340 
 GLY342  LEU343  ARG346  PHE356  ILE373  ILE376  PHE377  LEU380  LYS471  GLY472 
 MET473  HIS475  LEU476  LEU477  ASN478  MET479  VAL484  VAL487 

> <Gold.Protein.RotatedAtoms>
   36.4092   34.6938   41.6633 H   0  0  0  0  0  0  0  0  0  0  0  0  # atno 496  bound_to 491 

> <Gold.Score>
     Score     S(PLP)   S(hbond)     S(cho)   S(metal)  DE(clash)   DE(tors)     intcor
     29.53     -33.29       0.00       0.00       0.00       1.71       1.21       0.38

> <Gold.PLP.Fitness>
29.5325

> <Gold.PLP.PLP>
-33.2884

> <Gold.PLP.part.hbond>
0.0000

> <Gold.PLP.part.metal>
0.0000

> <Gold.PLP.part.buried>
-3.2344

> <Gold.PLP.part.nonpolar>
-31.2196

> <Gold.PLP.part.repulsive>
0.0370

> <Gold.PLP.ligand.clash>
1.7115

> <Gold.PLP.ligand.torsion>
1.2111

> <Gold.PLP.Chemscore.Hbond>
0.0000

> <Gold.PLP.Chemscore.CHOScore>
0.0000

> <Gold.PLP.Chemscore.Metal>
0.0000

> <Gold.PLP.Chemscore.Internal.Correction>
0.3780

