#       Name:                EN300-125264_i004
#       Creating user name   aseyller
#       Creation time:       Fri Apr 21 16:45:22 2023


#       File generated by GOLD software.
#

@<TRIPOS>MOLECULE
EN300-125264_i004|Sulfonylchlorides|mol2|73|dock14
    27    27     1
SMALL
USER_CHARGES


@<TRIPOS>ATOM
      1 C1          28.6820  36.5920  42.0955 C.3            1 <1>                0.0000
      2 O2          28.4034  35.9283  40.8344 O.3            1 <1>                0.0000
      3 C3          29.0327  36.3987  39.7461 C.2            1 <1>                0.0000
      4 O4          29.9497  37.1762  39.8672 O.2            1 <1>                0.0000
      5 C5          28.5956  35.9572  38.3731 C.3            1 <1>                0.0000
      6 C6          27.1003  36.2314  38.2011 C.3            1 <1>                0.0000
      7 C7          26.8344  37.7293  38.3638 C.3            1 <1>                0.0000
      8 C8          27.6203  38.5048  37.3045 C.3            1 <1>                0.0000
      9 C9          29.1156  38.2305  37.4765 C.3            1 <1>                0.0000
     10 C10         29.3815  36.7326  37.3138 C.3            1 <1>                0.0000
     11 S11         31.1544  36.4075  37.5177 S.o2           1 <1>                0.0000
     12 O12         31.8790  37.6272  37.5985 O.2            1 <1>                0.0000
     13 O13         31.3652  35.3664  38.4616 O.2            1 <1>                0.0000
     14 Cl14        31.7257  35.6045  35.7544 Cl             1 <1>                0.0000
     15 H15         28.1106  36.1145  42.8913 H              1 <1>                0.0000
     16 H16         29.7466  36.5178  42.3176 H              1 <1>                0.0000
     17 H17         28.3981  37.6420  42.0239 H              1 <1>                0.0000
     18 H18         28.7850  34.8900  38.2572 H              1 <1>                0.0000
     19 H19         26.7842  35.9120  37.2081 H              1 <1>                0.0000
     20 H20         26.5405  35.6790  38.9558 H              1 <1>                0.0000
     21 H21         25.7691  37.9247  38.2413 H              1 <1>                0.0000
     22 H22         27.1506  38.0487  39.3569 H              1 <1>                0.0000
     23 H23         27.3042  38.1853  36.3114 H              1 <1>                0.0000
     24 H24         27.4309  39.5719  37.4204 H              1 <1>                0.0000
     25 H25         29.6755  38.7829  36.7218 H              1 <1>                0.0000
     26 H26         29.4318  38.5499  38.4696 H              1 <1>                0.0000
     27 H27         29.0655  36.4132  36.3208 H              1 <1>                0.0000
@<TRIPOS>BOND
    1    1    2 1     
    2    1   15 1     
    3    1   16 1     
    4    1   17 1     
    5    2    3 1     
    6    3    4 2     
    7    3    5 1     
    8    5    6 1     
    9    5   10 1     
   10    5   18 1     
   11    6    7 1     
   12    6   19 1     
   13    6   20 1     
   14    7    8 1     
   15    7   21 1     
   16    7   22 1     
   17    8    9 1     
   18    8   23 1     
   19    8   24 1     
   20    9   10 1     
   21    9   25 1     
   22    9   26 1     
   23   10   11 1     
   24   10   27 1     
   25   11   12 2     
   26   11   13 2     
   27   11   14 1     
@<TRIPOS>SUBSTRUCTURE
      1 ****           1
@<TRIPOS>COMMENT
> <Gold.Version>
2022.2.0

> <Gold.Id.Protein>
1qkm|1qkm_protein|mol2

> <Gold.Protein.RotatedTorsions>
[  496  491  490  487 ] final  117.20 input  -89.99 | X-H torsion

> <Gold.Protein.ActiveResidues>
 MET295  LEU298  THR299  LEU301  ALA302  GLU305  TRP335  MET336  LEU339  MET340 
 GLY342  LEU343  ARG346  PHE356  ILE373  ILE376  PHE377  LEU380  LYS471  GLY472 
 MET473  HIS475  LEU476  LEU477  ASN478  MET479  VAL484  VAL487 

> <Gold.Protein.RotatedAtoms>
   37.0586   32.9403   41.6592 H   0  0  0  0  0  0  0  0  0  0  0  0  # atno 496  bound_to 491 

> <Gold.Score>
     Score     S(PLP)   S(hbond)     S(cho)   S(metal)  DE(clash)   DE(tors)     intcor
     31.55     -32.09       0.00       0.00       0.00       0.26       0.33       0.38

> <Gold.PLP.Fitness>
31.5472

> <Gold.PLP.PLP>
-32.0856

> <Gold.PLP.part.hbond>
0.0000

> <Gold.PLP.part.metal>
0.0000

> <Gold.PLP.part.buried>
-0.2820

> <Gold.PLP.part.nonpolar>
-32.3421

> <Gold.PLP.part.repulsive>
0.2680

> <Gold.PLP.ligand.clash>
0.2611

> <Gold.PLP.ligand.torsion>
0.3276

> <Gold.PLP.Chemscore.Hbond>
0.0000

> <Gold.PLP.Chemscore.CHOScore>
0.0000

> <Gold.PLP.Chemscore.Metal>
0.0000

> <Gold.PLP.Chemscore.Internal.Correction>
0.3780

