#       Name:                EN300-125264_i004
#       Creating user name   aseyller
#       Creation time:       Fri Apr 21 16:45:19 2023


#       File generated by GOLD software.
#

@<TRIPOS>MOLECULE
EN300-125264_i004|Sulfonylchlorides|mol2|73|dock10
    27    27     1
SMALL
USER_CHARGES


@<TRIPOS>ATOM
      1 C1          31.0972  33.8425  38.4986 C.3            1 <1>                0.0000
      2 O2          30.9547  35.2431  38.8543 O.3            1 <1>                0.0000
      3 C3          29.7254  35.6644  39.1903 C.2            1 <1>                0.0000
      4 O4          28.8049  34.8822  39.2171 O.2            1 <1>                0.0000
      5 C5          29.4932  37.1133  39.5341 C.3            1 <1>                0.0000
      6 C6          30.0005  37.9961  38.3922 C.3            1 <1>                0.0000
      7 C7          29.2468  37.6500  37.1064 C.3            1 <1>                0.0000
      8 C8          27.7501  37.8918  37.3118 C.3            1 <1>                0.0000
      9 C9          27.2428  37.0090  38.4538 C.3            1 <1>                0.0000
     10 C10         27.9965  37.3551  39.7395 C.3            1 <1>                0.0000
     11 S11         27.3950  36.3084  41.0934 S.o2           1 <1>                0.0000
     12 O12         26.3212  35.4893  40.6514 O.2            1 <1>                0.0000
     13 O13         28.4850  35.7580  41.8203 O.2            1 <1>                0.0000
     14 Cl14        26.5361  37.6010  42.3865 Cl             1 <1>                0.0000
     15 H15         32.1378  33.6351  38.2492 H              1 <1>                0.0000
     16 H16         30.7947  33.2211  39.3415 H              1 <1>                0.0000
     17 H17         30.4660  33.6201  37.6382 H              1 <1>                0.0000
     18 H18         30.0302  37.3599  40.4501 H              1 <1>                0.0000
     19 H19         29.8326  39.0439  38.6409 H              1 <1>                0.0000
     20 H20         31.0668  37.8238  38.2459 H              1 <1>                0.0000
     21 H21         29.6082  38.2789  36.2928 H              1 <1>                0.0000
     22 H22         29.4147  36.6020  36.8578 H              1 <1>                0.0000
     23 H23         27.5822  38.9397  37.5606 H              1 <1>                0.0000
     24 H24         27.2131  37.6453  36.3959 H              1 <1>                0.0000
     25 H25         26.1765  37.1813  38.6002 H              1 <1>                0.0000
     26 H26         27.4107  35.9611  38.2051 H              1 <1>                0.0000
     27 H27         27.8285  38.4029  39.9883 H              1 <1>                0.0000
@<TRIPOS>BOND
    1    1    2 1     
    2    1   15 1     
    3    1   16 1     
    4    1   17 1     
    5    2    3 1     
    6    3    4 2     
    7    3    5 1     
    8    5    6 1     
    9    5   10 1     
   10    5   18 1     
   11    6    7 1     
   12    6   19 1     
   13    6   20 1     
   14    7    8 1     
   15    7   21 1     
   16    7   22 1     
   17    8    9 1     
   18    8   23 1     
   19    8   24 1     
   20    9   10 1     
   21    9   25 1     
   22    9   26 1     
   23   10   11 1     
   24   10   27 1     
   25   11   12 2     
   26   11   13 2     
   27   11   14 1     
@<TRIPOS>SUBSTRUCTURE
      1 ****           1
@<TRIPOS>COMMENT
> <Gold.Version>
2022.2.0

> <Gold.Id.Protein>
1qkm|1qkm_protein|mol2

> <Gold.Protein.RotatedTorsions>
[  496  491  490  487 ] final -134.47 input  -89.99 | X-H torsion

> <Gold.Protein.ActiveResidues>
 MET295  LEU298  THR299  LEU301  ALA302  GLU305  TRP335  MET336  LEU339  MET340 
 GLY342  LEU343  ARG346  PHE356  ILE373  ILE376  PHE377  LEU380  LYS471  GLY472 
 MET473  HIS475  LEU476  LEU477  ASN478  MET479  VAL484  VAL487 

> <Gold.Protein.RotatedAtoms>
   37.1369   34.1564   40.7352 H   0  0  0  0  0  0  0  0  0  0  0  0  # atno 496  bound_to 491 

> <Gold.Score>
     Score     S(PLP)   S(hbond)     S(cho)   S(metal)  DE(clash)   DE(tors)     intcor
     31.35     -31.72       0.00       0.00       0.00       0.24       0.25       0.38

> <Gold.PLP.Fitness>
31.3518

> <Gold.PLP.PLP>
-31.7162

> <Gold.PLP.part.hbond>
0.0000

> <Gold.PLP.part.metal>
0.0000

> <Gold.PLP.part.buried>
-4.1390

> <Gold.PLP.part.nonpolar>
-28.3453

> <Gold.PLP.part.repulsive>
0.4806

> <Gold.PLP.ligand.clash>
0.2406

> <Gold.PLP.ligand.torsion>
0.2509

> <Gold.PLP.Chemscore.Hbond>
0.0000

> <Gold.PLP.Chemscore.CHOScore>
0.0000

> <Gold.PLP.Chemscore.Metal>
0.0000

> <Gold.PLP.Chemscore.Internal.Correction>
0.3780

