#       Name:                EN300-125264_i004
#       Creating user name   aseyller
#       Creation time:       Fri Apr 21 16:45:15 2023


#       File generated by GOLD software.
#

@<TRIPOS>MOLECULE
EN300-125264_i004|Sulfonylchlorides|mol2|73|dock5
    27    27     1
SMALL
USER_CHARGES


@<TRIPOS>ATOM
      1 C1          30.4915  40.2170  36.6878 C.3            1 <1>                0.0000
      2 O2          30.6218  38.7856  36.8941 O.3            1 <1>                0.0000
      3 C3          30.6665  38.0134  35.7972 C.2            1 <1>                0.0000
      4 O4          30.6957  38.5216  34.7013 O.2            1 <1>                0.0000
      5 C5          30.6803  36.5125  35.9322 C.3            1 <1>                0.0000
      6 C6          31.8984  35.9457  35.2001 C.3            1 <1>                0.0000
      7 C7          33.1759  36.5245  35.8115 C.3            1 <1>                0.0000
      8 C8          33.2494  36.1465  37.2923 C.3            1 <1>                0.0000
      9 C9          32.0313  36.7132  38.0244 C.3            1 <1>                0.0000
     10 C10         30.7538  36.1344  37.4130 C.3            1 <1>                0.0000
     11 S11         29.3097  36.8064  38.2810 S.o2           1 <1>                0.0000
     12 O12         29.7169  37.5868  39.3965 O.2            1 <1>                0.0000
     13 O13         28.3541  37.2992  37.3519 O.2            1 <1>                0.0000
     14 Cl14        28.4183  35.1904  39.1024 Cl             1 <1>                0.0000
     15 H15         30.4675  40.7224  37.6532 H              1 <1>                0.0000
     16 H16         31.3409  40.5794  36.1089 H              1 <1>                0.0000
     17 H17         29.5682  40.4235  36.1465 H              1 <1>                0.0000
     18 H18         29.7702  36.1001  35.4966 H              1 <1>                0.0000
     19 H19         31.9084  34.8602  35.2978 H              1 <1>                0.0000
     20 H20         31.8461  36.2151  34.1453 H              1 <1>                0.0000
     21 H21         34.0437  36.1208  35.2900 H              1 <1>                0.0000
     22 H22         33.1659  37.6102  35.7139 H              1 <1>                0.0000
     23 H23         33.2592  35.0609  37.3899 H              1 <1>                0.0000
     24 H24         34.1595  36.5588  37.7279 H              1 <1>                0.0000
     25 H25         32.0836  36.4438  39.0793 H              1 <1>                0.0000
     26 H26         32.0213  37.7988  37.9267 H              1 <1>                0.0000
     27 H27         30.7637  35.0488  37.5107 H              1 <1>                0.0000
@<TRIPOS>BOND
    1    1    2 1     
    2    1   15 1     
    3    1   16 1     
    4    1   17 1     
    5    2    3 1     
    6    3    4 2     
    7    3    5 1     
    8    5    6 1     
    9    5   10 1     
   10    5   18 1     
   11    6    7 1     
   12    6   19 1     
   13    6   20 1     
   14    7    8 1     
   15    7   21 1     
   16    7   22 1     
   17    8    9 1     
   18    8   23 1     
   19    8   24 1     
   20    9   10 1     
   21    9   25 1     
   22    9   26 1     
   23   10   11 1     
   24   10   27 1     
   25   11   12 2     
   26   11   13 2     
   27   11   14 1     
@<TRIPOS>SUBSTRUCTURE
      1 ****           1
@<TRIPOS>COMMENT
> <Gold.Version>
2022.2.0

> <Gold.Id.Protein>
1qkm|1qkm_protein|mol2

> <Gold.Protein.RotatedTorsions>
[  496  491  490  487 ] final   92.77 input  -89.99 | X-H torsion

> <Gold.Protein.ActiveResidues>
 MET295  LEU298  THR299  LEU301  ALA302  GLU305  TRP335  MET336  LEU339  MET340 
 GLY342  LEU343  ARG346  PHE356  ILE373  ILE376  PHE377  LEU380  LYS471  GLY472 
 MET473  HIS475  LEU476  LEU477  ASN478  MET479  VAL484  VAL487 

> <Gold.Protein.RotatedAtoms>
   36.8458   33.0047   41.9906 H   0  0  0  0  0  0  0  0  0  0  0  0  # atno 496  bound_to 491 

> <Gold.Score>
     Score     S(PLP)   S(hbond)     S(cho)   S(metal)  DE(clash)   DE(tors)     intcor
     32.86     -32.94       0.00       0.00       0.00       0.02       0.22       0.38

> <Gold.PLP.Fitness>
32.8568

> <Gold.PLP.PLP>
-32.9371

> <Gold.PLP.part.hbond>
0.0000

> <Gold.PLP.part.metal>
0.0000

> <Gold.PLP.part.buried>
-2.8123

> <Gold.PLP.part.nonpolar>
-30.5593

> <Gold.PLP.part.repulsive>
0.0661

> <Gold.PLP.ligand.clash>
0.0219

> <Gold.PLP.ligand.torsion>
0.2182

> <Gold.PLP.Chemscore.Hbond>
0.0000

> <Gold.PLP.Chemscore.CHOScore>
0.0000

> <Gold.PLP.Chemscore.Metal>
0.0000

> <Gold.PLP.Chemscore.Internal.Correction>
0.3780

