#       Name:                EN300-125264_i004
#       Creating user name   aseyller
#       Creation time:       Fri Apr 21 16:45:26 2023


#       File generated by GOLD software.
#

@<TRIPOS>MOLECULE
EN300-125264_i004|Sulfonylchlorides|mol2|73|dock19
    27    27     1
SMALL
USER_CHARGES


@<TRIPOS>ATOM
      1 C1          31.6316  34.1171  38.5967 C.3            1 <1>                0.0000
      2 O2          31.3178  35.4977  38.9187 O.3            1 <1>                0.0000
      3 C3          30.0255  35.8570  38.8668 C.2            1 <1>                0.0000
      4 O4          29.1938  35.0678  38.4856 O.2            1 <1>                0.0000
      5 C5          29.6119  37.2449  39.2838 C.3            1 <1>                0.0000
      6 C6          30.4237  38.2767  38.4982 C.3            1 <1>                0.0000
      7 C7          30.1657  38.0960  37.0010 C.3            1 <1>                0.0000
      8 C8          28.6760  38.2924  36.7128 C.3            1 <1>                0.0000
      9 C9          27.8642  37.2606  37.4984 C.3            1 <1>                0.0000
     10 C10         28.1222  37.4413  38.9956 C.3            1 <1>                0.0000
     11 S11         27.1597  36.2180  39.9271 S.o2           1 <1>                0.0000
     12 O12         26.4057  35.3992  39.0437 O.2            1 <1>                0.0000
     13 O13         27.9478  35.6466  40.9623 O.2            1 <1>                0.0000
     14 Cl14        25.7688  37.3090  40.9045 Cl             1 <1>                0.0000
     15 H15         32.7073  33.9608  38.6769 H              1 <1>                0.0000
     16 H16         31.1153  33.4555  39.2923 H              1 <1>                0.0000
     17 H17         31.3075  33.8987  37.5791 H              1 <1>                0.0000
     18 H18         29.7957  37.3737  40.3505 H              1 <1>                0.0000
     19 H19         30.1246  39.2805  38.7999 H              1 <1>                0.0000
     20 H20         31.4850  38.1368  38.7035 H              1 <1>                0.0000
     21 H21         30.7441  38.8311  36.4413 H              1 <1>                0.0000
     22 H22         30.4648  37.0922  36.6993 H              1 <1>                0.0000
     23 H23         28.3768  39.2962  37.0146 H              1 <1>                0.0000
     24 H24         28.4922  38.1637  35.6461 H              1 <1>                0.0000
     25 H25         26.8029  37.4005  37.2932 H              1 <1>                0.0000
     26 H26         28.1633  36.2567  37.1967 H              1 <1>                0.0000
     27 H27         27.8230  38.4450  39.2974 H              1 <1>                0.0000
@<TRIPOS>BOND
    1    1    2 1     
    2    1   15 1     
    3    1   16 1     
    4    1   17 1     
    5    2    3 1     
    6    3    4 2     
    7    3    5 1     
    8    5    6 1     
    9    5   10 1     
   10    5   18 1     
   11    6    7 1     
   12    6   19 1     
   13    6   20 1     
   14    7    8 1     
   15    7   21 1     
   16    7   22 1     
   17    8    9 1     
   18    8   23 1     
   19    8   24 1     
   20    9   10 1     
   21    9   25 1     
   22    9   26 1     
   23   10   11 1     
   24   10   27 1     
   25   11   12 2     
   26   11   13 2     
   27   11   14 1     
@<TRIPOS>SUBSTRUCTURE
      1 ****           1
@<TRIPOS>COMMENT
> <Gold.Version>
2022.2.0

> <Gold.Id.Protein>
1qkm|1qkm_protein|mol2

> <Gold.Protein.RotatedTorsions>
[  496  491  490  487 ] final  -73.44 input  -89.99 | X-H torsion

> <Gold.Protein.ActiveResidues>
 MET295  LEU298  THR299  LEU301  ALA302  GLU305  TRP335  MET336  LEU339  MET340 
 GLY342  LEU343  ARG346  PHE356  ILE373  ILE376  PHE377  LEU380  LYS471  GLY472 
 MET473  HIS475  LEU476  LEU477  ASN478  MET479  VAL484  VAL487 

> <Gold.Protein.RotatedAtoms>
   36.6079   34.7266   41.2938 H   0  0  0  0  0  0  0  0  0  0  0  0  # atno 496  bound_to 491 

> <Gold.Score>
     Score     S(PLP)   S(hbond)     S(cho)   S(metal)  DE(clash)   DE(tors)     intcor
     28.95     -29.54       0.00       0.00       0.00       0.24       0.37       0.38

> <Gold.PLP.Fitness>
28.9473

> <Gold.PLP.PLP>
-29.5449

> <Gold.PLP.part.hbond>
0.0000

> <Gold.PLP.part.metal>
0.0000

> <Gold.PLP.part.buried>
-1.2331

> <Gold.PLP.part.nonpolar>
-29.1646

> <Gold.PLP.part.repulsive>
0.3339

> <Gold.PLP.ligand.clash>
0.2360

> <Gold.PLP.ligand.torsion>
0.3698

> <Gold.PLP.Chemscore.Hbond>
0.0000

> <Gold.PLP.Chemscore.CHOScore>
0.0000

> <Gold.PLP.Chemscore.Metal>
0.0000

> <Gold.PLP.Chemscore.Internal.Correction>
0.3780

