#       Name:                EN300-125264_i004
#       Creating user name   aseyller
#       Creation time:       Fri Apr 21 16:45:27 2023


#       File generated by GOLD software.
#

@<TRIPOS>MOLECULE
EN300-125264_i004|Sulfonylchlorides|mol2|73|dock20
    27    27     1
SMALL
USER_CHARGES


@<TRIPOS>ATOM
      1 C1          29.3966  36.9807  40.7703 C.3            1 <1>                0.0000
      2 O2          29.2641  37.3077  39.3618 O.3            1 <1>                0.0000
      3 C3          30.0868  36.6765  38.5096 C.2            1 <1>                0.0000
      4 O4          31.0247  36.0429  38.9327 O.2            1 <1>                0.0000
      5 C5          29.8409  36.7580  37.0250 C.3            1 <1>                0.0000
      6 C6          28.6720  37.7070  36.7530 C.3            1 <1>                0.0000
      7 C7          29.0093  39.0989  37.2912 C.3            1 <1>                0.0000
      8 C8          30.2658  39.6246  36.5942 C.3            1 <1>                0.0000
      9 C9          31.4347  38.6756  36.8662 C.3            1 <1>                0.0000
     10 C10         31.0974  37.2837  36.3280 C.3            1 <1>                0.0000
     11 S11         32.4833  36.1585  36.6505 S.o2           1 <1>                0.0000
     12 O12         33.2002  36.5690  37.8068 O.2            1 <1>                0.0000
     13 O13         32.0782  34.8071  36.4812 O.2            1 <1>                0.0000
     14 Cl14        33.7661  36.4889  35.1255 Cl             1 <1>                0.0000
     15 H15         28.6750  37.5591  41.3470 H              1 <1>                0.0000
     16 H16         29.2087  35.9168  40.9155 H              1 <1>                0.0000
     17 H17         30.4057  37.2205  41.1056 H              1 <1>                0.0000
     18 H18         29.6006  35.7664  36.6415 H              1 <1>                0.0000
     19 H19         28.4942  37.7659  35.6793 H              1 <1>                0.0000
     20 H20         27.7769  37.3325  37.2495 H              1 <1>                0.0000
     21 H21         28.1765  39.7750  37.0975 H              1 <1>                0.0000
     22 H22         29.1872  39.0400  38.3650 H              1 <1>                0.0000
     23 H23         30.0879  39.6834  35.5204 H              1 <1>                0.0000
     24 H24         30.5060  40.6162  36.9777 H              1 <1>                0.0000
     25 H25         32.3298  39.0500  36.3697 H              1 <1>                0.0000
     26 H26         31.6126  38.6167  37.9401 H              1 <1>                0.0000
     27 H27         30.9196  37.3425  35.2543 H              1 <1>                0.0000
@<TRIPOS>BOND
    1    1    2 1     
    2    1   15 1     
    3    1   16 1     
    4    1   17 1     
    5    2    3 1     
    6    3    4 2     
    7    3    5 1     
    8    5    6 1     
    9    5   10 1     
   10    5   18 1     
   11    6    7 1     
   12    6   19 1     
   13    6   20 1     
   14    7    8 1     
   15    7   21 1     
   16    7   22 1     
   17    8    9 1     
   18    8   23 1     
   19    8   24 1     
   20    9   10 1     
   21    9   25 1     
   22    9   26 1     
   23   10   11 1     
   24   10   27 1     
   25   11   12 2     
   26   11   13 2     
   27   11   14 1     
@<TRIPOS>SUBSTRUCTURE
      1 ****           1
@<TRIPOS>COMMENT
> <Gold.Version>
2022.2.0

> <Gold.Id.Protein>
1qkm|1qkm_protein|mol2

> <Gold.Protein.RotatedTorsions>
[  496  491  490  487 ] final  -18.58 input  -89.99 | X-H torsion

> <Gold.Protein.ActiveResidues>
 MET295  LEU298  THR299  LEU301  ALA302  GLU305  TRP335  MET336  LEU339  MET340 
 GLY342  LEU343  ARG346  PHE356  ILE373  ILE376  PHE377  LEU380  LYS471  GLY472 
 MET473  HIS475  LEU476  LEU477  ASN478  MET479  VAL484  VAL487 

> <Gold.Protein.RotatedAtoms>
   36.2773   34.4539   42.0498 H   0  0  0  0  0  0  0  0  0  0  0  0  # atno 496  bound_to 491 

> <Gold.Score>
     Score     S(PLP)   S(hbond)     S(cho)   S(metal)  DE(clash)   DE(tors)     intcor
     29.16     -32.31       0.00       0.00       0.00       1.42       1.06       0.38

> <Gold.PLP.Fitness>
29.1581

> <Gold.PLP.PLP>
-32.3147

> <Gold.PLP.part.hbond>
0.0000

> <Gold.PLP.part.metal>
0.0000

> <Gold.PLP.part.buried>
-0.9511

> <Gold.PLP.part.nonpolar>
-30.6726

> <Gold.PLP.part.repulsive>
0.1725

> <Gold.PLP.ligand.clash>
1.4214

> <Gold.PLP.ligand.torsion>
1.0566

> <Gold.PLP.Chemscore.Hbond>
0.0000

> <Gold.PLP.Chemscore.CHOScore>
0.0000

> <Gold.PLP.Chemscore.Metal>
0.0000

> <Gold.PLP.Chemscore.Internal.Correction>
0.3780

