#       Name:                EN300-125264_i004
#       Creating user name   aseyller
#       Creation time:       Fri Apr 21 16:45:12 2023


#       File generated by GOLD software.
#

@<TRIPOS>MOLECULE
EN300-125264_i004|Sulfonylchlorides|mol2|73|dock1
    27    27     1
SMALL
USER_CHARGES


@<TRIPOS>ATOM
      1 C1          32.1593  36.6288  35.2815 C.3            1 <1>                0.0000
      2 O2          31.7249  37.6792  36.1849 O.3            1 <1>                0.0000
      3 C3          30.6723  37.4087  36.9727 C.2            1 <1>                0.0000
      4 O4          30.0857  36.3586  36.8579 O.2            1 <1>                0.0000
      5 C5          30.2220  38.4148  38.0005 C.3            1 <1>                0.0000
      6 C6          29.9740  39.7626  37.3204 C.3            1 <1>                0.0000
      7 C7          28.8893  39.6035  36.2532 C.3            1 <1>                0.0000
      8 C8          27.5954  39.1178  36.9095 C.3            1 <1>                0.0000
      9 C9          27.8434  37.7699  37.5897 C.3            1 <1>                0.0000
     10 C10         28.9281  37.9290  38.6569 C.3            1 <1>                0.0000
     11 S11         29.2221  36.3309  39.4633 S.o2           1 <1>                0.0000
     12 O12         28.2152  35.3963  39.1000 O.2            1 <1>                0.0000
     13 O13         30.5991  35.9860  39.3994 O.2            1 <1>                0.0000
     14 Cl14        28.8880  36.6864  41.4235 Cl             1 <1>                0.0000
     15 H15         33.0158  36.9772  34.7044 H              1 <1>                0.0000
     16 H16         32.4434  35.7483  35.8579 H              1 <1>                0.0000
     17 H17         31.3447  36.3723  34.6041 H              1 <1>                0.0000
     18 H18         30.9948  38.5281  38.7608 H              1 <1>                0.0000
     19 H19         29.6484  40.4902  38.0637 H              1 <1>                0.0000
     20 H20         30.8958  40.1086  36.8528 H              1 <1>                0.0000
     21 H21         28.7126  40.5637  35.7686 H              1 <1>                0.0000
     22 H22         29.2150  38.8758  35.5098 H              1 <1>                0.0000
     23 H23         27.2698  39.8454  37.6530 H              1 <1>                0.0000
     24 H24         26.8226  39.0044  36.1492 H              1 <1>                0.0000
     25 H25         26.9216  37.4238  38.0574 H              1 <1>                0.0000
     26 H26         28.1690  37.0422  36.8463 H              1 <1>                0.0000
     27 H27         28.6025  38.6565  39.4003 H              1 <1>                0.0000
@<TRIPOS>BOND
    1    1    2 1     
    2    1   15 1     
    3    1   16 1     
    4    1   17 1     
    5    2    3 1     
    6    3    4 2     
    7    3    5 1     
    8    5    6 1     
    9    5   10 1     
   10    5   18 1     
   11    6    7 1     
   12    6   19 1     
   13    6   20 1     
   14    7    8 1     
   15    7   21 1     
   16    7   22 1     
   17    8    9 1     
   18    8   23 1     
   19    8   24 1     
   20    9   10 1     
   21    9   25 1     
   22    9   26 1     
   23   10   11 1     
   24   10   27 1     
   25   11   12 2     
   26   11   13 2     
   27   11   14 1     
@<TRIPOS>SUBSTRUCTURE
      1 ****           1
@<TRIPOS>COMMENT
> <Gold.Version>
2022.2.0

> <Gold.Id.Protein>
1qkm|1qkm_protein|mol2

> <Gold.Protein.RotatedTorsions>
[  496  491  490  487 ] final  -86.39 input  -89.99 | X-H torsion

> <Gold.Protein.ActiveResidues>
 MET295  LEU298  THR299  LEU301  ALA302  GLU305  TRP335  MET336  LEU339  MET340 
 GLY342  LEU343  ARG346  PHE356  ILE373  ILE376  PHE377  LEU380  LYS471  GLY472 
 MET473  HIS475  LEU476  LEU477  ASN478  MET479  VAL484  VAL487 

> <Gold.Protein.RotatedAtoms>
   36.7241   34.6754   41.1233 H   0  0  0  0  0  0  0  0  0  0  0  0  # atno 496  bound_to 491 

> <Gold.Score>
     Score     S(PLP)   S(hbond)     S(cho)   S(metal)  DE(clash)   DE(tors)     intcor
     33.70     -33.84       0.00       0.00       0.00       0.23       0.24       0.57

> <Gold.PLP.Fitness>
33.7013

> <Gold.PLP.PLP>
-33.8353

> <Gold.PLP.part.hbond>
0.0000

> <Gold.PLP.part.metal>
0.0000

> <Gold.PLP.part.buried>
-2.6186

> <Gold.PLP.part.nonpolar>
-31.5388

> <Gold.PLP.part.repulsive>
0.5419

> <Gold.PLP.ligand.clash>
0.2317

> <Gold.PLP.ligand.torsion>
0.2386

> <Gold.PLP.Chemscore.Hbond>
0.0000

> <Gold.PLP.Chemscore.CHOScore>
0.0000

> <Gold.PLP.Chemscore.Metal>
0.0000

> <Gold.PLP.Chemscore.Internal.Correction>
0.5747

