#       Name:                EN300-125264_i004
#       Creating user name   aseyller
#       Creation time:       Fri Apr 21 16:45:12 2023


#       File generated by GOLD software.
#

@<TRIPOS>MOLECULE
EN300-125264_i004
    27    27     1
SMALL
USER_CHARGES


@<TRIPOS>ATOM
      1 C1          -0.0865   3.4745   0.6559 C.3            1 <1>                0.0000
      2 O2          -0.4146   2.4231  -0.2903 O.3            1 <1>                0.0000
      3 C3           0.0790   1.2006  -0.0382 C.2            1 <1>                0.0000
      4 O4           0.7626   1.0151   0.9407 O.2            1 <1>                0.0000
      5 C5          -0.2194   0.0593  -0.9761 C.3            1 <1>                0.0000
      6 C6           1.0903  -0.4852  -1.5497 C.3            1 <1>                0.0000
      7 C7           1.9794  -0.9824  -0.4081 C.3            1 <1>                0.0000
      8 C8           1.2558  -2.0937   0.3550 C.3            1 <1>                0.0000
      9 C9          -0.0539  -1.5492   0.9286 C.3            1 <1>                0.0000
     10 C10         -0.9430  -1.0520  -0.2130 C.3            1 <1>                0.0000
     11 S11         -2.4958  -0.4064   0.4671 S.o2           1 <1>                0.0000
     12 O12         -3.3315  -1.4711   0.8999 O.2            1 <1>                0.0000
     13 O13         -2.2459   0.7150   1.3033 O.2            1 <1>                0.0000
     14 Cl14        -3.4618   0.3679  -1.1291 Cl             1 <1>                0.0000
     15 H15         -0.5469   4.4088   0.3348 H              1 <1>                0.0000
     16 H16         -0.4618   3.2049   1.6431 H              1 <1>                0.0000
     17 H17          0.9955   3.5989   0.7000 H              1 <1>                0.0000
     18 H18         -0.8528   0.4135  -1.7894 H              1 <1>                0.0000
     19 H19          0.8745  -1.3106  -2.2280 H              1 <1>                0.0000
     20 H20          1.6058   0.3065  -2.0933 H              1 <1>                0.0000
     21 H21          2.9125  -1.3703  -0.8167 H              1 <1>                0.0000
     22 H22          2.1952  -0.1569   0.2703 H              1 <1>                0.0000
     23 H23          1.0399  -2.9191  -0.3234 H              1 <1>                0.0000
     24 H24          1.8892  -2.4479   1.1683 H              1 <1>                0.0000
     25 H25         -0.5695  -2.3409   1.4722 H              1 <1>                0.0000
     26 H26          0.1619  -0.7237   1.6070 H              1 <1>                0.0000
     27 H27         -1.1589  -1.8774  -0.8913 H              1 <1>                0.0000
@<TRIPOS>BOND
    1    1    2 1     
    2    1   15 1     
    3    1   16 1     
    4    1   17 1     
    5    2    3 1     
    6    3    4 2     
    7    3    5 1     
    8    5    6 1     
    9    5   10 1     
   10    5   18 1     
   11    6    7 1     
   12    6   19 1     
   13    6   20 1     
   14    7    8 1     
   15    7   21 1     
   16    7   22 1     
   17    8    9 1     
   18    8   23 1     
   19    8   24 1     
   20    9   10 1     
   21    9   25 1     
   22    9   26 1     
   23   10   11 1     
   24   10   27 1     
   25   11   12 2     
   26   11   13 2     
   27   11   14 1     
@<TRIPOS>SUBSTRUCTURE
      1 ****           1
