#       Name:                EN300-125264_i004
#       Creating user name   aseyller
#       Creation time:       Fri Apr 21 16:45:15 2023


#       File generated by GOLD software.
#

@<TRIPOS>MOLECULE
EN300-125264_i004|Sulfonylchlorides|mol2|73|dock4
    27    27     1
SMALL
USER_CHARGES


@<TRIPOS>ATOM
      1 C1          28.8045  36.6441  42.0476 C.3            1 <1>                0.0000
      2 O2          28.8112  35.8831  40.8110 O.3            1 <1>                0.0000
      3 C3          29.0035  36.5698  39.6739 C.2            1 <1>                0.0000
      4 O4          29.6681  37.5789  39.6825 O.2            1 <1>                0.0000
      5 C5          28.3905  36.0824  38.3863 C.3            1 <1>                0.0000
      6 C6          26.8853  35.8879  38.5796 C.3            1 <1>                0.0000
      7 C7          26.2458  37.2199  38.9767 C.3            1 <1>                0.0000
      8 C8          26.4892  38.2515  37.8733 C.3            1 <1>                0.0000
      9 C9          27.9944  38.4460  37.6800 C.3            1 <1>                0.0000
     10 C10         28.6340  37.1140  37.2829 C.3            1 <1>                0.0000
     11 S11         30.4186  37.3446  37.0538 S.o2           1 <1>                0.0000
     12 O12         30.7438  38.7277  37.0305 O.2            1 <1>                0.0000
     13 O13         31.1474  36.4344  37.8659 O.2            1 <1>                0.0000
     14 Cl14        30.7694  36.7185  35.1656 Cl             1 <1>                0.0000
     15 H15         28.6401  35.9699  42.8881 H              1 <1>                0.0000
     16 H16         29.7630  37.1488  42.1687 H              1 <1>                0.0000
     17 H17         28.0055  37.3847  42.0141 H              1 <1>                0.0000
     18 H18         28.8461  35.1334  38.1034 H              1 <1>                0.0000
     19 H19         26.4420  35.5353  37.6484 H              1 <1>                0.0000
     20 H20         26.7119  35.1530  39.3656 H              1 <1>                0.0000
     21 H21         25.1734  37.0814  39.1144 H              1 <1>                0.0000
     22 H22         26.6892  37.5725  39.9080 H              1 <1>                0.0000
     23 H23         26.0459  37.8989  36.9421 H              1 <1>                0.0000
     24 H24         26.0336  39.2005  38.1563 H              1 <1>                0.0000
     25 H25         28.1679  39.1809  36.8939 H              1 <1>                0.0000
     26 H26         28.4378  38.7986  38.6113 H              1 <1>                0.0000
     27 H27         28.1907  36.7615  36.3517 H              1 <1>                0.0000
@<TRIPOS>BOND
    1    1    2 1     
    2    1   15 1     
    3    1   16 1     
    4    1   17 1     
    5    2    3 1     
    6    3    4 2     
    7    3    5 1     
    8    5    6 1     
    9    5   10 1     
   10    5   18 1     
   11    6    7 1     
   12    6   19 1     
   13    6   20 1     
   14    7    8 1     
   15    7   21 1     
   16    7   22 1     
   17    8    9 1     
   18    8   23 1     
   19    8   24 1     
   20    9   10 1     
   21    9   25 1     
   22    9   26 1     
   23   10   11 1     
   24   10   27 1     
   25   11   12 2     
   26   11   13 2     
   27   11   14 1     
@<TRIPOS>SUBSTRUCTURE
      1 ****           1
@<TRIPOS>COMMENT
> <Gold.Version>
2022.2.0

> <Gold.Id.Protein>
1qkm|1qkm_protein|mol2

> <Gold.Protein.RotatedTorsions>
[  496  491  490  487 ] final   93.66 input  -89.99 | X-H torsion

> <Gold.Protein.ActiveResidues>
 MET295  LEU298  THR299  LEU301  ALA302  GLU305  TRP335  MET336  LEU339  MET340 
 GLY342  LEU343  ARG346  PHE356  ILE373  ILE376  PHE377  LEU380  LYS471  GLY472 
 MET473  HIS475  LEU476  LEU477  ASN478  MET479  VAL484  VAL487 

> <Gold.Protein.RotatedAtoms>
   36.8540   32.9996   41.9795 H   0  0  0  0  0  0  0  0  0  0  0  0  # atno 496  bound_to 491 

> <Gold.Score>
     Score     S(PLP)   S(hbond)     S(cho)   S(metal)  DE(clash)   DE(tors)     intcor
     33.85     -34.71       0.00       0.00       0.00       0.23       0.61       0.57

> <Gold.PLP.Fitness>
33.8493

> <Gold.PLP.PLP>
-34.7136

> <Gold.PLP.part.hbond>
0.0000

> <Gold.PLP.part.metal>
0.0000

> <Gold.PLP.part.buried>
-1.0752

> <Gold.PLP.part.nonpolar>
-32.8854

> <Gold.PLP.part.repulsive>
0.2019

> <Gold.PLP.ligand.clash>
0.2271

> <Gold.PLP.ligand.torsion>
0.6059

> <Gold.PLP.Chemscore.Hbond>
0.0000

> <Gold.PLP.Chemscore.CHOScore>
0.0000

> <Gold.PLP.Chemscore.Metal>
0.0000

> <Gold.PLP.Chemscore.Internal.Correction>
0.5747

