#       Name:                EN300-125264_i004
#       Creating user name   aseyller
#       Creation time:       Fri Apr 21 16:45:14 2023


#       File generated by GOLD software.
#

@<TRIPOS>MOLECULE
EN300-125264_i004|Sulfonylchlorides|mol2|73|dock3
    27    27     1
SMALL
USER_CHARGES


@<TRIPOS>ATOM
      1 C1          29.8470  40.1769  37.0204 C.3            1 <1>                0.0000
      2 O2          29.5265  38.8404  36.5520 O.3            1 <1>                0.0000
      3 C3          30.4062  37.8675  36.8373 C.2            1 <1>                0.0000
      4 O4          31.0770  37.9344  37.8400 O.2            1 <1>                0.0000
      5 C5          30.5572  36.6916  35.9068 C.3            1 <1>                0.0000
      6 C6          30.8471  37.1951  34.4915 C.3            1 <1>                0.0000
      7 C7          32.1411  38.0115  34.4956 C.3            1 <1>                0.0000
      8 C8          33.2984  37.1307  34.9707 C.3            1 <1>                0.0000
      9 C9          33.0085  36.6272  36.3861 C.3            1 <1>                0.0000
     10 C10         31.7145  35.8108  36.3819 C.3            1 <1>                0.0000
     11 S11         31.3707  35.2138  38.0600 S.o2           1 <1>                0.0000
     12 O12         32.4263  35.5702  38.9421 O.2            1 <1>                0.0000
     13 O13         30.0138  35.4543  38.4067 O.2            1 <1>                0.0000
     14 Cl14        31.4992  33.2031  37.9159 Cl             1 <1>                0.0000
     15 H15         29.0558  40.8653  36.7236 H              1 <1>                0.0000
     16 H16         29.9339  40.1700  38.1069 H              1 <1>                0.0000
     17 H17         30.7918  40.4987  36.5823 H              1 <1>                0.0000
     18 H18         29.6353  36.1099  35.9039 H              1 <1>                0.0000
     19 H19         30.9563  36.3446  33.8186 H              1 <1>                0.0000
     20 H20         30.0227  37.8226  34.1531 H              1 <1>                0.0000
     21 H21         32.3477  38.3703  33.4873 H              1 <1>                0.0000
     22 H22         32.0318  38.8620  35.1686 H              1 <1>                0.0000
     23 H23         33.4075  36.2802  34.2978 H              1 <1>                0.0000
     24 H24         34.2202  37.7124  34.9737 H              1 <1>                0.0000
     25 H25         33.8329  35.9996  36.7245 H              1 <1>                0.0000
     26 H26         32.8992  37.4777  37.0591 H              1 <1>                0.0000
     27 H27         31.8237  34.9602  35.7091 H              1 <1>                0.0000
@<TRIPOS>BOND
    1    1    2 1     
    2    1   15 1     
    3    1   16 1     
    4    1   17 1     
    5    2    3 1     
    6    3    4 2     
    7    3    5 1     
    8    5    6 1     
    9    5   10 1     
   10    5   18 1     
   11    6    7 1     
   12    6   19 1     
   13    6   20 1     
   14    7    8 1     
   15    7   21 1     
   16    7   22 1     
   17    8    9 1     
   18    8   23 1     
   19    8   24 1     
   20    9   10 1     
   21    9   25 1     
   22    9   26 1     
   23   10   11 1     
   24   10   27 1     
   25   11   12 2     
   26   11   13 2     
   27   11   14 1     
@<TRIPOS>SUBSTRUCTURE
      1 ****           1
@<TRIPOS>COMMENT
> <Gold.Version>
2022.2.0

> <Gold.Id.Protein>
1qkm|1qkm_protein|mol2

> <Gold.Protein.RotatedTorsions>
[  496  491  490  487 ] final  158.60 input  -89.99 | X-H torsion

> <Gold.Protein.ActiveResidues>
 MET295  LEU298  THR299  LEU301  ALA302  GLU305  TRP335  MET336  LEU339  MET340 
 GLY342  LEU343  ARG346  PHE356  ILE373  ILE376  PHE377  LEU380  LYS471  GLY472 
 MET473  HIS475  LEU476  LEU477  ASN478  MET479  VAL484  VAL487 

> <Gold.Protein.RotatedAtoms>
   37.2929   33.1900   41.0870 H   0  0  0  0  0  0  0  0  0  0  0  0  # atno 496  bound_to 491 

> <Gold.Score>
     Score     S(PLP)   S(hbond)     S(cho)   S(metal)  DE(clash)   DE(tors)     intcor
     31.78     -32.68       0.00       0.00       0.00       0.23       0.62       0.57

> <Gold.PLP.Fitness>
31.7831

> <Gold.PLP.PLP>
-32.6799

> <Gold.PLP.part.hbond>
-0.3858

> <Gold.PLP.part.metal>
0.0000

> <Gold.PLP.part.buried>
2.5431

> <Gold.PLP.part.nonpolar>
-35.3648

> <Gold.PLP.part.repulsive>
0.1495

> <Gold.PLP.ligand.clash>
0.2335

> <Gold.PLP.ligand.torsion>
0.6190

> <Gold.PLP.Chemscore.Hbond>
0.0000

> <Gold.PLP.Chemscore.CHOScore>
0.0000

> <Gold.PLP.Chemscore.Metal>
0.0000

> <Gold.PLP.Chemscore.Internal.Correction>
0.5747

