#       Name:                EN300-125264_i004
#       Creating user name   aseyller
#       Creation time:       Fri Apr 21 16:45:20 2023


#       File generated by GOLD software.
#

@<TRIPOS>MOLECULE
EN300-125264_i004|Sulfonylchlorides|mol2|73|dock12
    27    27     1
SMALL
USER_CHARGES


@<TRIPOS>ATOM
      1 C1          30.3005  40.7694  36.0696 C.3            1 <1>                0.0000
      2 O2          30.4899  39.3743  35.7142 O.3            1 <1>                0.0000
      3 C3          29.8144  38.4649  36.4342 C.2            1 <1>                0.0000
      4 O4          29.1183  38.8199  37.3559 O.2            1 <1>                0.0000
      5 C5          29.9242  37.0011  36.0932 C.3            1 <1>                0.0000
      6 C6          30.8683  36.8243  34.9022 C.3            1 <1>                0.0000
      7 C7          32.2518  37.3690  35.2629 C.3            1 <1>                0.0000
      8 C8          32.8026  36.6045  36.4682 C.3            1 <1>                0.0000
      9 C9          31.8586  36.7813  37.6592 C.3            1 <1>                0.0000
     10 C10         30.4751  36.2365  37.2985 C.3            1 <1>                0.0000
     11 S11         29.3558  36.4461  38.7105 S.o2           1 <1>                0.0000
     12 O12         29.1237  35.1997  39.3523 O.2            1 <1>                0.0000
     13 O13         29.7085  37.6011  39.4594 O.2            1 <1>                0.0000
     14 Cl14        27.5765  36.9166  37.8778 Cl             1 <1>                0.0000
     15 H15         30.9017  41.3967  35.4117 H              1 <1>                0.0000
     16 H16         29.2483  41.0323  35.9607 H              1 <1>                0.0000
     17 H17         30.6091  40.9262  37.1032 H              1 <1>                0.0000
     18 H18         28.9386  36.6130  35.8362 H              1 <1>                0.0000
     19 H19         30.9476  35.7656  34.6556 H              1 <1>                0.0000
     20 H20         30.4758  37.3690  34.0436 H              1 <1>                0.0000
     21 H21         32.9244  37.2431  34.4144 H              1 <1>                0.0000
     22 H22         32.1724  38.4278  35.5096 H              1 <1>                0.0000
     23 H23         32.8819  35.5457  36.2216 H              1 <1>                0.0000
     24 H24         33.7883  36.9926  36.7252 H              1 <1>                0.0000
     25 H25         32.2509  36.2365  38.5179 H              1 <1>                0.0000
     26 H26         31.7792  37.8401  37.9059 H              1 <1>                0.0000
     27 H27         30.5544  35.1778  37.0519 H              1 <1>                0.0000
@<TRIPOS>BOND
    1    1    2 1     
    2    1   15 1     
    3    1   16 1     
    4    1   17 1     
    5    2    3 1     
    6    3    4 2     
    7    3    5 1     
    8    5    6 1     
    9    5   10 1     
   10    5   18 1     
   11    6    7 1     
   12    6   19 1     
   13    6   20 1     
   14    7    8 1     
   15    7   21 1     
   16    7   22 1     
   17    8    9 1     
   18    8   23 1     
   19    8   24 1     
   20    9   10 1     
   21    9   25 1     
   22    9   26 1     
   23   10   11 1     
   24   10   27 1     
   25   11   12 2     
   26   11   13 2     
   27   11   14 1     
@<TRIPOS>SUBSTRUCTURE
      1 ****           1
@<TRIPOS>COMMENT
> <Gold.Version>
2022.2.0

> <Gold.Id.Protein>
1qkm|1qkm_protein|mol2

> <Gold.Protein.RotatedTorsions>
[  496  491  490  487 ] final   19.58 input  -89.99 | X-H torsion

> <Gold.Protein.ActiveResidues>
 MET295  LEU298  THR299  LEU301  ALA302  GLU305  TRP335  MET336  LEU339  MET340 
 GLY342  LEU343  ARG346  PHE356  ILE373  ILE376  PHE377  LEU380  LYS471  GLY472 
 MET473  HIS475  LEU476  LEU477  ASN478  MET479  VAL484  VAL487 

> <Gold.Protein.RotatedAtoms>
   36.3009   33.9185   42.3548 H   0  0  0  0  0  0  0  0  0  0  0  0  # atno 496  bound_to 491 

> <Gold.Score>
     Score     S(PLP)   S(hbond)     S(cho)   S(metal)  DE(clash)   DE(tors)     intcor
     29.71     -32.87       0.00       0.00       0.00       1.78       0.88       0.38

> <Gold.PLP.Fitness>
29.7086

> <Gold.PLP.PLP>
-32.8679

> <Gold.PLP.part.hbond>
0.0000

> <Gold.PLP.part.metal>
0.0000

> <Gold.PLP.part.buried>
-2.3791

> <Gold.PLP.part.nonpolar>
-30.1995

> <Gold.PLP.part.repulsive>
0.1030

> <Gold.PLP.ligand.clash>
1.7832

> <Gold.PLP.ligand.torsion>
0.8771

> <Gold.PLP.Chemscore.Hbond>
0.0000

> <Gold.PLP.Chemscore.CHOScore>
0.0000

> <Gold.PLP.Chemscore.Metal>
0.0000

> <Gold.PLP.Chemscore.Internal.Correction>
0.3780

