#       Name:                EN300-125264_i004
#       Creating user name   aseyller
#       Creation time:       Fri Apr 21 16:45:16 2023


#       File generated by GOLD software.
#

@<TRIPOS>MOLECULE
EN300-125264_i004|Sulfonylchlorides|mol2|73|dock6
    27    27     1
SMALL
USER_CHARGES


@<TRIPOS>ATOM
      1 C1          31.3088  33.5520  38.4987 C.3            1 <1>                0.0000
      2 O2          32.0474  34.7994  38.5809 O.3            1 <1>                0.0000
      3 C3          31.6525  35.7957  37.7727 C.2            1 <1>                0.0000
      4 O4          30.6075  35.7086  37.1724 O.2            1 <1>                0.0000
      5 C5          32.5126  37.0231  37.6140 C.3            1 <1>                0.0000
      6 C6          33.9304  36.6048  37.2194 C.3            1 <1>                0.0000
      7 C7          33.8864  35.8383  35.8960 C.3            1 <1>                0.0000
      8 C8          33.2975  36.7361  34.8059 C.3            1 <1>                0.0000
      9 C9          31.8797  37.1544  35.2005 C.3            1 <1>                0.0000
     10 C10         31.9238  37.9209  36.5239 C.3            1 <1>                0.0000
     11 S11         30.2428  38.4168  36.9917 S.o2           1 <1>                0.0000
     12 O12         29.3222  38.0954  35.9580 O.2            1 <1>                0.0000
     13 O13         29.9777  38.0675  38.3434 O.2            1 <1>                0.0000
     14 Cl14        30.2970  40.4361  37.0004 Cl             1 <1>                0.0000
     15 H15         31.7296  32.8337  39.2023 H              1 <1>                0.0000
     16 H16         30.2626  33.7323  38.7456 H              1 <1>                0.0000
     17 H17         31.3799  33.1537  37.4866 H              1 <1>                0.0000
     18 H18         32.5440  37.5691  38.5568 H              1 <1>                0.0000
     19 H19         34.5524  37.4924  37.1046 H              1 <1>                0.0000
     20 H20         34.3498  35.9651  37.9959 H              1 <1>                0.0000
     21 H21         34.8964  35.5402  35.6149 H              1 <1>                0.0000
     22 H22         33.2642  34.9506  36.0108 H              1 <1>                0.0000
     23 H23         33.9196  37.6238  34.6912 H              1 <1>                0.0000
     24 H24         33.2662  36.1900  33.8631 H              1 <1>                0.0000
     25 H25         31.4602  37.7941  34.4240 H              1 <1>                0.0000
     26 H26         31.2576  36.2667  35.3153 H              1 <1>                0.0000
     27 H27         32.5457  38.8086  36.4092 H              1 <1>                0.0000
@<TRIPOS>BOND
    1    1    2 1     
    2    1   15 1     
    3    1   16 1     
    4    1   17 1     
    5    2    3 1     
    6    3    4 2     
    7    3    5 1     
    8    5    6 1     
    9    5   10 1     
   10    5   18 1     
   11    6    7 1     
   12    6   19 1     
   13    6   20 1     
   14    7    8 1     
   15    7   21 1     
   16    7   22 1     
   17    8    9 1     
   18    8   23 1     
   19    8   24 1     
   20    9   10 1     
   21    9   25 1     
   22    9   26 1     
   23   10   11 1     
   24   10   27 1     
   25   11   12 2     
   26   11   13 2     
   27   11   14 1     
@<TRIPOS>SUBSTRUCTURE
      1 ****           1
@<TRIPOS>COMMENT
> <Gold.Version>
2022.2.0

> <Gold.Id.Protein>
1qkm|1qkm_protein|mol2

> <Gold.Protein.RotatedTorsions>
[  496  491  490  487 ] final  105.37 input  -89.99 | X-H torsion

> <Gold.Protein.ActiveResidues>
 MET295  LEU298  THR299  LEU301  ALA302  GLU305  TRP335  MET336  LEU339  MET340 
 GLY342  LEU343  ARG346  PHE356  ILE373  ILE376  PHE377  LEU380  LYS471  GLY472 
 MET473  HIS475  LEU476  LEU477  ASN478  MET479  VAL484  VAL487 

> <Gold.Protein.RotatedAtoms>
   36.9594   32.9515   41.8259 H   0  0  0  0  0  0  0  0  0  0  0  0  # atno 496  bound_to 491 

> <Gold.Score>
     Score     S(PLP)   S(hbond)     S(cho)   S(metal)  DE(clash)   DE(tors)     intcor
     31.33     -32.07       0.00       0.00       0.00       0.41       0.35       0.38

> <Gold.PLP.Fitness>
31.3349

> <Gold.PLP.PLP>
-32.0663

> <Gold.PLP.part.hbond>
0.0000

> <Gold.PLP.part.metal>
0.0000

> <Gold.PLP.part.buried>
-1.9468

> <Gold.PLP.part.nonpolar>
-30.9652

> <Gold.PLP.part.repulsive>
0.0800

> <Gold.PLP.ligand.clash>
0.4132

> <Gold.PLP.ligand.torsion>
0.3481

> <Gold.PLP.Chemscore.Hbond>
0.0000

> <Gold.PLP.Chemscore.CHOScore>
0.0000

> <Gold.PLP.Chemscore.Metal>
0.0000

> <Gold.PLP.Chemscore.Internal.Correction>
0.3780

