#       Name:                EN300-125264_i004
#       Creating user name   aseyller
#       Creation time:       Fri Apr 21 16:45:24 2023


#       File generated by GOLD software.
#

@<TRIPOS>MOLECULE
EN300-125264_i004|Sulfonylchlorides|mol2|73|dock17
    27    27     1
SMALL
USER_CHARGES


@<TRIPOS>ATOM
      1 C1          31.8021  33.8060  38.5065 C.3            1 <1>                0.0000
      2 O2          31.5415  35.2334  38.5616 O.3            1 <1>                0.0000
      3 C3          32.1000  35.9922  37.6055 C.2            1 <1>                0.0000
      4 O4          32.8647  35.4976  36.8115 O.2            1 <1>                0.0000
      5 C5          31.7732  37.4610  37.5225 C.3            1 <1>                0.0000
      6 C6          32.6293  38.1133  36.4351 C.3            1 <1>                0.0000
      7 C7          32.3366  37.4487  35.0884 C.3            1 <1>                0.0000
      8 C8          30.8559  37.6231  34.7447 C.3            1 <1>                0.0000
      9 C9          29.9998  36.9709  35.8321 C.3            1 <1>                0.0000
     10 C10         30.2925  37.6354  37.1788 C.3            1 <1>                0.0000
     11 S11         29.2774  36.8621  38.4681 S.o2           1 <1>                0.0000
     12 O12         29.0813  35.4828  38.1880 O.2            1 <1>                0.0000
     13 O13         29.6914  37.2963  39.7562 O.2            1 <1>                0.0000
     14 Cl14        27.4476  37.6840  38.2296 Cl             1 <1>                0.0000
     15 H15         31.2934  33.3117  39.3341 H              1 <1>                0.0000
     16 H16         31.4335  33.4056  37.5621 H              1 <1>                0.0000
     17 H17         32.8751  33.6294  38.5820 H              1 <1>                0.0000
     18 H18         31.9817  37.9345  38.4819 H              1 <1>                0.0000
     19 H19         32.3930  39.1756  36.3750 H              1 <1>                0.0000
     20 H20         33.6842  37.9890  36.6799 H              1 <1>                0.0000
     21 H21         32.9466  37.9133  34.3136 H              1 <1>                0.0000
     22 H22         32.5729  36.3863  35.1485 H              1 <1>                0.0000
     23 H23         30.6196  38.6855  34.6847 H              1 <1>                0.0000
     24 H24         30.6474  37.1497  33.7853 H              1 <1>                0.0000
     25 H25         28.9449  37.0952  35.5874 H              1 <1>                0.0000
     26 H26         30.2361  35.9084  35.8922 H              1 <1>                0.0000
     27 H27         30.0561  38.6977  37.1188 H              1 <1>                0.0000
@<TRIPOS>BOND
    1    1    2 1     
    2    1   15 1     
    3    1   16 1     
    4    1   17 1     
    5    2    3 1     
    6    3    4 2     
    7    3    5 1     
    8    5    6 1     
    9    5   10 1     
   10    5   18 1     
   11    6    7 1     
   12    6   19 1     
   13    6   20 1     
   14    7    8 1     
   15    7   21 1     
   16    7   22 1     
   17    8    9 1     
   18    8   23 1     
   19    8   24 1     
   20    9   10 1     
   21    9   25 1     
   22    9   26 1     
   23   10   11 1     
   24   10   27 1     
   25   11   12 2     
   26   11   13 2     
   27   11   14 1     
@<TRIPOS>SUBSTRUCTURE
      1 ****           1
@<TRIPOS>COMMENT
> <Gold.Version>
2022.2.0

> <Gold.Id.Protein>
1qkm|1qkm_protein|mol2

> <Gold.Protein.RotatedTorsions>
[  496  491  490  487 ] final -113.34 input  -89.99 | X-H torsion

> <Gold.Protein.ActiveResidues>
 MET295  LEU298  THR299  LEU301  ALA302  GLU305  TRP335  MET336  LEU339  MET340 
 GLY342  LEU343  ARG346  PHE356  ILE373  ILE376  PHE377  LEU380  LYS471  GLY472 
 MET473  HIS475  LEU476  LEU477  ASN478  MET479  VAL484  VAL487 

> <Gold.Protein.RotatedAtoms>
   36.9695   34.4376   40.8468 H   0  0  0  0  0  0  0  0  0  0  0  0  # atno 496  bound_to 491 

> <Gold.Score>
     Score     S(PLP)   S(hbond)     S(cho)   S(metal)  DE(clash)   DE(tors)     intcor
     29.61     -34.17       0.00       0.00       0.00       3.36       0.79       0.38

> <Gold.PLP.Fitness>
29.6062

> <Gold.PLP.PLP>
-34.1705

> <Gold.PLP.part.hbond>
0.0000

> <Gold.PLP.part.metal>
0.0000

> <Gold.PLP.part.buried>
-2.5402

> <Gold.PLP.part.nonpolar>
-31.4554

> <Gold.PLP.part.repulsive>
0.1498

> <Gold.PLP.ligand.clash>
3.3554

> <Gold.PLP.ligand.torsion>
0.7935

> <Gold.PLP.Chemscore.Hbond>
0.0000

> <Gold.PLP.Chemscore.CHOScore>
0.0000

> <Gold.PLP.Chemscore.Metal>
0.0000

> <Gold.PLP.Chemscore.Internal.Correction>
0.3780

