#       Name:                EN300-125264_i004
#       Creating user name   aseyller
#       Creation time:       Fri Apr 21 16:45:21 2023


#       File generated by GOLD software.
#

@<TRIPOS>MOLECULE
EN300-125264_i004|Sulfonylchlorides|mol2|73|dock13
    27    27     1
SMALL
USER_CHARGES


@<TRIPOS>ATOM
      1 C1          31.4939  33.5108  38.2003 C.3            1 <1>                0.0000
      2 O2          32.1002  34.7987  38.4867 O.3            1 <1>                0.0000
      3 C3          31.6343  35.8567  37.8047 C.2            1 <1>                0.0000
      4 O4          30.5225  35.8291  37.3323 O.2            1 <1>                0.0000
      5 C5          32.4978  37.0792  37.6282 C.3            1 <1>                0.0000
      6 C6          33.8392  36.6719  37.0155 C.3            1 <1>                0.0000
      7 C7          33.5999  36.0157  35.6542 C.3            1 <1>                0.0000
      8 C8          32.8957  37.0079  34.7265 C.3            1 <1>                0.0000
      9 C9          31.5543  37.4152  35.3392 C.3            1 <1>                0.0000
     10 C10         31.7936  38.0714  36.7005 C.3            1 <1>                0.0000
     11 S11         30.2031  38.5543  37.4270 S.o2           1 <1>                0.0000
     12 O12         30.0026  37.8963  38.6704 O.2            1 <1>                0.0000
     13 O13         30.0008  39.9549  37.2983 O.2            1 <1>                0.0000
     14 Cl14        28.8205  37.7366  36.2021 Cl             1 <1>                0.0000
     15 H15         31.9612  32.7439  38.8180 H              1 <1>                0.0000
     16 H16         30.4272  33.5544  38.4202 H              1 <1>                0.0000
     17 H17         31.6382  33.2674  37.1476 H              1 <1>                0.0000
     18 H18         32.6683  37.5467  38.5980 H              1 <1>                0.0000
     19 H19         34.4637  37.5560  36.8878 H              1 <1>                0.0000
     20 H20         34.3409  35.9651  37.6763 H              1 <1>                0.0000
     21 H21         34.5556  35.7255  35.2176 H              1 <1>                0.0000
     22 H22         32.9753  35.1315  35.7819 H              1 <1>                0.0000
     23 H23         33.5202  37.8921  34.5989 H              1 <1>                0.0000
     24 H24         32.7252  36.5404  33.7567 H              1 <1>                0.0000
     25 H25         31.0526  38.1221  34.6784 H              1 <1>                0.0000
     26 H26         30.9297  36.5310  35.4669 H              1 <1>                0.0000
     27 H27         32.4180  38.9555  36.5729 H              1 <1>                0.0000
@<TRIPOS>BOND
    1    1    2 1     
    2    1   15 1     
    3    1   16 1     
    4    1   17 1     
    5    2    3 1     
    6    3    4 2     
    7    3    5 1     
    8    5    6 1     
    9    5   10 1     
   10    5   18 1     
   11    6    7 1     
   12    6   19 1     
   13    6   20 1     
   14    7    8 1     
   15    7   21 1     
   16    7   22 1     
   17    8    9 1     
   18    8   23 1     
   19    8   24 1     
   20    9   10 1     
   21    9   25 1     
   22    9   26 1     
   23   10   11 1     
   24   10   27 1     
   25   11   12 2     
   26   11   13 2     
   27   11   14 1     
@<TRIPOS>SUBSTRUCTURE
      1 ****           1
@<TRIPOS>COMMENT
> <Gold.Version>
2022.2.0

> <Gold.Id.Protein>
1qkm|1qkm_protein|mol2

> <Gold.Protein.RotatedTorsions>
[  496  491  490  487 ] final    7.27 input  -89.99 | X-H torsion

> <Gold.Protein.ActiveResidues>
 MET295  LEU298  THR299  LEU301  ALA302  GLU305  TRP335  MET336  LEU339  MET340 
 GLY342  LEU343  ARG346  PHE356  ILE373  ILE376  PHE377  LEU380  LYS471  GLY472 
 MET473  HIS475  LEU476  LEU477  ASN478  MET479  VAL484  VAL487 

> <Gold.Protein.RotatedAtoms>
   36.2679   34.1074   42.2903 H   0  0  0  0  0  0  0  0  0  0  0  0  # atno 496  bound_to 491 

> <Gold.Score>
     Score     S(PLP)   S(hbond)     S(cho)   S(metal)  DE(clash)   DE(tors)     intcor
     30.22     -31.44       0.00       0.00       0.00       0.23       0.68       0.38

> <Gold.PLP.Fitness>
30.2178

> <Gold.PLP.PLP>
-31.4390

> <Gold.PLP.part.hbond>
0.0000

> <Gold.PLP.part.metal>
0.0000

> <Gold.PLP.part.buried>
-3.2201

> <Gold.PLP.part.nonpolar>
-28.3431

> <Gold.PLP.part.repulsive>
0.0850

> <Gold.PLP.ligand.clash>
0.2347

> <Gold.PLP.ligand.torsion>
0.6822

> <Gold.PLP.Chemscore.Hbond>
0.0000

> <Gold.PLP.Chemscore.CHOScore>
0.0000

> <Gold.PLP.Chemscore.Metal>
0.0000

> <Gold.PLP.Chemscore.Internal.Correction>
0.3780

