#       Name:                EN300-843819_i001
#       Creating user name   fsindt
#       Creation time:       Mon Feb 27 21:01:57 2023


#       File generated by GOLD software.
#

@<TRIPOS>MOLECULE
EN300-843819_i001|amine_3|mol2|757|dock3
    42    43     1
SMALL
USER_CHARGES


@<TRIPOS>ATOM
      1 C1          -0.8218 -10.0908  11.2022 C.3            1 <1>                0.0000
      2 C2          -1.9382 -10.8683  10.5022 C.3            1 <1>                0.0000
      3 C3          -3.2886 -10.4748  11.1042 C.3            1 <1>                0.0000
      4 C4          -1.9303 -10.5384   9.0082 C.3            1 <1>                0.0000
      5 O5          -1.7237 -12.2928  10.6845 O.3            1 <1>                0.0000
      6 C6          -0.4994 -12.7701  10.3865 C.2            1 <1>                0.0000
      7 O7           0.1817 -12.2145   9.5474 O.2            1 <1>                0.0000
      8 C8           0.0137 -13.9661  11.0783 C.2            1 <1>                0.0000
      9 C9          -0.5117 -14.5208  12.2114 C.2            1 <1>                0.0000
     10 N10          0.2487 -15.5927  12.5102 N.pl3          1 <1>                0.0000
     11 N11          1.2460 -15.6695  11.5276 N.2            1 <1>                0.0000
     12 N12          1.0744 -14.6996  10.6982 N.2            1 <1>                0.0000
     13 C13          0.0683 -16.5027  13.6440 C.3            1 <1>                0.0000
     14 C14          1.3292 -16.4939  14.5106 C.3            1 <1>                0.0000
     15 C15          2.5259 -16.9520  13.6745 C.3            1 <1>                0.0000
     16 C16          2.2733 -18.3691  13.1560 C.3            1 <1>                0.0000
     17 C17          1.0125 -18.3779  12.2894 C.3            1 <1>                0.0000
     18 C18         -0.1842 -17.9198  13.1256 C.3            1 <1>                0.0000
     19 N19         -1.3949 -17.9283  12.2935 N.4            1 <1>                1.0000
     20 H20         -0.8275 -10.3258  12.2665 H              1 <1>                0.0000
     21 H21          0.1402 -10.3711  10.7733 H              1 <1>                0.0000
     22 H22         -0.9828  -9.0214  11.0653 H              1 <1>                0.0000
     23 H23         -3.4497  -9.4054  10.9674 H              1 <1>                0.0000
     24 H24         -4.0841 -11.0287  10.6056 H              1 <1>                0.0000
     25 H25         -3.2943 -10.7099  12.1685 H              1 <1>                0.0000
     26 H26         -0.9682 -10.8188   8.5793 H              1 <1>                0.0000
     27 H27         -2.7256 -11.0923   8.5095 H              1 <1>                0.0000
     28 H28         -2.0912  -9.4691   8.8714 H              1 <1>                0.0000
     29 H29         -1.3710 -14.1676  12.7622 H              1 <1>                0.0000
     30 H30         -0.7842 -16.1765  14.2397 H              1 <1>                0.0000
     31 H31          1.5091 -15.4843  14.8801 H              1 <1>                0.0000
     32 H32          1.1950 -17.1710  15.3543 H              1 <1>                0.0000
     33 H33          2.6601 -16.2750  12.8310 H              1 <1>                0.0000
     34 H34          3.4242 -16.9457  14.2919 H              1 <1>                0.0000
     35 H35          3.1259 -18.6954  12.5604 H              1 <1>                0.0000
     36 H36          2.1391 -19.0461  13.9997 H              1 <1>                0.0000
     37 H37          1.1467 -17.7009  11.4458 H              1 <1>                0.0000
     38 H38          0.8325 -19.3874  11.9201 H              1 <1>                0.0000
     39 H39         -0.3186 -18.5969  13.9691 H              1 <1>                0.0000
     40 H40         -1.3574 -18.7071  11.6531 H              1 <1>                0.0000
     41 H41         -2.2082 -18.0172  12.8840 H              1 <1>                0.0000
     42 H42         -1.4505 -17.0664  11.7719 H              1 <1>                0.0000
@<TRIPOS>BOND
    1    1    2 1     
    2    1   20 1     
    3    1   21 1     
    4    1   22 1     
    5    2    3 1     
    6    2    4 1     
    7    2    5 1     
    8    3   23 1     
    9    3   24 1     
   10    3   25 1     
   11    4   26 1     
   12    4   27 1     
   13    4   28 1     
   14    5    6 1     
   15    6    7 2     
   16    6    8 1     
   17    8    9 2     
   18    8   12 1     
   19    9   10 1     
   20    9   29 1     
   21   10   11 1     
   22   10   13 1     
   23   11   12 2     
   24   13   14 1     
   25   13   18 1     
   26   13   30 1     
   27   14   15 1     
   28   14   31 1     
   29   14   32 1     
   30   15   16 1     
   31   15   33 1     
   32   15   34 1     
   33   16   17 1     
   34   16   35 1     
   35   16   36 1     
   36   17   18 1     
   37   17   37 1     
   38   17   38 1     
   39   18   19 1     
   40   18   39 1     
   41   19   40 1     
   42   19   41 1     
   43   19   42 1     
@<TRIPOS>SUBSTRUCTURE
      1 ****           1
@<TRIPOS>SET
DONOR_HYDROGENS      STATIC     ATOMS    <user>   **** ""
3 40 41 42
ATOM$RED        STATIC     ATOMS    COLORGROUP SYSTEM
3 40 41 42
@<TRIPOS>COMMENT
> <Gold.Version>
2022.2.0

> <Gold.Id.Protein>
3pbl|protein|mol2

> <Gold.Protein.RotatedTorsions>
[ 1303 1298 1297 1294 ] final  154.19 input  179.99 | X-H torsion
[ 2461 2456 2455 2452 ] final   45.13 input   30.03 | X-H torsion
[ 2515 2510 2509 2506 ] final  158.02 input  -89.99 | X-H torsion
[ 3721 3712 3711 3710 ] final -100.34 input -179.91 | X-H torsion
[ 3841 3832 3831 3830 ] final  124.61 input -179.91 | X-H torsion
[ 3767 3762 3761 3758 ] final   30.16 input  -89.99 | X-H torsion
[ 2472 2467 2466 2463 ] final  143.80 input  -89.97 | X-H torsion

> <Gold.Protein.ActiveResidues>
 VAL82   VAL86   LEU89   PHE106  VAL107  ASP110  VAL111  MET112  CYS114  THR115 
 CYS181  SER182  ILE183  PHE188  VAL189  ILE190  SER192  SER193  SER196  TRP342 
 PHE345  PHE346  HIS349  VAL350  TYR365  THR369  GLY372  TYR373 

> <Gold.Protein.RotatedAtoms>
    4.9097   -9.2498    4.8645 H   0  0  0  0  0  0  0  0  0  0  0  0  # atno 1303 bound_to 1298
    1.7338   -7.9530    7.2373 H   0  0  0  0  0  0  0  0  0  0  0  0  # atno 2461 bound_to 2456
   -5.5096   -5.2125    8.4844 H   0  0  0  0  0  0  0  0  0  0  0  0  # atno 2472 bound_to 2467
    2.1862   -8.7615    6.0276 H   0  0  0  0  0  0  0  0  0  0  0  0  # atno 2515 bound_to 2510
   -3.0978  -16.8334   14.6097 H   0  0  0  0  0  0  0  0  0  0  0  0  # atno 3721 bound_to 3712
   -4.9808  -23.0583   10.0648 H   0  0  0  0  0  0  0  0  0  0  0  0  # atno 3767 bound_to 3762
    3.1015  -20.6821    8.8883 H   0  0  0  0  0  0  0  0  0  0  0  0  # atno 3841 bound_to 3832
    3.6785  -10.2063    4.3794 LP  0  0  0  0  0  0  0  0  0  0  0  0  # atno 4297 bound_to 1298
    3.7737   -8.6653    3.8476 LP  0  0  0  0  0  0  0  0  0  0  0  0  # atno 4298 bound_to 1298
    0.3313   -8.7368    7.5307 LP  0  0  0  0  0  0  0  0  0  0  0  0  # atno 4299 bound_to 2456
    1.6728   -9.1182    8.3800 LP  0  0  0  0  0  0  0  0  0  0  0  0  # atno 4300 bound_to 2456
    2.2783   -7.4091    5.1176 LP  0  0  0  0  0  0  0  0  0  0  0  0  # atno 4301 bound_to 2510
    2.8323   -8.8283    4.5297 LP  0  0  0  0  0  0  0  0  0  0  0  0  # atno 4302 bound_to 2510
   -3.3423  -17.0767   13.0417 LP  0  0  0  0  0  0  0  0  0  0  0  0  # atno 4306 bound_to 3712
   -2.6089  -18.2151   13.9542 LP  0  0  0  0  0  0  0  0  0  0  0  0  # atno 4307 bound_to 3712
    1.6146  -20.6766    9.4925 LP  0  0  0  0  0  0  0  0  0  0  0  0  # atno 4314 bound_to 3832
    2.0321  -19.6377    8.3038 LP  0  0  0  0  0  0  0  0  0  0  0  0  # atno 4315 bound_to 3832
   -5.2269  -21.9209   11.2105 LP  0  0  0  0  0  0  0  0  0  0  0  0  # atno 4318 bound_to 3762
   -3.9198  -22.8960   11.2956 LP  0  0  0  0  0  0  0  0  0  0  0  0  # atno 4319 bound_to 3762
   -4.0773   -4.8113    7.8106 LP  0  0  0  0  0  0  0  0  0  0  0  0  # atno 4320 bound_to 2467
   -4.1303   -5.3698    9.3442 LP  0  0  0  0  0  0  0  0  0  0  0  0  # atno 4321 bound_to 2467

> <Gold.Score>
     Score     S(PLP)   S(hbond)     S(cho)   S(metal)  DE(clash)   DE(tors)     intcor
     51.88     -49.43       1.00       0.00       0.00       0.01       0.53       0.52

> <Gold.PLP.Fitness>
51.8770

> <Gold.PLP.PLP>
-49.4323

> <Gold.PLP.part.hbond>
-0.9089

> <Gold.PLP.part.metal>
0.0000

> <Gold.PLP.part.buried>
-6.0522

> <Gold.PLP.part.nonpolar>
-45.6242

> <Gold.PLP.part.repulsive>
0.9189

> <Gold.PLP.ligand.clash>
0.0125

> <Gold.PLP.ligand.torsion>
0.5307

> <Gold.PLP.Chemscore.Hbond>
1.0000

> <Gold.PLP.Chemscore.CHOScore>
0.0000

> <Gold.PLP.Chemscore.Metal>
0.0000

> <Gold.Chemscore.Hbonds>
donor molecule, donor type, donor heavy atom, donor atom, acceptor molecule, acceptor atom, score
      L1  H    19    41       P1  3712  1.00

> <Gold.PLP.Chemscore.Internal.Correction>
0.5185

