#       Name:                EN300-843819_i001
#       Creating user name   fsindt
#       Creation time:       Mon Feb 27 21:02:04 2023


#       File generated by GOLD software.
#

@<TRIPOS>MOLECULE
EN300-843819_i001|amine_3|mol2|757|dock9
    42    43     1
SMALL
USER_CHARGES


@<TRIPOS>ATOM
      1 C1          -0.7216 -17.6777  15.9301 C.3            1 <1>                0.0000
      2 C2           0.0039 -18.3681  14.7734 C.3            1 <1>                0.0000
      3 C3           1.5155 -18.2264  14.9624 C.3            1 <1>                0.0000
      4 C4          -0.3702 -19.8515  14.7495 C.3            1 <1>                0.0000
      5 O5          -0.3871 -17.7500  13.5191 O.3            1 <1>                0.0000
      6 C6           0.0878 -16.5134  13.2723 C.2            1 <1>                0.0000
      7 O7           0.4205 -15.7951  14.1943 O.2            1 <1>                0.0000
      8 C8           0.2037 -16.0319  11.8841 C.2            1 <1>                0.0000
      9 C9           0.9535 -14.9681  11.4672 C.2            1 <1>                0.0000
     10 N10          0.7833 -14.8690  10.1340 N.pl3          1 <1>                0.0000
     11 N11         -0.0885 -15.9008   9.7583 N.2            1 <1>                0.0000
     12 N12         -0.4057 -16.5685  10.8126 N.2            1 <1>                0.0000
     13 C13          1.3920 -13.8741   9.2475 C.3            1 <1>                0.0000
     14 C14          0.8011 -12.4949   9.5468 C.3            1 <1>                0.0000
     15 C15         -0.7110 -12.5268   9.3156 C.3            1 <1>                0.0000
     16 C16         -0.9966 -12.8988   7.8592 C.3            1 <1>                0.0000
     17 C17         -0.4057 -14.2779   7.5599 C.3            1 <1>                0.0000
     18 C18          1.1064 -14.2460   7.7911 C.3            1 <1>                0.0000
     19 N19          1.6738 -15.5702   7.5036 N.4            1 <1>                1.0000
     20 H20         -0.4551 -16.6210  15.9472 H              1 <1>                0.0000
     21 H21         -1.7985 -17.7787  15.7955 H              1 <1>                0.0000
     22 H22         -0.4281 -18.1418  16.8717 H              1 <1>                0.0000
     23 H23          1.8091 -18.6903  15.9041 H              1 <1>                0.0000
     24 H24          2.0325 -18.7182  14.1384 H              1 <1>                0.0000
     25 H25          1.7821 -17.1696  14.9795 H              1 <1>                0.0000
     26 H26         -1.4471 -19.9524  14.6148 H              1 <1>                0.0000
     27 H27          0.1467 -20.3433  13.9254 H              1 <1>                0.0000
     28 H28         -0.0768 -20.3154  15.6911 H              1 <1>                0.0000
     29 H29          1.5647 -14.3290  12.0873 H              1 <1>                0.0000
     30 H30          2.4692 -13.8514   9.4121 H              1 <1>                0.0000
     31 H31          1.0045 -12.2299  10.5844 H              1 <1>                0.0000
     32 H32          1.2540 -11.7546   8.8873 H              1 <1>                0.0000
     33 H33         -1.1638 -13.2670   9.9752 H              1 <1>                0.0000
     34 H34         -1.1320 -11.5442   9.5290 H              1 <1>                0.0000
     35 H35         -2.0738 -12.9215   7.6946 H              1 <1>                0.0000
     36 H36         -0.5437 -12.1584   7.1997 H              1 <1>                0.0000
     37 H37         -0.8586 -15.0182   8.2195 H              1 <1>                0.0000
     38 H38         -0.6091 -14.5429   6.5224 H              1 <1>                0.0000
     39 H39          1.5593 -13.5058   7.1315 H              1 <1>                0.0000
     40 H40          1.8365 -16.0616   8.3696 H              1 <1>                0.0000
     41 H41          1.0278 -16.0964   6.9344 H              1 <1>                0.0000
     42 H42          2.5466 -15.4620   7.0092 H              1 <1>                0.0000
@<TRIPOS>BOND
    1    1    2 1     
    2    1   20 1     
    3    1   21 1     
    4    1   22 1     
    5    2    3 1     
    6    2    4 1     
    7    2    5 1     
    8    3   23 1     
    9    3   24 1     
   10    3   25 1     
   11    4   26 1     
   12    4   27 1     
   13    4   28 1     
   14    5    6 1     
   15    6    7 2     
   16    6    8 1     
   17    8    9 2     
   18    8   12 1     
   19    9   10 1     
   20    9   29 1     
   21   10   11 1     
   22   10   13 1     
   23   11   12 2     
   24   13   14 1     
   25   13   18 1     
   26   13   30 1     
   27   14   15 1     
   28   14   31 1     
   29   14   32 1     
   30   15   16 1     
   31   15   33 1     
   32   15   34 1     
   33   16   17 1     
   34   16   35 1     
   35   16   36 1     
   36   17   18 1     
   37   17   37 1     
   38   17   38 1     
   39   18   19 1     
   40   18   39 1     
   41   19   40 1     
   42   19   41 1     
   43   19   42 1     
@<TRIPOS>SUBSTRUCTURE
      1 ****           1
@<TRIPOS>SET
DONOR_HYDROGENS      STATIC     ATOMS    <user>   **** ""
3 40 41 42
ATOM$RED        STATIC     ATOMS    COLORGROUP SYSTEM
3 40 41 42
@<TRIPOS>COMMENT
> <Gold.Version>
2022.2.0

> <Gold.Id.Protein>
3pbl|protein|mol2

> <Gold.Protein.RotatedTorsions>
[ 1303 1298 1297 1294 ] final  103.97 input  179.99 | X-H torsion
[ 2461 2456 2455 2452 ] final  -54.15 input   30.03 | X-H torsion
[ 2515 2510 2509 2506 ] final   93.02 input  -89.99 | X-H torsion
[ 3721 3712 3711 3710 ] final   98.72 input -179.91 | X-H torsion
[ 3841 3832 3831 3830 ] final  110.56 input -179.91 | X-H torsion
[ 3767 3762 3761 3758 ] final -136.47 input  -89.99 | X-H torsion
[ 2472 2467 2466 2463 ] final -160.60 input  -89.97 | X-H torsion

> <Gold.Protein.ActiveResidues>
 VAL82   VAL86   LEU89   PHE106  VAL107  ASP110  VAL111  MET112  CYS114  THR115 
 CYS181  SER182  ILE183  PHE188  VAL189  ILE190  SER192  SER193  SER196  TRP342 
 PHE345  PHE346  HIS349  VAL350  TYR365  THR369  GLY372  TYR373 

> <Gold.Protein.RotatedAtoms>
    4.5833   -9.9780    4.9202 H   0  0  0  0  0  0  0  0  0  0  0  0  # atno 1303 bound_to 1298
    0.4026   -8.4901    7.3092 H   0  0  0  0  0  0  0  0  0  0  0  0  # atno 2461 bound_to 2456
   -5.1271   -5.4434    9.2418 H   0  0  0  0  0  0  0  0  0  0  0  0  # atno 2472 bound_to 2467
    2.0385   -7.7718    5.8718 H   0  0  0  0  0  0  0  0  0  0  0  0  # atno 2515 bound_to 2510
   -2.8485  -17.5091   13.0605 H   0  0  0  0  0  0  0  0  0  0  0  0  # atno 3721 bound_to 3712
   -4.6189  -22.0726   11.6159 H   0  0  0  0  0  0  0  0  0  0  0  0  # atno 3767 bound_to 3762
    3.0253  -20.8033    9.0441 H   0  0  0  0  0  0  0  0  0  0  0  0  # atno 3841 bound_to 3832
    3.3336   -9.6470    3.9227 LP  0  0  0  0  0  0  0  0  0  0  0  0  # atno 4297 bound_to 1298
    4.4452   -8.4961    4.2485 LP  0  0  0  0  0  0  0  0  0  0  0  0  # atno 4298 bound_to 1298
    1.3589   -9.2449    8.3970 LP  0  0  0  0  0  0  0  0  0  0  0  0  # atno 4299 bound_to 2456
    1.9761   -8.0731    7.4418 LP  0  0  0  0  0  0  0  0  0  0  0  0  # atno 4300 bound_to 2456
    2.7054   -7.9774    4.3957 LP  0  0  0  0  0  0  0  0  0  0  0  0  # atno 4301 bound_to 2510
    2.5530   -9.2502    5.4074 LP  0  0  0  0  0  0  0  0  0  0  0  0  # atno 4302 bound_to 2510
   -2.7134  -17.9320   14.6034 LP  0  0  0  0  0  0  0  0  0  0  0  0  # atno 4306 bound_to 3712
   -3.5257  -16.5798   14.1811 LP  0  0  0  0  0  0  0  0  0  0  0  0  # atno 4307 bound_to 3712
    1.4922  -20.4964    9.4069 LP  0  0  0  0  0  0  0  0  0  0  0  0  # atno 4314 bound_to 3832
    2.2425  -19.6779    8.2094 LP  0  0  0  0  0  0  0  0  0  0  0  0  # atno 4315 bound_to 3832
   -4.0639  -23.2886   10.6778 LP  0  0  0  0  0  0  0  0  0  0  0  0  # atno 4318 bound_to 3762
   -5.4445  -22.5136   10.2777 LP  0  0  0  0  0  0  0  0  0  0  0  0  # atno 4319 bound_to 3762
   -4.9498   -4.8751    7.7213 LP  0  0  0  0  0  0  0  0  0  0  0  0  # atno 4320 bound_to 2467
   -3.6402   -5.0751    8.6761 LP  0  0  0  0  0  0  0  0  0  0  0  0  # atno 4321 bound_to 2467

> <Gold.Score>
     Score     S(PLP)   S(hbond)     S(cho)   S(metal)  DE(clash)   DE(tors)     intcor
     48.98     -38.02       3.99       0.00       0.00       0.00       0.72       0.42

> <Gold.PLP.Fitness>
48.9761

> <Gold.PLP.PLP>
-38.0153

> <Gold.PLP.part.hbond>
-4.0000

> <Gold.PLP.part.metal>
0.0000

> <Gold.PLP.part.buried>
-1.6909

> <Gold.PLP.part.nonpolar>
-32.5401

> <Gold.PLP.part.repulsive>
0.2926

> <Gold.PLP.ligand.clash>
0.0000

> <Gold.PLP.ligand.torsion>
0.7171

> <Gold.PLP.Chemscore.Hbond>
3.9913

> <Gold.PLP.Chemscore.CHOScore>
0.0000

> <Gold.PLP.Chemscore.Metal>
0.0000

> <Gold.Chemscore.Hbonds>
donor molecule, donor type, donor heavy atom, donor atom, acceptor molecule, acceptor atom, score
      L1  H    19    40       P1  1227  2.00
      L1  H    19    42       P1  1223  1.00
      P1  H  2305  2313       L1     7  0.99

> <Gold.PLP.Chemscore.Internal.Correction>
0.4211

