#       Name:                EN300-843819_i001
#       Creating user name   fsindt
#       Creation time:       Mon Feb 27 21:01:54 2023


#       File generated by GOLD software.
#

@<TRIPOS>MOLECULE
EN300-843819_i001
    42    43     1
SMALL
USER_CHARGES


@<TRIPOS>ATOM
      1 C1           4.8491  -0.4628   1.2540 C.3            1 <1>                0.0000
      2 C2           4.4604  -0.2640  -0.2124 C.3            1 <1>                0.0000
      3 C3           4.7447   1.1819  -0.6239 C.3            1 <1>                0.0000
      4 C4           5.2778  -1.2141  -1.0900 C.3            1 <1>                0.0000
      5 O5           3.0460  -0.5459  -0.3807 O.3            1 <1>                0.0000
      6 C6           2.1833   0.2085   0.3280 C.2            1 <1>                0.0000
      7 O7           2.6015   1.0782   1.0665 O.2            1 <1>                0.0000
      8 C8           0.7324  -0.0212   0.2075 C.2            1 <1>                0.0000
      9 C9          -0.2437   0.6708   0.8678 C.2            1 <1>                0.0000
     10 N10         -1.4238   0.1505   0.4766 N.pl3          1 <1>                0.0000
     11 N11         -1.1334  -0.8730  -0.4366 N.2            1 <1>                0.0000
     12 N12          0.1449  -0.9430  -0.5751 N.2            1 <1>                0.0000
     13 C13         -2.7545   0.5728   0.9206 C.3            1 <1>                0.0000
     14 C14         -3.4639  -0.6028   1.5955 C.3            1 <1>                0.0000
     15 C15         -3.6008  -1.7559   0.5992 C.3            1 <1>                0.0000
     16 C16         -4.4181  -1.2923  -0.6083 C.3            1 <1>                0.0000
     17 C17         -3.7087  -0.1167  -1.2832 C.3            1 <1>                0.0000
     18 C18         -3.5718   1.0364  -0.2869 C.3            1 <1>                0.0000
     19 N19         -2.8907   2.1652  -0.9350 N.4            1 <1>                1.0000
     20 H20          4.2668   0.2141   1.8792 H              1 <1>                0.0000
     21 H21          4.6466  -1.4929   1.5471 H              1 <1>                0.0000
     22 H22          5.9109  -0.2512   1.3803 H              1 <1>                0.0000
     23 H23          5.8065   1.3936  -0.4975 H              1 <1>                0.0000
     24 H24          4.4678   1.3236  -1.6686 H              1 <1>                0.0000
     25 H25          4.1624   1.8588   0.0013 H              1 <1>                0.0000
     26 H26          5.0752  -2.2442  -0.7969 H              1 <1>                0.0000
     27 H27          5.0009  -1.0725  -2.1347 H              1 <1>                0.0000
     28 H28          6.3395  -1.0025  -0.9636 H              1 <1>                0.0000
     29 H29         -0.0975   1.4791   1.5691 H              1 <1>                0.0000
     30 H30         -2.6570   1.3943   1.6303 H              1 <1>                0.0000
     31 H31         -2.8817  -0.9331   2.4558 H              1 <1>                0.0000
     32 H32         -4.4540  -0.2886   1.9259 H              1 <1>                0.0000
     33 H33         -2.6108  -2.0701   0.2689 H              1 <1>                0.0000
     34 H34         -4.1062  -2.5935   1.0801 H              1 <1>                0.0000
     35 H35         -4.5156  -2.1138  -1.3180 H              1 <1>                0.0000
     36 H36         -5.4082  -0.9781  -0.2779 H              1 <1>                0.0000
     37 H37         -2.7186  -0.4309  -1.6136 H              1 <1>                0.0000
     38 H38         -4.2909   0.2136  -2.1434 H              1 <1>                0.0000
     39 H39         -4.5618   1.3507   0.0434 H              1 <1>                0.0000
     40 H40         -3.4296   2.4709  -1.7313 H              1 <1>                0.0000
     41 H41         -2.8004   2.9256  -0.2779 H              1 <1>                0.0000
     42 H42         -1.9742   1.8743  -1.2408 H              1 <1>                0.0000
@<TRIPOS>BOND
    1    1    2 1     
    2    1   20 1     
    3    1   21 1     
    4    1   22 1     
    5    2    3 1     
    6    2    4 1     
    7    2    5 1     
    8    3   23 1     
    9    3   24 1     
   10    3   25 1     
   11    4   26 1     
   12    4   27 1     
   13    4   28 1     
   14    5    6 1     
   15    6    7 2     
   16    6    8 1     
   17    8    9 2     
   18    8   12 1     
   19    9   10 1     
   20    9   29 1     
   21   10   11 1     
   22   10   13 1     
   23   11   12 2     
   24   13   14 1     
   25   13   18 1     
   26   13   30 1     
   27   14   15 1     
   28   14   31 1     
   29   14   32 1     
   30   15   16 1     
   31   15   33 1     
   32   15   34 1     
   33   16   17 1     
   34   16   35 1     
   35   16   36 1     
   36   17   18 1     
   37   17   37 1     
   38   17   38 1     
   39   18   19 1     
   40   18   39 1     
   41   19   40 1     
   42   19   41 1     
   43   19   42 1     
@<TRIPOS>SUBSTRUCTURE
      1 ****           1
@<TRIPOS>SET
DONOR_HYDROGENS      STATIC     ATOMS    <user>   **** ""
3 40 41 42
ATOM$RED        STATIC     ATOMS    COLORGROUP SYSTEM
3 40 41 42
