#       Name:                EN300-843819_i001
#       Creating user name   fsindt
#       Creation time:       Mon Feb 27 21:02:03 2023


#       File generated by GOLD software.
#

@<TRIPOS>MOLECULE
EN300-843819_i001|amine_3|mol2|757|dock8
    42    43     1
SMALL
USER_CHARGES


@<TRIPOS>ATOM
      1 C1          -0.5714  -9.6632  11.4212 C.3            1 <1>                0.0000
      2 C2          -0.3753 -10.7576  10.3701 C.3            1 <1>                0.0000
      3 C3          -1.2982 -10.4921   9.1791 C.3            1 <1>                0.0000
      4 C4           1.0800 -10.7562   9.8978 C.3            1 <1>                0.0000
      5 O5          -0.6944 -12.0494  10.9511 O.3            1 <1>                0.0000
      6 C6          -0.4087 -13.1397  10.2127 C.2            1 <1>                0.0000
      7 O7          -0.2440 -13.0351   9.0133 O.2            1 <1>                0.0000
      8 C8          -0.2959 -14.4592  10.8598 C.2            1 <1>                0.0000
      9 C9          -0.3819 -14.7008  12.2021 C.2            1 <1>                0.0000
     10 N10         -0.2271 -16.0290  12.3704 N.pl3          1 <1>                0.0000
     11 N11         -0.0458 -16.5814  11.0945 N.2            1 <1>                0.0000
     12 N12         -0.0970 -15.6295  10.2288 N.2            1 <1>                0.0000
     13 C13         -0.2446 -16.7561  13.6421 C.3            1 <1>                0.0000
     14 C14          0.9168 -16.2807  14.5173 C.3            1 <1>                0.0000
     15 C15          2.2402 -16.5455  13.7966 C.3            1 <1>                0.0000
     16 C16          2.3840 -18.0451  13.5289 C.3            1 <1>                0.0000
     17 C17          1.2226 -18.5204  12.6537 C.3            1 <1>                0.0000
     18 C18         -0.1008 -18.2556  13.3744 C.3            1 <1>                0.0000
     19 N19         -1.2159 -18.7121  12.5340 N.4            1 <1>                1.0000
     20 H20         -1.6082  -9.6641  11.7576 H              1 <1>                0.0000
     21 H21          0.0861  -9.8523  12.2696 H              1 <1>                0.0000
     22 H22         -0.3319  -8.6934  10.9850 H              1 <1>                0.0000
     23 H23         -1.0588  -9.5223   8.7429 H              1 <1>                0.0000
     24 H24         -1.1586 -11.2718   8.4302 H              1 <1>                0.0000
     25 H25         -2.3350 -10.4931   9.5155 H              1 <1>                0.0000
     26 H26          1.7375 -10.9454  10.7463 H              1 <1>                0.0000
     27 H27          1.2197 -11.5359   9.1490 H              1 <1>                0.0000
     28 H28          1.3195  -9.7864   9.4617 H              1 <1>                0.0000
     29 H29         -0.5423 -13.9680  12.9791 H              1 <1>                0.0000
     30 H30         -1.1874 -16.5675  14.1556 H              1 <1>                0.0000
     31 H31          0.8144 -15.2124  14.7081 H              1 <1>                0.0000
     32 H32          0.9038 -16.8216  15.4636 H              1 <1>                0.0000
     33 H33          2.2532 -16.0046  12.8505 H              1 <1>                0.0000
     34 H34          3.0677 -16.2068  14.4202 H              1 <1>                0.0000
     35 H35          3.3268 -18.2336  13.0154 H              1 <1>                0.0000
     36 H36          2.3710 -18.5860  14.4752 H              1 <1>                0.0000
     37 H37          1.2356 -17.9795  11.7074 H              1 <1>                0.0000
     38 H38          1.3250 -19.5887  12.4629 H              1 <1>                0.0000
     39 H39         -0.1139 -18.7966  14.3206 H              1 <1>                0.0000
     40 H40         -0.9969 -18.5433  11.5637 H              1 <1>                0.0000
     41 H41         -1.3636 -19.6998  12.6787 H              1 <1>                0.0000
     42 H42         -2.0532 -18.2069  12.7827 H              1 <1>                0.0000
@<TRIPOS>BOND
    1    1    2 1     
    2    1   20 1     
    3    1   21 1     
    4    1   22 1     
    5    2    3 1     
    6    2    4 1     
    7    2    5 1     
    8    3   23 1     
    9    3   24 1     
   10    3   25 1     
   11    4   26 1     
   12    4   27 1     
   13    4   28 1     
   14    5    6 1     
   15    6    7 2     
   16    6    8 1     
   17    8    9 2     
   18    8   12 1     
   19    9   10 1     
   20    9   29 1     
   21   10   11 1     
   22   10   13 1     
   23   11   12 2     
   24   13   14 1     
   25   13   18 1     
   26   13   30 1     
   27   14   15 1     
   28   14   31 1     
   29   14   32 1     
   30   15   16 1     
   31   15   33 1     
   32   15   34 1     
   33   16   17 1     
   34   16   35 1     
   35   16   36 1     
   36   17   18 1     
   37   17   37 1     
   38   17   38 1     
   39   18   19 1     
   40   18   39 1     
   41   19   40 1     
   42   19   41 1     
   43   19   42 1     
@<TRIPOS>SUBSTRUCTURE
      1 ****           1
@<TRIPOS>SET
DONOR_HYDROGENS      STATIC     ATOMS    <user>   **** ""
3 40 41 42
ATOM$RED        STATIC     ATOMS    COLORGROUP SYSTEM
3 40 41 42
@<TRIPOS>COMMENT
> <Gold.Version>
2022.2.0

> <Gold.Id.Protein>
3pbl|protein|mol2

> <Gold.Protein.RotatedTorsions>
[ 1303 1298 1297 1294 ] final -173.91 input  179.99 | X-H torsion
[ 2461 2456 2455 2452 ] final  -69.14 input   30.03 | X-H torsion
[ 2515 2510 2509 2506 ] final -109.72 input  -89.99 | X-H torsion
[ 3721 3712 3711 3710 ] final -165.39 input -179.91 | X-H torsion
[ 3841 3832 3831 3830 ] final  -15.34 input -179.91 | X-H torsion
[ 3767 3762 3761 3758 ] final   -3.75 input  -89.99 | X-H torsion
[ 2472 2467 2466 2463 ] final  -74.87 input  -89.97 | X-H torsion

> <Gold.Protein.ActiveResidues>
 VAL82   VAL86   LEU89   PHE106  VAL107  ASP110  VAL111  MET112  CYS114  THR115 
 CYS181  SER182  ILE183  PHE188  VAL189  ILE190  SER192  SER193  SER196  TRP342 
 PHE345  PHE346  HIS349  VAL350  TYR365  THR369  GLY372  TYR373 

> <Gold.Protein.RotatedAtoms>
    4.8196   -8.7984    4.6267 H   0  0  0  0  0  0  0  0  0  0  0  0  # atno 1303 bound_to 1298
    0.3391   -8.6690    7.4657 H   0  0  0  0  0  0  0  0  0  0  0  0  # atno 2461 bound_to 2456
   -3.8596   -5.2700    9.1477 H   0  0  0  0  0  0  0  0  0  0  0  0  # atno 2472 bound_to 2467
    2.7615   -9.1346    4.8545 H   0  0  0  0  0  0  0  0  0  0  0  0  # atno 2515 bound_to 2510
   -3.3387  -16.5454   13.7574 H   0  0  0  0  0  0  0  0  0  0  0  0  # atno 3721 bound_to 3712
   -5.3556  -22.6704   10.1720 H   0  0  0  0  0  0  0  0  0  0  0  0  # atno 3767 bound_to 3762
    1.6275  -20.3061    9.4644 H   0  0  0  0  0  0  0  0  0  0  0  0  # atno 3841 bound_to 3832
    4.0920  -10.2590    4.6872 LP  0  0  0  0  0  0  0  0  0  0  0  0  # atno 4297 bound_to 1298
    3.4503   -9.0642    3.7776 LP  0  0  0  0  0  0  0  0  0  0  0  0  # atno 4298 bound_to 1298
    1.5899   -9.1608    8.3936 LP  0  0  0  0  0  0  0  0  0  0  0  0  # atno 4299 bound_to 2456
    1.8085   -7.9784    7.2887 LP  0  0  0  0  0  0  0  0  0  0  0  0  # atno 4300 bound_to 2456
    2.0653   -8.3310    6.0936 LP  0  0  0  0  0  0  0  0  0  0  0  0  # atno 4301 bound_to 2510
    2.4697   -7.5332    4.7274 LP  0  0  0  0  0  0  0  0  0  0  0  0  # atno 4302 bound_to 2510
   -2.8259  -17.9555   13.1862 LP  0  0  0  0  0  0  0  0  0  0  0  0  # atno 4306 bound_to 3712
   -2.8472  -17.6689   14.7937 LP  0  0  0  0  0  0  0  0  0  0  0  0  # atno 4307 bound_to 3712
    2.3767  -19.7256    8.1691 LP  0  0  0  0  0  0  0  0  0  0  0  0  # atno 4314 bound_to 3832
    2.9726  -21.0230    8.9617 LP  0  0  0  0  0  0  0  0  0  0  0  0  # atno 4315 bound_to 3832
   -4.7971  -21.9882   11.5466 LP  0  0  0  0  0  0  0  0  0  0  0  0  # atno 4318 bound_to 3762
   -3.9750  -23.2164   10.8521 LP  0  0  0  0  0  0  0  0  0  0  0  0  # atno 4319 bound_to 3762
   -5.4565   -5.3235    8.8110 LP  0  0  0  0  0  0  0  0  0  0  0  0  # atno 4320 bound_to 2467
   -4.4007   -4.8000    7.6805 LP  0  0  0  0  0  0  0  0  0  0  0  0  # atno 4321 bound_to 2467

> <Gold.Score>
     Score     S(PLP)   S(hbond)     S(cho)   S(metal)  DE(clash)   DE(tors)     intcor
     47.03     -44.30       1.00       0.00       0.00       0.00       0.34       0.42

> <Gold.PLP.Fitness>
47.0282

> <Gold.PLP.PLP>
-44.2954

> <Gold.PLP.part.hbond>
-1.0000

> <Gold.PLP.part.metal>
0.0000

> <Gold.PLP.part.buried>
-0.1956

> <Gold.PLP.part.nonpolar>
-43.8790

> <Gold.PLP.part.repulsive>
0.1845

> <Gold.PLP.ligand.clash>
0.0000

> <Gold.PLP.ligand.torsion>
0.3442

> <Gold.PLP.Chemscore.Hbond>
1.0000

> <Gold.PLP.Chemscore.CHOScore>
0.0000

> <Gold.PLP.Chemscore.Metal>
0.0000

> <Gold.Chemscore.Hbonds>
donor molecule, donor type, donor heavy atom, donor atom, acceptor molecule, acceptor atom, score
      L1  H    19    42       P1  3712  1.00

> <Gold.PLP.Chemscore.Internal.Correction>
0.4211

