#       Name:                EN300-843819_i001
#       Creating user name   fsindt
#       Creation time:       Mon Feb 27 21:02:10 2023


#       File generated by GOLD software.
#

@<TRIPOS>MOLECULE
EN300-843819_i001|amine_3|mol2|757|dock14
    42    43     1
SMALL
USER_CHARGES


@<TRIPOS>ATOM
      1 C1          -1.9271 -11.2697   9.3840 C.3            1 <1>                0.0000
      2 C2          -0.8855 -11.2747  10.5048 C.3            1 <1>                0.0000
      3 C3           0.5134 -11.1331   9.9016 C.3            1 <1>                0.0000
      4 C4          -1.1523 -10.1049  11.4542 C.3            1 <1>                0.0000
      5 O5          -0.9715 -12.5239  11.2399 O.3            1 <1>                0.0000
      6 C6          -0.5145 -13.6304  10.6213 C.2            1 <1>                0.0000
      7 O7          -0.4462 -13.6641   9.4085 O.2            1 <1>                0.0000
      8 C8          -0.0975 -14.7997  11.4158 C.2            1 <1>                0.0000
      9 C9           0.2728 -14.7812  12.7311 C.2            1 <1>                0.0000
     10 N10          0.5757 -16.0501  13.0694 N.pl3          1 <1>                0.0000
     11 N11          0.3784 -16.8338  11.9236 N.2            1 <1>                0.0000
     12 N12         -0.0226 -16.0661  10.9707 N.2            1 <1>                0.0000
     13 C13          1.0254 -16.5204  14.3819 C.3            1 <1>                0.0000
     14 C14          2.4042 -17.1695  14.2463 C.3            1 <1>                0.0000
     15 C15          2.3174 -18.3545  13.2822 C.3            1 <1>                0.0000
     16 C16          1.3215 -19.3815  13.8247 C.3            1 <1>                0.0000
     17 C17         -0.0573 -18.7324  13.9604 C.3            1 <1>                0.0000
     18 C18          0.0295 -17.5474  14.9244 C.3            1 <1>                0.0000
     19 N19         -1.2945 -16.9243  15.0547 N.4            1 <1>                1.0000
     20 H20         -1.7370 -12.1031   8.7077 H              1 <1>                0.0000
     21 H21         -2.9236 -11.3705   9.8138 H              1 <1>                0.0000
     22 H22         -1.8625 -10.3319   8.8323 H              1 <1>                0.0000
     23 H23          0.5780 -10.1954   9.3497 H              1 <1>                0.0000
     24 H24          1.2555 -11.1367  10.7001 H              1 <1>                0.0000
     25 H25          0.7035 -11.9665   9.2253 H              1 <1>                0.0000
     26 H26         -2.1489 -10.2058  11.8839 H              1 <1>                0.0000
     27 H27         -0.4103 -10.1084  12.2526 H              1 <1>                0.0000
     28 H28         -1.0878  -9.1672  10.9024 H              1 <1>                0.0000
     29 H29          0.3151 -13.9157  13.3758 H              1 <1>                0.0000
     30 H30          1.0872 -15.6763  15.0687 H              1 <1>                0.0000
     31 H31          3.1138 -16.4379  13.8598 H              1 <1>                0.0000
     32 H32          2.7388 -17.5194  15.2229 H              1 <1>                0.0000
     33 H33          1.9829 -18.0046  12.3057 H              1 <1>                0.0000
     34 H34          3.2998 -18.8169  13.1855 H              1 <1>                0.0000
     35 H35          1.2598 -20.2256  13.1379 H              1 <1>                0.0000
     36 H36          1.6561 -19.7314  14.8013 H              1 <1>                0.0000
     37 H37         -0.3919 -18.3825  12.9838 H              1 <1>                0.0000
     38 H38         -0.7668 -19.4640  14.3469 H              1 <1>                0.0000
     39 H39          0.3639 -17.8973  15.9010 H              1 <1>                0.0000
     40 H40         -2.0041 -17.5766  14.7566 H              1 <1>                0.0000
     41 H41         -1.4536 -16.6712  16.0185 H              1 <1>                0.0000
     42 H42         -1.3349 -16.0969  14.4786 H              1 <1>                0.0000
@<TRIPOS>BOND
    1    1    2 1     
    2    1   20 1     
    3    1   21 1     
    4    1   22 1     
    5    2    3 1     
    6    2    4 1     
    7    2    5 1     
    8    3   23 1     
    9    3   24 1     
   10    3   25 1     
   11    4   26 1     
   12    4   27 1     
   13    4   28 1     
   14    5    6 1     
   15    6    7 2     
   16    6    8 1     
   17    8    9 2     
   18    8   12 1     
   19    9   10 1     
   20    9   29 1     
   21   10   11 1     
   22   10   13 1     
   23   11   12 2     
   24   13   14 1     
   25   13   18 1     
   26   13   30 1     
   27   14   15 1     
   28   14   31 1     
   29   14   32 1     
   30   15   16 1     
   31   15   33 1     
   32   15   34 1     
   33   16   17 1     
   34   16   35 1     
   35   16   36 1     
   36   17   18 1     
   37   17   37 1     
   38   17   38 1     
   39   18   19 1     
   40   18   39 1     
   41   19   40 1     
   42   19   41 1     
   43   19   42 1     
@<TRIPOS>SUBSTRUCTURE
      1 ****           1
@<TRIPOS>SET
DONOR_HYDROGENS      STATIC     ATOMS    <user>   **** ""
3 40 41 42
ATOM$RED        STATIC     ATOMS    COLORGROUP SYSTEM
3 40 41 42
@<TRIPOS>COMMENT
> <Gold.Version>
2022.2.0

> <Gold.Id.Protein>
3pbl|protein|mol2

> <Gold.Protein.RotatedTorsions>
[ 1303 1298 1297 1294 ] final  -35.96 input  179.99 | X-H torsion
[ 2461 2456 2455 2452 ] final  -57.76 input   30.03 | X-H torsion
[ 2515 2510 2509 2506 ] final -171.12 input  -89.99 | X-H torsion
[ 3721 3712 3711 3710 ] final -171.55 input -179.91 | X-H torsion
[ 3841 3832 3831 3830 ] final  167.79 input -179.91 | X-H torsion
[ 3767 3762 3761 3758 ] final  -65.03 input  -89.99 | X-H torsion
[ 2472 2467 2466 2463 ] final  158.60 input  -89.97 | X-H torsion

> <Gold.Protein.ActiveResidues>
 VAL82   VAL86   LEU89   PHE106  VAL107  ASP110  VAL111  MET112  CYS114  THR115 
 CYS181  SER182  ILE183  PHE188  VAL189  ILE190  SER192  SER193  SER196  TRP342 
 PHE345  PHE346  HIS349  VAL350  TYR365  THR369  GLY372  TYR373 

> <Gold.Protein.RotatedAtoms>
    3.3534   -9.3389    3.8175 H   0  0  0  0  0  0  0  0  0  0  0  0  # atno 1303 bound_to 1298
    0.3818   -8.5330    7.3448 H   0  0  0  0  0  0  0  0  0  0  0  0  # atno 2461 bound_to 2456
   -5.4863   -5.2922    8.7126 H   0  0  0  0  0  0  0  0  0  0  0  0  # atno 2472 bound_to 2467
    2.3850   -9.1210    5.7400 H   0  0  0  0  0  0  0  0  0  0  0  0  # atno 2515 bound_to 2510
   -3.3350  -16.5659   13.6667 H   0  0  0  0  0  0  0  0  0  0  0  0  # atno 3721 bound_to 3712
   -5.4360  -22.0247   10.8794 H   0  0  0  0  0  0  0  0  0  0  0  0  # atno 3767 bound_to 3762
    3.0487  -20.1932    8.4833 H   0  0  0  0  0  0  0  0  0  0  0  0  # atno 3841 bound_to 3832
    4.6718   -8.6138    4.4517 LP  0  0  0  0  0  0  0  0  0  0  0  0  # atno 4297 bound_to 1298
    4.3373  -10.1686    4.8225 LP  0  0  0  0  0  0  0  0  0  0  0  0  # atno 4298 bound_to 1298
    1.4158   -9.2285    8.4005 LP  0  0  0  0  0  0  0  0  0  0  0  0  # atno 4299 bound_to 2456
    1.9399   -8.0467    7.4028 LP  0  0  0  0  0  0  0  0  0  0  0  0  # atno 4300 bound_to 2456
    2.1087   -7.5202    5.5764 LP  0  0  0  0  0  0  0  0  0  0  0  0  # atno 4301 bound_to 2510
    2.8030   -8.3576    4.3586 LP  0  0  0  0  0  0  0  0  0  0  0  0  # atno 4302 bound_to 2510
   -2.7842  -18.0174   13.2571 LP  0  0  0  0  0  0  0  0  0  0  0  0  # atno 4306 bound_to 3712
   -2.8932  -17.5833   14.8276 LP  0  0  0  0  0  0  0  0  0  0  0  0  # atno 4307 bound_to 3712
    2.1884  -21.0853    9.5031 LP  0  0  0  0  0  0  0  0  0  0  0  0  # atno 4314 bound_to 3832
    1.5192  -19.7938    8.7610 LP  0  0  0  0  0  0  0  0  0  0  0  0  # atno 4315 bound_to 3832
   -4.0523  -22.5953   11.5326 LP  0  0  0  0  0  0  0  0  0  0  0  0  # atno 4318 bound_to 3762
   -4.6394  -23.2549   10.1590 LP  0  0  0  0  0  0  0  0  0  0  0  0  # atno 4319 bound_to 3762
   -4.2972   -4.7986    7.7082 LP  0  0  0  0  0  0  0  0  0  0  0  0  # atno 4320 bound_to 2467
   -3.9337   -5.3028    9.2183 LP  0  0  0  0  0  0  0  0  0  0  0  0  # atno 4321 bound_to 2467

> <Gold.Score>
     Score     S(PLP)   S(hbond)     S(cho)   S(metal)  DE(clash)   DE(tors)     intcor
     45.91     -44.69       0.70       0.00       0.00       0.00       0.64       0.42

> <Gold.PLP.Fitness>
45.9133

> <Gold.PLP.PLP>
-44.6859

> <Gold.PLP.part.hbond>
-0.3591

> <Gold.PLP.part.metal>
0.0000

> <Gold.PLP.part.buried>
-3.9917

> <Gold.PLP.part.nonpolar>
-42.0657

> <Gold.PLP.part.repulsive>
0.2992

> <Gold.PLP.ligand.clash>
0.0000

> <Gold.PLP.ligand.torsion>
0.6417

> <Gold.PLP.Chemscore.Hbond>
0.6965

> <Gold.PLP.Chemscore.CHOScore>
0.0000

> <Gold.PLP.Chemscore.Metal>
0.0000

> <Gold.Chemscore.Hbonds>
donor molecule, donor type, donor heavy atom, donor atom, acceptor molecule, acceptor atom, score
      L1  H    19    40       P1  3712  0.70

> <Gold.PLP.Chemscore.Internal.Correction>
0.4211

