#       Name:                EN300-843819_i001
#       Creating user name   fsindt
#       Creation time:       Mon Feb 27 21:02:06 2023


#       File generated by GOLD software.
#

@<TRIPOS>MOLECULE
EN300-843819_i001|amine_3|mol2|757|dock11
    42    43     1
SMALL
USER_CHARGES


@<TRIPOS>ATOM
      1 C1          -2.1690 -20.7021  19.7149 C.3            1 <1>                0.0000
      2 C2          -0.7132 -20.7773  19.2501 C.3            1 <1>                0.0000
      3 C3           0.2122 -20.3981  20.4080 C.3            1 <1>                0.0000
      4 C4          -0.3975 -22.2022  18.7908 C.3            1 <1>                0.0000
      5 O5          -0.5094 -19.8565  18.1461 O.3            1 <1>                0.0000
      6 C6          -1.1077 -20.1603  16.9777 C.2            1 <1>                0.0000
      7 O7          -2.0420 -20.9371  16.9574 O.2            1 <1>                0.0000
      8 C8          -0.6289 -19.5506  15.7241 C.2            1 <1>                0.0000
      9 C9           0.5762 -18.9312  15.5462 C.2            1 <1>                0.0000
     10 N10          0.6176 -18.5186  14.2639 N.pl3          1 <1>                0.0000
     11 N11         -0.5940 -18.9055  13.6737 N.2            1 <1>                0.0000
     12 N12         -1.3013 -19.5149  14.5605 N.2            1 <1>                0.0000
     13 C13          1.7170 -17.8028  13.6118 C.3            1 <1>                0.0000
     14 C14          1.9825 -16.4912  14.3534 C.3            1 <1>                0.0000
     15 C15          0.7218 -15.6248  14.3247 C.3            1 <1>                0.0000
     16 C16          0.3437 -15.3224  12.8733 C.3            1 <1>                0.0000
     17 C17          0.0782 -16.6339  12.1317 C.3            1 <1>                0.0000
     18 C18          1.3389 -17.5004  12.1604 C.3            1 <1>                0.0000
     19 N19          1.0839 -18.7597  11.4482 N.4            1 <1>                1.0000
     20 H20         -2.3938 -19.6869  20.0423 H              1 <1>                0.0000
     21 H21         -2.8281 -20.9723  18.8900 H              1 <1>                0.0000
     22 H22         -2.3219 -21.3934  20.5437 H              1 <1>                0.0000
     23 H23          0.0591 -21.0893  21.2369 H              1 <1>                0.0000
     24 H24          1.2493 -20.4517  20.0770 H              1 <1>                0.0000
     25 H25         -0.0127 -19.3830  20.7353 H              1 <1>                0.0000
     26 H26         -1.0567 -22.4724  17.9658 H              1 <1>                0.0000
     27 H27          0.6396 -22.2559  18.4596 H              1 <1>                0.0000
     28 H28         -0.5506 -22.8934  19.6195 H              1 <1>                0.0000
     29 H29          1.3473 -18.7973  16.2906 H              1 <1>                0.0000
     30 H30          2.6151 -18.4200  13.6322 H              1 <1>                0.0000
     31 H31          2.2519 -16.7066  15.3875 H              1 <1>                0.0000
     32 H32          2.8006 -15.9586  13.8683 H              1 <1>                0.0000
     33 H33         -0.0961 -16.1573  14.8099 H              1 <1>                0.0000
     34 H34          0.9110 -14.6903  14.8532 H              1 <1>                0.0000
     35 H35         -0.5544 -14.7051  12.8529 H              1 <1>                0.0000
     36 H36          1.1618 -14.7898  12.3882 H              1 <1>                0.0000
     37 H37         -0.7398 -17.1665  12.6168 H              1 <1>                0.0000
     38 H38         -0.1911 -16.4185  11.0977 H              1 <1>                0.0000
     39 H39          2.1569 -16.9679  11.6752 H              1 <1>                0.0000
     40 H40          1.5356 -18.7335  10.5464 H              1 <1>                0.0000
     41 H41          1.4509 -19.5305  11.9861 H              1 <1>                0.0000
     42 H42          0.0899 -18.8800  11.3231 H              1 <1>                0.0000
@<TRIPOS>BOND
    1    1    2 1     
    2    1   20 1     
    3    1   21 1     
    4    1   22 1     
    5    2    3 1     
    6    2    4 1     
    7    2    5 1     
    8    3   23 1     
    9    3   24 1     
   10    3   25 1     
   11    4   26 1     
   12    4   27 1     
   13    4   28 1     
   14    5    6 1     
   15    6    7 2     
   16    6    8 1     
   17    8    9 2     
   18    8   12 1     
   19    9   10 1     
   20    9   29 1     
   21   10   11 1     
   22   10   13 1     
   23   11   12 2     
   24   13   14 1     
   25   13   18 1     
   26   13   30 1     
   27   14   15 1     
   28   14   31 1     
   29   14   32 1     
   30   15   16 1     
   31   15   33 1     
   32   15   34 1     
   33   16   17 1     
   34   16   35 1     
   35   16   36 1     
   36   17   18 1     
   37   17   37 1     
   38   17   38 1     
   39   18   19 1     
   40   18   39 1     
   41   19   40 1     
   42   19   41 1     
   43   19   42 1     
@<TRIPOS>SUBSTRUCTURE
      1 ****           1
@<TRIPOS>SET
DONOR_HYDROGENS      STATIC     ATOMS    <user>   **** ""
3 40 41 42
ATOM$RED        STATIC     ATOMS    COLORGROUP SYSTEM
3 40 41 42
@<TRIPOS>COMMENT
> <Gold.Version>
2022.2.0

> <Gold.Id.Protein>
3pbl|protein|mol2

> <Gold.Protein.RotatedTorsions>
[ 1303 1298 1297 1294 ] final    3.48 input  179.99 | X-H torsion
[ 2461 2456 2455 2452 ] final -164.49 input   30.03 | X-H torsion
[ 2515 2510 2509 2506 ] final  129.45 input  -89.99 | X-H torsion
[ 3721 3712 3711 3710 ] final   12.01 input -179.91 | X-H torsion
[ 3841 3832 3831 3830 ] final   38.32 input -179.91 | X-H torsion
[ 3767 3762 3761 3758 ] final -117.76 input  -89.99 | X-H torsion
[ 2472 2467 2466 2463 ] final   66.65 input  -89.97 | X-H torsion

> <Gold.Protein.ActiveResidues>
 VAL82   VAL86   LEU89   PHE106  VAL107  ASP110  VAL111  MET112  CYS114  THR115 
 CYS181  SER182  ILE183  PHE188  VAL189  ILE190  SER192  SER193  SER196  TRP342 
 PHE345  PHE346  HIS349  VAL350  TYR365  THR369  GLY372  TYR373 

> <Gold.Protein.RotatedAtoms>
    3.4053   -9.9169    4.0779 H   0  0  0  0  0  0  0  0  0  0  0  0  # atno 1303 bound_to 1298
    1.2048   -9.2764    8.3747 H   0  0  0  0  0  0  0  0  0  0  0  0  # atno 2461 bound_to 2456
   -4.7508   -4.8352    7.6692 H   0  0  0  0  0  0  0  0  0  0  0  0  # atno 2472 bound_to 2467
    2.0632   -8.3176    6.0922 H   0  0  0  0  0  0  0  0  0  0  0  0  # atno 2515 bound_to 2510
   -2.4710  -18.0112   14.0703 H   0  0  0  0  0  0  0  0  0  0  0  0  # atno 3721 bound_to 3712
   -4.8794  -21.9582   11.5017 H   0  0  0  0  0  0  0  0  0  0  0  0  # atno 3767 bound_to 3762
    2.1752  -20.8447    9.6075 H   0  0  0  0  0  0  0  0  0  0  0  0  # atno 3841 bound_to 3832
    4.1857   -8.4826    4.0629 LP  0  0  0  0  0  0  0  0  0  0  0  0  # atno 4297 bound_to 1298
    4.7714   -9.7216    4.9508 LP  0  0  0  0  0  0  0  0  0  0  0  0  # atno 4298 bound_to 1298
    2.0584   -8.1537    7.5511 LP  0  0  0  0  0  0  0  0  0  0  0  0  # atno 4299 bound_to 2456
    0.4746   -8.3783    7.2225 LP  0  0  0  0  0  0  0  0  0  0  0  0  # atno 4300 bound_to 2456
    2.4755   -7.5400    4.7170 LP  0  0  0  0  0  0  0  0  0  0  0  0  # atno 4301 bound_to 2510
    2.7581   -9.1415    4.8657 LP  0  0  0  0  0  0  0  0  0  0  0  0  # atno 4302 bound_to 2510
   -3.3667  -16.7913   14.6063 LP  0  0  0  0  0  0  0  0  0  0  0  0  # atno 4306 bound_to 3712
   -3.3082  -17.1408   13.0123 LP  0  0  0  0  0  0  0  0  0  0  0  0  # atno 4307 bound_to 3712
    1.6349  -19.7075    8.6121 LP  0  0  0  0  0  0  0  0  0  0  0  0  # atno 4314 bound_to 3832
    3.0817  -20.4190    8.3533 LP  0  0  0  0  0  0  0  0  0  0  0  0  # atno 4315 bound_to 3832
   -3.9452  -23.1720   10.9351 LP  0  0  0  0  0  0  0  0  0  0  0  0  # atno 4318 bound_to 3762
   -5.3028  -22.7446   10.1345 LP  0  0  0  0  0  0  0  0  0  0  0  0  # atno 4319 bound_to 3762
   -3.6858   -5.1488    8.8666 LP  0  0  0  0  0  0  0  0  0  0  0  0  # atno 4320 bound_to 2467
   -5.2803   -5.4095    9.1032 LP  0  0  0  0  0  0  0  0  0  0  0  0  # atno 4321 bound_to 2467

> <Gold.Score>
     Score     S(PLP)   S(hbond)     S(cho)   S(metal)  DE(clash)   DE(tors)     intcor
     45.31     -38.20       1.54       1.00       0.00       0.00       0.46       0.42

> <Gold.PLP.Fitness>
45.3150

> <Gold.PLP.PLP>
-38.2049

> <Gold.PLP.part.hbond>
-3.0000

> <Gold.PLP.part.metal>
0.0000

> <Gold.PLP.part.buried>
0.7632

> <Gold.PLP.part.nonpolar>
-36.4798

> <Gold.PLP.part.repulsive>
0.0889

> <Gold.PLP.ligand.clash>
0.0000

> <Gold.PLP.ligand.torsion>
0.4595

> <Gold.PLP.Chemscore.Hbond>
1.5360

> <Gold.PLP.Chemscore.CHOScore>
1.0000

> <Gold.PLP.Chemscore.Metal>
0.0000

> <Gold.Chemscore.Hbonds>
donor molecule, donor type, donor heavy atom, donor atom, acceptor molecule, acceptor atom, score
      L1  H    19    40       P1  1227  1.54
      L1  C     9    29       P1  2287  1.00

> <Gold.PLP.Chemscore.Internal.Correction>
0.4211

