#       Name:                EN300-843819_i001
#       Creating user name   fsindt
#       Creation time:       Mon Feb 27 21:01:59 2023


#       File generated by GOLD software.
#

@<TRIPOS>MOLECULE
EN300-843819_i001|amine_3|mol2|757|dock5
    42    43     1
SMALL
USER_CHARGES


@<TRIPOS>ATOM
      1 C1          -0.0762 -10.3852  10.6521 C.3            1 <1>                0.0000
      2 C2          -0.9257 -11.1384   9.6265 C.3            1 <1>                0.0000
      3 C3          -2.3835 -10.6889   9.7431 C.3            1 <1>                0.0000
      4 C4          -0.4104 -10.8372   8.2177 C.3            1 <1>                0.0000
      5 O5          -0.8375 -12.5655   9.8793 O.3            1 <1>                0.0000
      6 C6          -0.9470 -12.9676  11.1607 C.2            1 <1>                0.0000
      7 O7          -1.5756 -12.2977  11.9562 O.2            1 <1>                0.0000
      8 C8          -0.3043 -14.2200  11.5975 C.2            1 <1>                0.0000
      9 C9          -0.4093 -14.7813  12.8391 C.2            1 <1>                0.0000
     10 N10          0.3248 -15.9113  12.8201 N.pl3          1 <1>                0.0000
     11 N11          0.8750 -16.0164  11.5348 N.2            1 <1>                0.0000
     12 N12          0.4799 -15.0067  10.8402 N.2            1 <1>                0.0000
     13 C13          0.5125 -16.8495  13.9295 C.3            1 <1>                0.0000
     14 C14          1.9721 -16.8136  14.3866 C.3            1 <1>                0.0000
     15 C15          2.8811 -17.2123  13.2222 C.3            1 <1>                0.0000
     16 C16          2.5263 -18.6269  12.7594 C.3            1 <1>                0.0000
     17 C17          1.0666 -18.6628  12.3024 C.3            1 <1>                0.0000
     18 C18          0.1577 -18.2641  13.4668 C.3            1 <1>                0.0000
     19 N19         -1.2439 -18.2987  13.0280 N.4            1 <1>                1.0000
     20 H20         -0.4433 -10.5998  11.6558 H              1 <1>                0.0000
     21 H21          0.9624 -10.7054  10.5689 H              1 <1>                0.0000
     22 H22         -0.1424  -9.3139  10.4622 H              1 <1>                0.0000
     23 H23         -2.4498  -9.6176   9.5533 H              1 <1>                0.0000
     24 H24         -2.9888 -11.2255   9.0124 H              1 <1>                0.0000
     25 H25         -2.7507 -10.9035  10.7467 H              1 <1>                0.0000
     26 H26          0.6282 -11.1575   8.1345 H              1 <1>                0.0000
     27 H27         -1.0156 -11.3738   7.4869 H              1 <1>                0.0000
     28 H28         -0.4766  -9.7660   8.0279 H              1 <1>                0.0000
     29 H29         -0.9722 -14.3934  13.6754 H              1 <1>                0.0000
     30 H30         -0.1351 -16.5655  14.7590 H              1 <1>                0.0000
     31 H31          2.2249 -15.8059  14.7163 H              1 <1>                0.0000
     32 H32          2.1118 -17.5117  15.2120 H              1 <1>                0.0000
     33 H33          2.7415 -16.5143  12.3968 H              1 <1>                0.0000
     34 H34          3.9211 -17.1867  13.5478 H              1 <1>                0.0000
     35 H35          3.1739 -18.9109  11.9300 H              1 <1>                0.0000
     36 H36          2.6659 -19.3249  13.5849 H              1 <1>                0.0000
     37 H37          0.9270 -17.9648  11.4769 H              1 <1>                0.0000
     38 H38          0.8139 -19.6705  11.9728 H              1 <1>                0.0000
     39 H39          0.2972 -18.9621  14.2922 H              1 <1>                0.0000
     40 H40         -1.4659 -19.2207  12.6838 H              1 <1>                0.0000
     41 H41         -1.8457 -18.0763  13.8068 H              1 <1>                0.0000
     42 H42         -1.3826 -17.6225  12.2920 H              1 <1>                0.0000
@<TRIPOS>BOND
    1    1    2 1     
    2    1   20 1     
    3    1   21 1     
    4    1   22 1     
    5    2    3 1     
    6    2    4 1     
    7    2    5 1     
    8    3   23 1     
    9    3   24 1     
   10    3   25 1     
   11    4   26 1     
   12    4   27 1     
   13    4   28 1     
   14    5    6 1     
   15    6    7 2     
   16    6    8 1     
   17    8    9 2     
   18    8   12 1     
   19    9   10 1     
   20    9   29 1     
   21   10   11 1     
   22   10   13 1     
   23   11   12 2     
   24   13   14 1     
   25   13   18 1     
   26   13   30 1     
   27   14   15 1     
   28   14   31 1     
   29   14   32 1     
   30   15   16 1     
   31   15   33 1     
   32   15   34 1     
   33   16   17 1     
   34   16   35 1     
   35   16   36 1     
   36   17   18 1     
   37   17   37 1     
   38   17   38 1     
   39   18   19 1     
   40   18   39 1     
   41   19   40 1     
   42   19   41 1     
   43   19   42 1     
@<TRIPOS>SUBSTRUCTURE
      1 ****           1
@<TRIPOS>SET
DONOR_HYDROGENS      STATIC     ATOMS    <user>   **** ""
3 40 41 42
ATOM$RED        STATIC     ATOMS    COLORGROUP SYSTEM
3 40 41 42
@<TRIPOS>COMMENT
> <Gold.Version>
2022.2.0

> <Gold.Id.Protein>
3pbl|protein|mol2

> <Gold.Protein.RotatedTorsions>
[ 1303 1298 1297 1294 ] final   24.46 input  179.99 | X-H torsion
[ 2461 2456 2455 2452 ] final  -46.66 input   30.03 | X-H torsion
[ 2515 2510 2509 2506 ] final   71.39 input  -89.99 | X-H torsion
[ 3721 3712 3711 3710 ] final -136.87 input -179.91 | X-H torsion
[ 3841 3832 3831 3830 ] final  116.99 input -179.91 | X-H torsion
[ 3767 3762 3761 3758 ] final    8.94 input  -89.99 | X-H torsion
[ 2472 2467 2466 2463 ] final   67.82 input  -89.97 | X-H torsion

> <Gold.Protein.ActiveResidues>
 VAL82   VAL86   LEU89   PHE106  VAL107  ASP110  VAL111  MET112  CYS114  THR115 
 CYS181  SER182  ILE183  PHE188  VAL189  ILE190  SER192  SER193  SER196  TRP342 
 PHE345  PHE346  HIS349  VAL350  TYR365  THR369  GLY372  TYR373 

> <Gold.Protein.RotatedAtoms>
    3.5739  -10.1370    4.2804 H   0  0  0  0  0  0  0  0  0  0  0  0  # atno 1303 bound_to 1298
    0.4563   -8.4028    7.2407 H   0  0  0  0  0  0  0  0  0  0  0  0  # atno 2461 bound_to 2456
   -4.7696   -4.8384    7.6722 H   0  0  0  0  0  0  0  0  0  0  0  0  # atno 2472 bound_to 2467
    2.0987   -7.5406    5.6110 H   0  0  0  0  0  0  0  0  0  0  0  0  # atno 2515 bound_to 2510
   -3.2914  -16.5621   14.1811 H   0  0  0  0  0  0  0  0  0  0  0  0  # atno 3721 bound_to 3712
   -5.2355  -22.8251   10.1007 H   0  0  0  0  0  0  0  0  0  0  0  0  # atno 3767 bound_to 3762
    3.0655  -20.7514    8.9727 H   0  0  0  0  0  0  0  0  0  0  0  0  # atno 3841 bound_to 3832
    3.8990   -8.5821    3.9023 LP  0  0  0  0  0  0  0  0  0  0  0  0  # atno 4297 bound_to 1298
    4.8896   -9.4020    4.9089 LP  0  0  0  0  0  0  0  0  0  0  0  0  # atno 4298 bound_to 1298
    1.2394   -9.2709    8.3812 LP  0  0  0  0  0  0  0  0  0  0  0  0  # atno 4299 bound_to 2456
    2.0418   -8.1344    7.5261 LP  0  0  0  0  0  0  0  0  0  0  0  0  # atno 4300 bound_to 2456
    2.7957   -8.3172    4.3553 LP  0  0  0  0  0  0  0  0  0  0  0  0  # atno 4301 bound_to 2510
    2.4025   -9.1418    5.7088 LP  0  0  0  0  0  0  0  0  0  0  0  0  # atno 4302 bound_to 2510
   -3.0499  -17.5969   12.9774 LP  0  0  0  0  0  0  0  0  0  0  0  0  # atno 4306 bound_to 3712
   -2.6777  -18.0081   14.5133 LP  0  0  0  0  0  0  0  0  0  0  0  0  # atno 4307 bound_to 3712
    1.5429  -20.5803    9.4506 LP  0  0  0  0  0  0  0  0  0  0  0  0  # atno 4314 bound_to 3832
    2.1453  -19.6540    8.2482 LP  0  0  0  0  0  0  0  0  0  0  0  0  # atno 4315 bound_to 3832
   -4.9700  -21.9346   11.4436 LP  0  0  0  0  0  0  0  0  0  0  0  0  # atno 4318 bound_to 3762
   -3.9220  -23.1154   11.0265 LP  0  0  0  0  0  0  0  0  0  0  0  0  # atno 4319 bound_to 3762
   -3.6797   -5.1420    8.8496 LP  0  0  0  0  0  0  0  0  0  0  0  0  # atno 4320 bound_to 2467
   -5.2677   -5.4131    9.1172 LP  0  0  0  0  0  0  0  0  0  0  0  0  # atno 4321 bound_to 2467

> <Gold.Score>
     Score     S(PLP)   S(hbond)     S(cho)   S(metal)  DE(clash)   DE(tors)     intcor
     46.28     -44.99       0.68       0.00       0.00       0.00       0.64       0.52

> <Gold.PLP.Fitness>
46.2782

> <Gold.PLP.PLP>
-44.9871

> <Gold.PLP.part.hbond>
-1.3550

> <Gold.PLP.part.metal>
0.0000

> <Gold.PLP.part.buried>
-2.3283

> <Gold.PLP.part.nonpolar>
-44.5800

> <Gold.PLP.part.repulsive>
0.8990

> <Gold.PLP.ligand.clash>
0.0000

> <Gold.PLP.ligand.torsion>
0.6367

> <Gold.PLP.Chemscore.Hbond>
0.6820

> <Gold.PLP.Chemscore.CHOScore>
0.0000

> <Gold.PLP.Chemscore.Metal>
0.0000

> <Gold.Chemscore.Hbonds>
donor molecule, donor type, donor heavy atom, donor atom, acceptor molecule, acceptor atom, score
      L1  H    19    41       P1  3712  0.68

> <Gold.PLP.Chemscore.Internal.Correction>
0.5185

