#       Name:                EN300-843819_i001
#       Creating user name   fsindt
#       Creation time:       Mon Feb 27 21:02:00 2023


#       File generated by GOLD software.
#

@<TRIPOS>MOLECULE
EN300-843819_i001|amine_3|mol2|757|dock6
    42    43     1
SMALL
USER_CHARGES


@<TRIPOS>ATOM
      1 C1          -2.9162 -11.1729  10.4527 C.3            1 <1>                0.0000
      2 C2          -1.4421 -10.9729  10.0950 C.3            1 <1>                0.0000
      3 C3          -1.3324 -10.4323   8.6679 C.3            1 <1>                0.0000
      4 C4          -0.8121  -9.9745  11.0683 C.3            1 <1>                0.0000
      5 O5          -0.7452 -12.2434  10.1862 O.3            1 <1>                0.0000
      6 C6          -0.8648 -12.9252  11.3423 C.2            1 <1>                0.0000
      7 O7          -1.3013 -12.3713  12.3319 O.2            1 <1>                0.0000
      8 C8          -0.4662 -14.3427  11.4065 C.2            1 <1>                0.0000
      9 C9          -0.6459 -15.1756  12.4750 C.2            1 <1>                0.0000
     10 N10         -0.1458 -16.3764  12.1224 N.pl3          1 <1>                0.0000
     11 N11          0.3398 -16.2454  10.8136 N.2            1 <1>                0.0000
     12 N12          0.1302 -15.0369  10.4218 N.2            1 <1>                0.0000
     13 C13         -0.1150 -17.5862  12.9481 C.3            1 <1>                0.0000
     14 C14         -0.0748 -17.1938  14.4263 C.3            1 <1>                0.0000
     15 C15          1.1779 -16.3586  14.6985 C.3            1 <1>                0.0000
     16 C16          2.4226 -17.1791  14.3547 C.3            1 <1>                0.0000
     17 C17          2.3825 -17.5715  12.8765 C.3            1 <1>                0.0000
     18 C18          1.1298 -18.4067  12.6043 C.3            1 <1>                0.0000
     19 N19          1.0914 -18.7835  11.1849 N.4            1 <1>                1.0000
     20 H20         -3.3651 -11.8842   9.7593 H              1 <1>                0.0000
     21 H21         -2.9943 -11.5580  11.4694 H              1 <1>                0.0000
     22 H22         -3.4394 -10.2191  10.3843 H              1 <1>                0.0000
     23 H23         -1.8557  -9.4786   8.5994 H              1 <1>                0.0000
     24 H24         -0.2823 -10.2898   8.4130 H              1 <1>                0.0000
     25 H25         -1.7813 -11.1436   7.9745 H              1 <1>                0.0000
     26 H26         -0.8901 -10.3596  12.0850 H              1 <1>                0.0000
     27 H27          0.2381  -9.8319  10.8135 H              1 <1>                0.0000
     28 H28         -1.3353  -9.0208  10.9998 H              1 <1>                0.0000
     29 H29         -1.1007 -14.9204  13.4208 H              1 <1>                0.0000
     30 H30         -1.0073 -18.1812  12.7541 H              1 <1>                0.0000
     31 H31         -0.9616 -16.6093  14.6713 H              1 <1>                0.0000
     32 H32         -0.0519 -18.0939  15.0407 H              1 <1>                0.0000
     33 H33          1.1549 -15.4585  14.0842 H              1 <1>                0.0000
     34 H34          1.2064 -16.0790  15.7517 H              1 <1>                0.0000
     35 H35          3.3150 -16.5840  14.5486 H              1 <1>                0.0000
     36 H36          2.4455 -18.0792  14.9691 H              1 <1>                0.0000
     37 H37          2.3596 -16.6714  12.2621 H              1 <1>                0.0000
     38 H38          3.2692 -18.1560  12.6315 H              1 <1>                0.0000
     39 H39          1.1527 -19.3068  13.2185 H              1 <1>                0.0000
     40 H40          1.5845 -19.6540  11.0545 H              1 <1>                0.0000
     41 H41          0.1320 -18.8931  10.8920 H              1 <1>                0.0000
     42 H42          1.5310 -18.0619  10.6334 H              1 <1>                0.0000
@<TRIPOS>BOND
    1    1    2 1     
    2    1   20 1     
    3    1   21 1     
    4    1   22 1     
    5    2    3 1     
    6    2    4 1     
    7    2    5 1     
    8    3   23 1     
    9    3   24 1     
   10    3   25 1     
   11    4   26 1     
   12    4   27 1     
   13    4   28 1     
   14    5    6 1     
   15    6    7 2     
   16    6    8 1     
   17    8    9 2     
   18    8   12 1     
   19    9   10 1     
   20    9   29 1     
   21   10   11 1     
   22   10   13 1     
   23   11   12 2     
   24   13   14 1     
   25   13   18 1     
   26   13   30 1     
   27   14   15 1     
   28   14   31 1     
   29   14   32 1     
   30   15   16 1     
   31   15   33 1     
   32   15   34 1     
   33   16   17 1     
   34   16   35 1     
   35   16   36 1     
   36   17   18 1     
   37   17   37 1     
   38   17   38 1     
   39   18   19 1     
   40   18   39 1     
   41   19   40 1     
   42   19   41 1     
   43   19   42 1     
@<TRIPOS>SUBSTRUCTURE
      1 ****           1
@<TRIPOS>SET
DONOR_HYDROGENS      STATIC     ATOMS    <user>   **** ""
3 40 41 42
ATOM$RED        STATIC     ATOMS    COLORGROUP SYSTEM
3 40 41 42
@<TRIPOS>COMMENT
> <Gold.Version>
2022.2.0

> <Gold.Id.Protein>
3pbl|protein|mol2

> <Gold.Protein.RotatedTorsions>
[ 1303 1298 1297 1294 ] final  -63.85 input  179.99 | X-H torsion
[ 2461 2456 2455 2452 ] final   50.84 input   30.03 | X-H torsion
[ 2515 2510 2509 2506 ] final -156.83 input  -89.99 | X-H torsion
[ 3721 3712 3711 3710 ] final   54.08 input -179.91 | X-H torsion
[ 3841 3832 3831 3830 ] final   -3.77 input -179.91 | X-H torsion
[ 3767 3762 3761 3758 ] final -167.10 input  -89.99 | X-H torsion
[ 2472 2467 2466 2463 ] final -125.46 input  -89.97 | X-H torsion

> <Gold.Protein.ActiveResidues>
 VAL82   VAL86   LEU89   PHE106  VAL107  ASP110  VAL111  MET112  CYS114  THR115 
 CYS181  SER182  ILE183  PHE188  VAL189  ILE190  SER192  SER193  SER196  TRP342 
 PHE345  PHE346  HIS349  VAL350  TYR365  THR369  GLY372  TYR373 

> <Gold.Protein.RotatedAtoms>
    3.5328   -8.9232    3.7809 H   0  0  0  0  0  0  0  0  0  0  0  0  # atno 1303 bound_to 1298
    1.8084   -7.9781    7.2885 H   0  0  0  0  0  0  0  0  0  0  0  0  # atno 2461 bound_to 2456
   -4.5908   -5.4530    9.4324 H   0  0  0  0  0  0  0  0  0  0  0  0  # atno 2472 bound_to 2467
    2.4854   -9.2159    5.5506 H   0  0  0  0  0  0  0  0  0  0  0  0  # atno 2515 bound_to 2510
   -2.5619  -17.9475   13.4584 H   0  0  0  0  0  0  0  0  0  0  0  0  # atno 3721 bound_to 3712
   -4.2253  -22.3776   11.6277 H   0  0  0  0  0  0  0  0  0  0  0  0  # atno 3767 bound_to 3762
    1.7055  -20.4433    9.5389 H   0  0  0  0  0  0  0  0  0  0  0  0  # atno 3841 bound_to 3832
    4.8735   -8.9261    4.7131 LP  0  0  0  0  0  0  0  0  0  0  0  0  # atno 4297 bound_to 1298
    3.9561  -10.2722    4.5979 LP  0  0  0  0  0  0  0  0  0  0  0  0  # atno 4298 bound_to 1298
    0.3393   -8.6692    7.4660 LP  0  0  0  0  0  0  0  0  0  0  0  0  # atno 4299 bound_to 2456
    1.5902   -9.1607    8.3936 LP  0  0  0  0  0  0  0  0  0  0  0  0  # atno 4300 bound_to 2456
    2.0591   -7.6541    5.7624 LP  0  0  0  0  0  0  0  0  0  0  0  0  # atno 4301 bound_to 2510
    2.7522   -8.1287    4.3621 LP  0  0  0  0  0  0  0  0  0  0  0  0  # atno 4302 bound_to 2510
   -3.0330  -17.3336   14.8652 LP  0  0  0  0  0  0  0  0  0  0  0  0  # atno 4306 bound_to 3712
   -3.5370  -16.6720   13.4599 LP  0  0  0  0  0  0  0  0  0  0  0  0  # atno 4307 bound_to 3712
    2.2015  -19.6667    8.2248 LP  0  0  0  0  0  0  0  0  0  0  0  0  # atno 4314 bound_to 3832
    3.0577  -20.9235    8.8199 LP  0  0  0  0  0  0  0  0  0  0  0  0  # atno 4315 bound_to 3832
   -4.3966  -23.3257   10.3091 LP  0  0  0  0  0  0  0  0  0  0  0  0  # atno 4318 bound_to 3762
   -5.5052  -22.1717   10.6346 LP  0  0  0  0  0  0  0  0  0  0  0  0  # atno 4319 bound_to 3762
   -5.3751   -5.0439    8.0598 LP  0  0  0  0  0  0  0  0  0  0  0  0  # atno 4320 bound_to 2467
   -3.7511   -4.8967    8.1472 LP  0  0  0  0  0  0  0  0  0  0  0  0  # atno 4321 bound_to 2467

> <Gold.Score>
     Score     S(PLP)   S(hbond)     S(cho)   S(metal)  DE(clash)   DE(tors)     intcor
     50.38     -45.80       2.00       0.00       0.00       0.00       0.97       0.52

> <Gold.PLP.Fitness>
50.3794

> <Gold.PLP.PLP>
-45.7981

> <Gold.PLP.part.hbond>
-2.3933

> <Gold.PLP.part.metal>
0.0000

> <Gold.PLP.part.buried>
-0.8895

> <Gold.PLP.part.nonpolar>
-44.4492

> <Gold.PLP.part.repulsive>
1.6706

> <Gold.PLP.ligand.clash>
0.0000

> <Gold.PLP.ligand.torsion>
0.9686

> <Gold.PLP.Chemscore.Hbond>
2.0000

> <Gold.PLP.Chemscore.CHOScore>
0.0000

> <Gold.PLP.Chemscore.Metal>
0.0000

> <Gold.Chemscore.Hbonds>
donor molecule, donor type, donor heavy atom, donor atom, acceptor molecule, acceptor atom, score
      L1  H    19    42       P1  1227  2.00

> <Gold.PLP.Chemscore.Internal.Correction>
0.5185

