#       Name:                EN300-843819_i001
#       Creating user name   fsindt
#       Creation time:       Mon Feb 27 21:02:14 2023


#       File generated by GOLD software.
#

@<TRIPOS>MOLECULE
EN300-843819_i001|amine_3|mol2|757|dock17
    42    43     1
SMALL
USER_CHARGES


@<TRIPOS>ATOM
      1 C1          -2.6599 -10.8647  10.8001 C.3            1 <1>                0.0000
      2 C2          -1.3350 -11.4336  10.2883 C.3            1 <1>                0.0000
      3 C3          -1.3079 -11.3671   8.7600 C.3            1 <1>                0.0000
      4 C4          -0.1747 -10.6129  10.8551 C.3            1 <1>                0.0000
      5 O5          -1.2045 -12.8153  10.7150 O.3            1 <1>                0.0000
      6 C6          -0.0249 -13.4209  10.4750 C.2            1 <1>                0.0000
      7 O7           0.7548 -12.9380   9.6778 O.2            1 <1>                0.0000
      8 C8           0.3195 -14.6689  11.1794 C.2            1 <1>                0.0000
      9 C9          -0.5432 -15.6898  11.4645 C.2            1 <1>                0.0000
     10 N10          0.1691 -16.6337  12.1111 N.pl3          1 <1>                0.0000
     11 N11          1.4834 -16.1551  12.2082 N.2            1 <1>                0.0000
     12 N12          1.5369 -14.9984  11.6449 N.2            1 <1>                0.0000
     13 C13         -0.3335 -17.9138  12.6161 C.3            1 <1>                0.0000
     14 C14         -0.3262 -17.8969  14.1459 C.3            1 <1>                0.0000
     15 C15          1.1026 -17.6766  14.6468 C.3            1 <1>                0.0000
     16 C16          1.9994 -18.8102  14.1451 C.3            1 <1>                0.0000
     17 C17          1.9921 -18.8272  12.6153 C.3            1 <1>                0.0000
     18 C18          0.5633 -19.0475  12.1144 C.3            1 <1>                0.0000
     19 N19          0.5564 -19.0638  10.6455 N.4            1 <1>                1.0000
     20 H20         -3.4865 -11.4494  10.3963 H              1 <1>                0.0000
     21 H21         -2.6792 -10.9121  11.8889 H              1 <1>                0.0000
     22 H22         -2.7579  -9.8275  10.4798 H              1 <1>                0.0000
     23 H23         -1.4060 -10.3299   8.4396 H              1 <1>                0.0000
     24 H24         -0.3640 -11.7724   8.3953 H              1 <1>                0.0000
     25 H25         -2.1345 -11.9518   8.3562 H              1 <1>                0.0000
     26 H26         -0.1940 -10.6603  11.9439 H              1 <1>                0.0000
     27 H27          0.7692 -11.0182  10.4905 H              1 <1>                0.0000
     28 H28         -0.2728  -9.5757  10.5348 H              1 <1>                0.0000
     29 H29         -1.5942 -15.7318  11.2193 H              1 <1>                0.0000
     30 H30         -1.3513 -18.0708  12.2592 H              1 <1>                0.0000
     31 H31         -0.9651 -17.0893  14.5033 H              1 <1>                0.0000
     32 H32         -0.7002 -18.8493  14.5217 H              1 <1>                0.0000
     33 H33          1.4765 -16.7242  14.2711 H              1 <1>                0.0000
     34 H34          1.1077 -17.6644  15.7368 H              1 <1>                0.0000
     35 H35          3.0172 -18.6532  14.5020 H              1 <1>                0.0000
     36 H36          1.6254 -19.7626  14.5209 H              1 <1>                0.0000
     37 H37          2.3661 -17.8747  12.2395 H              1 <1>                0.0000
     38 H38          2.6310 -19.6347  12.2579 H              1 <1>                0.0000
     39 H39          0.1894 -19.9999  12.4900 H              1 <1>                0.0000
     40 H40         -0.3949 -19.0142  10.3130 H              1 <1>                0.0000
     41 H41          1.0760 -18.2717  10.2980 H              1 <1>                0.0000
     42 H42          0.9836 -19.9167  10.3166 H              1 <1>                0.0000
@<TRIPOS>BOND
    1    1    2 1     
    2    1   20 1     
    3    1   21 1     
    4    1   22 1     
    5    2    3 1     
    6    2    4 1     
    7    2    5 1     
    8    3   23 1     
    9    3   24 1     
   10    3   25 1     
   11    4   26 1     
   12    4   27 1     
   13    4   28 1     
   14    5    6 1     
   15    6    7 2     
   16    6    8 1     
   17    8    9 2     
   18    8   12 1     
   19    9   10 1     
   20    9   29 1     
   21   10   11 1     
   22   10   13 1     
   23   11   12 2     
   24   13   14 1     
   25   13   18 1     
   26   13   30 1     
   27   14   15 1     
   28   14   31 1     
   29   14   32 1     
   30   15   16 1     
   31   15   33 1     
   32   15   34 1     
   33   16   17 1     
   34   16   35 1     
   35   16   36 1     
   36   17   18 1     
   37   17   37 1     
   38   17   38 1     
   39   18   19 1     
   40   18   39 1     
   41   19   40 1     
   42   19   41 1     
   43   19   42 1     
@<TRIPOS>SUBSTRUCTURE
      1 ****           1
@<TRIPOS>SET
DONOR_HYDROGENS      STATIC     ATOMS    <user>   **** ""
3 40 41 42
ATOM$RED        STATIC     ATOMS    COLORGROUP SYSTEM
3 40 41 42
@<TRIPOS>COMMENT
> <Gold.Version>
2022.2.0

> <Gold.Id.Protein>
3pbl|protein|mol2

> <Gold.Protein.RotatedTorsions>
[ 1303 1298 1297 1294 ] final  -59.13 input  179.99 | X-H torsion
[ 2461 2456 2455 2452 ] final   -3.53 input   30.03 | X-H torsion
[ 2515 2510 2509 2506 ] final   56.86 input  -89.99 | X-H torsion
[ 3721 3712 3711 3710 ] final   33.91 input -179.91 | X-H torsion
[ 3841 3832 3831 3830 ] final -172.21 input -179.91 | X-H torsion
[ 3767 3762 3761 3758 ] final -138.10 input  -89.99 | X-H torsion
[ 2472 2467 2466 2463 ] final -123.22 input  -89.97 | X-H torsion

> <Gold.Protein.ActiveResidues>
 VAL82   VAL86   LEU89   PHE106  VAL107  ASP110  VAL111  MET112  CYS114  THR115 
 CYS181  SER182  ILE183  PHE188  VAL189  ILE190  SER192  SER193  SER196  TRP342 
 PHE345  PHE346  HIS349  VAL350  TYR365  THR369  GLY372  TYR373 

> <Gold.Protein.RotatedAtoms>
    3.4913   -8.9885    3.7774 H   0  0  0  0  0  0  0  0  0  0  0  0  # atno 1303 bound_to 1298
    0.9864   -8.0082    7.0315 H   0  0  0  0  0  0  0  0  0  0  0  0  # atno 2461 bound_to 2456
   -4.5541   -5.4495    9.4336 H   0  0  0  0  0  0  0  0  0  0  0  0  # atno 2472 bound_to 2467
    2.1663   -7.4465    5.4028 H   0  0  0  0  0  0  0  0  0  0  0  0  # atno 2515 bound_to 2510
   -2.4907  -18.0277   13.7422 H   0  0  0  0  0  0  0  0  0  0  0  0  # atno 3721 bound_to 3712
   -4.5963  -22.0855   11.6222 H   0  0  0  0  0  0  0  0  0  0  0  0  # atno 3767 bound_to 3762
    2.8850  -19.9635    8.3790 H   0  0  0  0  0  0  0  0  0  0  0  0  # atno 3841 bound_to 3832
    4.8509   -8.8637    4.6731 LP  0  0  0  0  0  0  0  0  0  0  0  0  # atno 4297 bound_to 1298
    4.0202  -10.2693    4.6413 LP  0  0  0  0  0  0  0  0  0  0  0  0  # atno 4298 bound_to 1298
    0.6155   -9.1963    8.0889 LP  0  0  0  0  0  0  0  0  0  0  0  0  # atno 4299 bound_to 2456
    2.1358   -8.6035    8.0275 LP  0  0  0  0  0  0  0  0  0  0  0  0  # atno 4300 bound_to 2456
    2.8281   -8.5496    4.3972 LP  0  0  0  0  0  0  0  0  0  0  0  0  # atno 4301 bound_to 2510
    2.3025   -9.0035    5.8752 LP  0  0  0  0  0  0  0  0  0  0  0  0  # atno 4302 bound_to 2510
   -3.2008  -17.0507   14.8000 LP  0  0  0  0  0  0  0  0  0  0  0  0  # atno 4306 bound_to 3712
   -3.4513  -16.8623   13.1974 LP  0  0  0  0  0  0  0  0  0  0  0  0  # atno 4307 bound_to 3712
    2.4891  -21.1548    9.3791 LP  0  0  0  0  0  0  0  0  0  0  0  0  # atno 4314 bound_to 3832
    1.4076  -19.9897    9.0056 LP  0  0  0  0  0  0  0  0  0  0  0  0  # atno 4315 bound_to 3832
   -4.0777  -23.2956   10.6559 LP  0  0  0  0  0  0  0  0  0  0  0  0  # atno 4318 bound_to 3762
   -5.4533  -22.4937   10.2933 LP  0  0  0  0  0  0  0  0  0  0  0  0  # atno 4319 bound_to 3762
   -5.3934   -5.0565    8.0892 LP  0  0  0  0  0  0  0  0  0  0  0  0  # atno 4320 bound_to 2467
   -3.7694   -4.8876    8.1165 LP  0  0  0  0  0  0  0  0  0  0  0  0  # atno 4321 bound_to 2467

> <Gold.Score>
     Score     S(PLP)   S(hbond)     S(cho)   S(metal)  DE(clash)   DE(tors)     intcor
     43.82     -37.29       2.70       0.00       0.00       0.00       0.99       0.42

> <Gold.PLP.Fitness>
43.8193

> <Gold.PLP.PLP>
-37.2884

> <Gold.PLP.part.hbond>
-2.0000

> <Gold.PLP.part.metal>
0.0000

> <Gold.PLP.part.buried>
-1.8925

> <Gold.PLP.part.nonpolar>
-35.0821

> <Gold.PLP.part.repulsive>
0.2253

> <Gold.PLP.ligand.clash>
0.0000

> <Gold.PLP.ligand.torsion>
0.9881

> <Gold.PLP.Chemscore.Hbond>
2.6954

> <Gold.PLP.Chemscore.CHOScore>
0.0000

> <Gold.PLP.Chemscore.Metal>
0.0000

> <Gold.Chemscore.Hbonds>
donor molecule, donor type, donor heavy atom, donor atom, acceptor molecule, acceptor atom, score
      L1  H    19    41       P1  1227  1.98
      L1  H    19    42       P1  3832  0.71

> <Gold.PLP.Chemscore.Internal.Correction>
0.4211

