#       Name:                EN300-843819_i001
#       Creating user name   fsindt
#       Creation time:       Mon Feb 27 21:02:05 2023


#       File generated by GOLD software.
#

@<TRIPOS>MOLECULE
EN300-843819_i001|amine_3|mol2|757|dock10
    42    43     1
SMALL
USER_CHARGES


@<TRIPOS>ATOM
      1 C1          -0.8685 -24.0539  14.3690 C.3            1 <1>                0.0000
      2 C2          -2.0094 -23.4266  13.5653 C.3            1 <1>                0.0000
      3 C3          -2.3152 -24.2999  12.3469 C.3            1 <1>                0.0000
      4 C4          -3.2568 -23.3240  14.4453 C.3            1 <1>                0.0000
      5 O5          -1.6180 -22.0998  13.1239 O.3            1 <1>                0.0000
      6 C6          -1.0957 -21.2753  14.0528 C.2            1 <1>                0.0000
      7 O7          -1.3422 -21.4520  15.2296 O.2            1 <1>                0.0000
      8 C8          -0.2254 -20.1590  13.6418 C.2            1 <1>                0.0000
      9 C9           0.1776 -19.1247  14.4388 C.2            1 <1>                0.0000
     10 N10          0.9581 -18.3290  13.6810 N.pl3          1 <1>                0.0000
     11 N11          1.0149 -18.9109  12.4067 N.2            1 <1>                0.0000
     12 N12          0.3111 -19.9892  12.4209 N.2            1 <1>                0.0000
     13 C13          1.6197 -17.0932  14.1068 C.3            1 <1>                0.0000
     14 C14          0.5813 -16.1346  14.6929 C.3            1 <1>                0.0000
     15 C15         -0.4703 -15.8100  13.6301 C.3            1 <1>                0.0000
     16 C16          0.2075 -15.1533  12.4258 C.3            1 <1>                0.0000
     17 C17          1.2459 -16.1119  11.8397 C.3            1 <1>                0.0000
     18 C18          2.2975 -16.4366  12.9026 C.3            1 <1>                0.0000
     19 N19          3.2946 -17.3570  12.3397 N.4            1 <1>                1.0000
     20 H20          0.0202 -24.1270  13.7421 H              1 <1>                0.0000
     21 H21         -0.6507 -23.4317  15.2371 H              1 <1>                0.0000
     22 H22         -1.1624 -25.0498  14.7004 H              1 <1>                0.0000
     23 H23         -2.6090 -25.2959  12.6782 H              1 <1>                0.0000
     24 H24         -3.1280 -23.8530  11.7743 H              1 <1>                0.0000
     25 H25         -1.4265 -24.3730  11.7200 H              1 <1>                0.0000
     26 H26         -3.0390 -22.7017  15.3133 H              1 <1>                0.0000
     27 H27         -4.0696 -22.8771  13.8727 H              1 <1>                0.0000
     28 H28         -3.5506 -24.3199  14.7767 H              1 <1>                0.0000
     29 H29         -0.0804 -18.9734  15.4766 H              1 <1>                0.0000
     30 H30          2.3689 -17.3245  14.8640 H              1 <1>                0.0000
     31 H31          0.0984 -16.6024  15.5509 H              1 <1>                0.0000
     32 H32          1.0735 -15.2151  15.0098 H              1 <1>                0.0000
     33 H33         -0.9626 -16.7294  13.3133 H              1 <1>                0.0000
     34 H34         -1.2102 -15.1270  14.0477 H              1 <1>                0.0000
     35 H35         -0.5417 -14.9220  11.6687 H              1 <1>                0.0000
     36 H36          0.6998 -14.2338  12.7426 H              1 <1>                0.0000
     37 H37          0.7537 -17.0314  11.5228 H              1 <1>                0.0000
     38 H38          1.7288 -15.6441  10.9818 H              1 <1>                0.0000
     39 H39          2.7899 -15.5172  13.2193 H              1 <1>                0.0000
     40 H40          4.2169 -16.9638  12.4528 H              1 <1>                0.0000
     41 H41          3.2448 -18.2422  12.8215 H              1 <1>                0.0000
     42 H42          3.1068 -17.4971  11.3583 H              1 <1>                0.0000
@<TRIPOS>BOND
    1    1    2 1     
    2    1   20 1     
    3    1   21 1     
    4    1   22 1     
    5    2    3 1     
    6    2    4 1     
    7    2    5 1     
    8    3   23 1     
    9    3   24 1     
   10    3   25 1     
   11    4   26 1     
   12    4   27 1     
   13    4   28 1     
   14    5    6 1     
   15    6    7 2     
   16    6    8 1     
   17    8    9 2     
   18    8   12 1     
   19    9   10 1     
   20    9   29 1     
   21   10   11 1     
   22   10   13 1     
   23   11   12 2     
   24   13   14 1     
   25   13   18 1     
   26   13   30 1     
   27   14   15 1     
   28   14   31 1     
   29   14   32 1     
   30   15   16 1     
   31   15   33 1     
   32   15   34 1     
   33   16   17 1     
   34   16   35 1     
   35   16   36 1     
   36   17   18 1     
   37   17   37 1     
   38   17   38 1     
   39   18   19 1     
   40   18   39 1     
   41   19   40 1     
   42   19   41 1     
   43   19   42 1     
@<TRIPOS>SUBSTRUCTURE
      1 ****           1
@<TRIPOS>SET
DONOR_HYDROGENS      STATIC     ATOMS    <user>   **** ""
3 40 41 42
ATOM$RED        STATIC     ATOMS    COLORGROUP SYSTEM
3 40 41 42
@<TRIPOS>COMMENT
> <Gold.Version>
2022.2.0

> <Gold.Id.Protein>
3pbl|protein|mol2

> <Gold.Protein.RotatedTorsions>
[ 1303 1298 1297 1294 ] final -158.86 input  179.99 | X-H torsion
[ 2461 2456 2455 2452 ] final  -53.42 input   30.03 | X-H torsion
[ 2515 2510 2509 2506 ] final   97.88 input  -89.99 | X-H torsion
[ 3721 3712 3711 3710 ] final  163.35 input -179.91 | X-H torsion
[ 3841 3832 3831 3830 ] final    3.15 input -179.91 | X-H torsion
[ 3767 3762 3761 3758 ] final  167.43 input  -89.99 | X-H torsion
[ 2472 2467 2466 2463 ] final -109.02 input  -89.97 | X-H torsion

> <Gold.Protein.ActiveResidues>
 VAL82   VAL86   LEU89   PHE106  VAL107  ASP110  VAL111  MET112  CYS114  THR115 
 CYS181  SER182  ILE183  PHE188  VAL189  ILE190  SER192  SER193  SER196  TRP342 
 PHE345  PHE346  HIS349  VAL350  TYR365  THR369  GLY372  TYR373 

> <Gold.Protein.RotatedAtoms>
    4.6994   -8.6391    4.4814 H   0  0  0  0  0  0  0  0  0  0  0  0  # atno 1303 bound_to 1298
    0.4072   -8.4815    7.3022 H   0  0  0  0  0  0  0  0  0  0  0  0  # atno 2461 bound_to 2456
   -4.3247   -5.4159    9.4104 H   0  0  0  0  0  0  0  0  0  0  0  0  # atno 2472 bound_to 2467
    2.0325   -7.8361    5.9190 H   0  0  0  0  0  0  0  0  0  0  0  0  # atno 2515 bound_to 2510
   -3.2698  -16.7312   13.3348 H   0  0  0  0  0  0  0  0  0  0  0  0  # atno 3721 bound_to 3712
   -3.9970  -22.6882   11.4719 H   0  0  0  0  0  0  0  0  0  0  0  0  # atno 3767 bound_to 3762
    1.7649  -20.5224    9.5730 H   0  0  0  0  0  0  0  0  0  0  0  0  # atno 3841 bound_to 3832
    4.2983  -10.1888    4.8033 LP  0  0  0  0  0  0  0  0  0  0  0  0  # atno 4297 bound_to 1298
    3.3642   -9.2937    3.8069 LP  0  0  0  0  0  0  0  0  0  0  0  0  # atno 4298 bound_to 1298
    1.3472   -9.2480    8.3960 LP  0  0  0  0  0  0  0  0  0  0  0  0  # atno 4299 bound_to 2456
    1.9831   -8.0787    7.4499 LP  0  0  0  0  0  0  0  0  0  0  0  0  # atno 4300 bound_to 2456
    2.6792   -7.9063    4.4214 LP  0  0  0  0  0  0  0  0  0  0  0  0  # atno 4301 bound_to 2510
    2.5852   -9.2569    5.3345 LP  0  0  0  0  0  0  0  0  0  0  0  0  # atno 4302 bound_to 2510
   -2.6547  -18.1878   13.6140 LP  0  0  0  0  0  0  0  0  0  0  0  0  # atno 4306 bound_to 3712
   -3.0979  -17.2220   14.8538 LP  0  0  0  0  0  0  0  0  0  0  0  0  # atno 4307 bound_to 3712
    2.0973  -19.6455    8.2703 LP  0  0  0  0  0  0  0  0  0  0  0  0  # atno 4314 bound_to 3832
    3.0933  -20.8533    8.7351 LP  0  0  0  0  0  0  0  0  0  0  0  0  # atno 4315 bound_to 3832
   -4.7447  -23.2063   10.1157 LP  0  0  0  0  0  0  0  0  0  0  0  0  # atno 4318 bound_to 3762
   -5.3854  -21.9805   10.9837 LP  0  0  0  0  0  0  0  0  0  0  0  0  # atno 4319 bound_to 3762
   -5.4794   -5.1382    8.2897 LP  0  0  0  0  0  0  0  0  0  0  0  0  # atno 4320 bound_to 2467
   -3.9127   -4.8395    7.9392 LP  0  0  0  0  0  0  0  0  0  0  0  0  # atno 4321 bound_to 2467

> <Gold.Score>
     Score     S(PLP)   S(hbond)     S(cho)   S(metal)  DE(clash)   DE(tors)     intcor
     44.12     -38.79       2.00       0.00       0.00       0.00       0.54       0.42

> <Gold.PLP.Fitness>
44.1234

> <Gold.PLP.PLP>
-38.7879

> <Gold.PLP.part.hbond>
-1.0000

> <Gold.PLP.part.metal>
0.0000

> <Gold.PLP.part.buried>
-1.0153

> <Gold.PLP.part.nonpolar>
-37.4101

> <Gold.PLP.part.repulsive>
0.1201

> <Gold.PLP.ligand.clash>
0.0000

> <Gold.PLP.ligand.torsion>
0.5428

> <Gold.PLP.Chemscore.Hbond>
2.0000

> <Gold.PLP.Chemscore.CHOScore>
0.0000

> <Gold.PLP.Chemscore.Metal>
0.0000

> <Gold.Chemscore.Hbonds>
donor molecule, donor type, donor heavy atom, donor atom, acceptor molecule, acceptor atom, score
      L1  H    19    42       P1  1227  2.00

> <Gold.PLP.Chemscore.Internal.Correction>
0.4211

