#       Name:                EN300-843819_i001
#       Creating user name   fsindt
#       Creation time:       Mon Feb 27 21:02:01 2023


#       File generated by GOLD software.
#

@<TRIPOS>MOLECULE
EN300-843819_i001|amine_3|mol2|757|dock7
    42    43     1
SMALL
USER_CHARGES


@<TRIPOS>ATOM
      1 C1          -1.6929 -12.1646   9.0186 C.3            1 <1>                0.0000
      2 C2          -0.2009 -12.0827   9.3474 C.3            1 <1>                0.0000
      3 C3           0.6032 -11.9898   8.0491 C.3            1 <1>                0.0000
      4 C4           0.0657 -10.8420  10.2022 C.3            1 <1>                0.0000
      5 O5           0.1990 -13.2706  10.0804 O.3            1 <1>                0.0000
      6 C6          -0.4632 -13.5359  11.2235 C.2            1 <1>                0.0000
      7 O7          -1.2857 -12.7476  11.6462 O.2            1 <1>                0.0000
      8 C8          -0.1899 -14.7823  11.9612 C.2            1 <1>                0.0000
      9 C9           0.3503 -15.9212  11.4333 C.2            1 <1>                0.0000
     10 N10          0.4328 -16.8162  12.4377 N.pl3          1 <1>                0.0000
     11 N11         -0.0718 -16.1869  13.5845 N.2            1 <1>                0.0000
     12 N12         -0.4243 -14.9893  13.2687 N.2            1 <1>                0.0000
     13 C13          0.9498 -18.1840  12.3483 C.3            1 <1>                0.0000
     14 C14         -0.0802 -19.1573  12.9249 C.3            1 <1>                0.0000
     15 C15         -0.3476 -18.8078  14.3904 C.3            1 <1>                0.0000
     16 C16          0.9552 -18.9137  15.1857 C.3            1 <1>                0.0000
     17 C17          1.9852 -17.9404  14.6091 C.3            1 <1>                0.0000
     18 C18          2.2525 -18.2898  13.1437 C.3            1 <1>                0.0000
     19 N19          3.2416 -17.3553  12.5901 N.4            1 <1>                1.0000
     20 H20         -1.8828 -13.0484   8.4096 H              1 <1>                0.0000
     21 H21         -2.2657 -12.2307   9.9435 H              1 <1>                0.0000
     22 H22         -1.9931 -11.2728   8.4683 H              1 <1>                0.0000
     23 H23          0.3030 -11.0981   7.4987 H              1 <1>                0.0000
     24 H24          1.6662 -11.9315   8.2833 H              1 <1>                0.0000
     25 H25          0.4133 -12.8737   7.4401 H              1 <1>                0.0000
     26 H26         -0.5071 -10.9083  11.1272 H              1 <1>                0.0000
     27 H27          1.1286 -10.7837  10.4365 H              1 <1>                0.0000
     28 H28         -0.2346  -9.9504   9.6520 H              1 <1>                0.0000
     29 H29          0.6526 -16.0750  10.4079 H              1 <1>                0.0000
     30 H30          1.1403 -18.4329  11.3044 H              1 <1>                0.0000
     31 H31         -1.0084 -19.0819  12.3583 H              1 <1>                0.0000
     32 H32          0.3044 -20.1750  12.8584 H              1 <1>                0.0000
     33 H33         -0.7322 -17.7902  14.4568 H              1 <1>                0.0000
     34 H34         -1.0815 -19.5013  14.8012 H              1 <1>                0.0000
     35 H35          0.7647 -18.6648  16.2297 H              1 <1>                0.0000
     36 H36          1.3398 -19.9314  15.1192 H              1 <1>                0.0000
     37 H37          1.6006 -16.9227  14.6756 H              1 <1>                0.0000
     38 H38          2.9133 -18.0158  15.1757 H              1 <1>                0.0000
     39 H39          2.6373 -19.3074  13.0771 H              1 <1>                0.0000
     40 H40          3.1785 -17.3564  11.5831 H              1 <1>                0.0000
     41 H41          3.0577 -16.4261  12.9377 H              1 <1>                0.0000
     42 H42          4.1680 -17.6417  12.8693 H              1 <1>                0.0000
@<TRIPOS>BOND
    1    1    2 1     
    2    1   20 1     
    3    1   21 1     
    4    1   22 1     
    5    2    3 1     
    6    2    4 1     
    7    2    5 1     
    8    3   23 1     
    9    3   24 1     
   10    3   25 1     
   11    4   26 1     
   12    4   27 1     
   13    4   28 1     
   14    5    6 1     
   15    6    7 2     
   16    6    8 1     
   17    8    9 2     
   18    8   12 1     
   19    9   10 1     
   20    9   29 1     
   21   10   11 1     
   22   10   13 1     
   23   11   12 2     
   24   13   14 1     
   25   13   18 1     
   26   13   30 1     
   27   14   15 1     
   28   14   31 1     
   29   14   32 1     
   30   15   16 1     
   31   15   33 1     
   32   15   34 1     
   33   16   17 1     
   34   16   35 1     
   35   16   36 1     
   36   17   18 1     
   37   17   37 1     
   38   17   38 1     
   39   18   19 1     
   40   18   39 1     
   41   19   40 1     
   42   19   41 1     
   43   19   42 1     
@<TRIPOS>SUBSTRUCTURE
      1 ****           1
@<TRIPOS>SET
DONOR_HYDROGENS      STATIC     ATOMS    <user>   **** ""
3 40 41 42
ATOM$RED        STATIC     ATOMS    COLORGROUP SYSTEM
3 40 41 42
@<TRIPOS>COMMENT
> <Gold.Version>
2022.2.0

> <Gold.Id.Protein>
3pbl|protein|mol2

> <Gold.Protein.RotatedTorsions>
[ 1303 1298 1297 1294 ] final   40.47 input  179.99 | X-H torsion
[ 2461 2456 2455 2452 ] final  -57.62 input   30.03 | X-H torsion
[ 2515 2510 2509 2506 ] final   66.31 input  -89.99 | X-H torsion
[ 3721 3712 3711 3710 ] final -116.67 input -179.91 | X-H torsion
[ 3841 3832 3831 3830 ] final   14.04 input -179.91 | X-H torsion
[ 3767 3762 3761 3758 ] final   -4.30 input  -89.99 | X-H torsion
[ 2472 2467 2466 2463 ] final  138.84 input  -89.97 | X-H torsion

> <Gold.Protein.ActiveResidues>
 VAL82   VAL86   LEU89   PHE106  VAL107  ASP110  VAL111  MET112  CYS114  THR115 
 CYS181  SER182  ILE183  PHE188  VAL189  ILE190  SER192  SER193  SER196  TRP342 
 PHE345  PHE346  HIS349  VAL350  TYR365  THR369  GLY372  TYR373 

> <Gold.Protein.RotatedAtoms>
    3.7528  -10.2379    4.4439 H   0  0  0  0  0  0  0  0  0  0  0  0  # atno 1303 bound_to 1298
    0.3826   -8.5313    7.3433 H   0  0  0  0  0  0  0  0  0  0  0  0  # atno 2461 bound_to 2456
   -5.5034   -5.1843    8.4080 H   0  0  0  0  0  0  0  0  0  0  0  0  # atno 2472 bound_to 2467
    2.1201   -7.5015    5.5403 H   0  0  0  0  0  0  0  0  0  0  0  0  # atno 2515 bound_to 2510
   -3.1994  -16.6818   14.4448 H   0  0  0  0  0  0  0  0  0  0  0  0  # atno 3721 bound_to 3712
   -5.3601  -22.6636   10.1759 H   0  0  0  0  0  0  0  0  0  0  0  0  # atno 3767 bound_to 3762
    1.8752  -20.6387    9.6089 H   0  0  0  0  0  0  0  0  0  0  0  0  # atno 3841 bound_to 3832
    3.6980   -8.7299    3.8201 LP  0  0  0  0  0  0  0  0  0  0  0  0  # atno 4297 bound_to 1298
    4.9115   -9.1532    4.8275 LP  0  0  0  0  0  0  0  0  0  0  0  0  # atno 4298 bound_to 1298
    1.4136   -9.2292    8.4004 LP  0  0  0  0  0  0  0  0  0  0  0  0  # atno 4299 bound_to 2456
    1.9414   -8.0477    7.4043 LP  0  0  0  0  0  0  0  0  0  0  0  0  # atno 4300 bound_to 2456
    2.8098   -8.3991    4.3637 LP  0  0  0  0  0  0  0  0  0  0  0  0  # atno 4301 bound_to 2510
    2.3670   -9.0989    5.7711 LP  0  0  0  0  0  0  0  0  0  0  0  0  # atno 4302 bound_to 2510
   -3.2176  -17.3061   12.9657 LP  0  0  0  0  0  0  0  0  0  0  0  0  # atno 4306 bound_to 3712
   -2.6163  -18.1608   14.2206 LP  0  0  0  0  0  0  0  0  0  0  0  0  # atno 4307 bound_to 3712
    1.9389  -19.6344    8.3585 LP  0  0  0  0  0  0  0  0  0  0  0  0  # atno 4314 bound_to 3832
    3.1244  -20.7300    8.6053 LP  0  0  0  0  0  0  0  0  0  0  0  0  # atno 4315 bound_to 3832
   -4.7895  -21.9913   11.5503 LP  0  0  0  0  0  0  0  0  0  0  0  0  # atno 4318 bound_to 3762
   -3.9781  -23.2202   10.8446 LP  0  0  0  0  0  0  0  0  0  0  0  0  # atno 4319 bound_to 3762
   -4.0102   -4.8204    7.8563 LP  0  0  0  0  0  0  0  0  0  0  0  0  # atno 4320 bound_to 2467
   -4.2035   -5.3889    9.3748 LP  0  0  0  0  0  0  0  0  0  0  0  0  # atno 4321 bound_to 2467

> <Gold.Score>
     Score     S(PLP)   S(hbond)     S(cho)   S(metal)  DE(clash)   DE(tors)     intcor
     47.48     -40.59       2.00       0.78       0.00       1.14       0.37       0.42

> <Gold.PLP.Fitness>
47.4807

> <Gold.PLP.PLP>
-40.5946

> <Gold.PLP.part.hbond>
-1.3642

> <Gold.PLP.part.metal>
0.0000

> <Gold.PLP.part.buried>
-4.1744

> <Gold.PLP.part.nonpolar>
-36.6524

> <Gold.PLP.part.repulsive>
0.2223

> <Gold.PLP.ligand.clash>
1.1381

> <Gold.PLP.ligand.torsion>
0.3688

> <Gold.PLP.Chemscore.Hbond>
2.0000

> <Gold.PLP.Chemscore.CHOScore>
0.7802

> <Gold.PLP.Chemscore.Metal>
0.0000

> <Gold.Chemscore.Hbonds>
donor molecule, donor type, donor heavy atom, donor atom, acceptor molecule, acceptor atom, score
      L1  H    19    40       P1  1227  2.00
      L1  C     9    29       P1  1227  0.78

> <Gold.PLP.Chemscore.Internal.Correction>
0.4211

