#       Name:                EN300-843819_i001
#       Creating user name   fsindt
#       Creation time:       Mon Feb 27 21:02:16 2023


#       File generated by GOLD software.
#

@<TRIPOS>MOLECULE
EN300-843819_i001|amine_3|mol2|757|dock18
    42    43     1
SMALL
USER_CHARGES


@<TRIPOS>ATOM
      1 C1          -3.1324 -23.9501  13.2215 C.3            1 <1>                0.0000
      2 C2          -2.1051 -23.5156  14.2688 C.3            1 <1>                0.0000
      3 C3          -2.7050 -23.6724  15.6675 C.3            1 <1>                0.0000
      4 C4          -0.8544 -24.3888  14.1494 C.3            1 <1>                0.0000
      5 O5          -1.7477 -22.1256  14.0486 O.3            1 <1>                0.0000
      6 C6          -1.0519 -21.8426  12.9299 C.2            1 <1>                0.0000
      7 O7          -1.0602 -22.6203  11.9962 O.2            1 <1>                0.0000
      8 C8          -0.2806 -20.5899  12.8388 C.2            1 <1>                0.0000
      9 C9           0.2487 -19.8990  13.8924 C.2            1 <1>                0.0000
     10 N10          0.8726 -18.8207  13.3782 N.pl3          1 <1>                0.0000
     11 N11          0.7054 -18.8798  11.9874 N.2            1 <1>                0.0000
     12 N12          0.0263 -19.9367  11.7046 N.2            1 <1>                0.0000
     13 C13          1.5876 -17.7852  14.1284 C.3            1 <1>                0.0000
     14 C14          0.5974 -17.0130  15.0024 C.3            1 <1>                0.0000
     15 C15         -0.4637 -16.3589  14.1151 C.3            1 <1>                0.0000
     16 C16          0.2124 -15.3957  13.1373 C.3            1 <1>                0.0000
     17 C17          1.2026 -16.1680  12.2633 C.3            1 <1>                0.0000
     18 C18          2.2637 -16.8220  13.1506 C.3            1 <1>                0.0000
     19 N19          3.2145 -17.5635  12.3114 N.4            1 <1>                1.0000
     20 H20         -4.0234 -23.3280  13.3066 H              1 <1>                0.0000
     21 H21         -2.7049 -23.8383  12.2251 H              1 <1>                0.0000
     22 H22         -3.4006 -24.9936  13.3868 H              1 <1>                0.0000
     23 H23         -2.9734 -24.7159  15.8328 H              1 <1>                0.0000
     24 H24         -1.9731 -23.3629  16.4136 H              1 <1>                0.0000
     25 H25         -3.5960 -23.0503  15.7525 H              1 <1>                0.0000
     26 H26         -0.4270 -24.2770  13.1530 H              1 <1>                0.0000
     27 H27         -0.1225 -24.0793  14.8955 H              1 <1>                0.0000
     28 H28         -1.1227 -25.4322  14.3146 H              1 <1>                0.0000
     29 H29          0.1798 -20.1656  14.9368 H              1 <1>                0.0000
     30 H30          2.3436 -18.2512  14.7605 H              1 <1>                0.0000
     31 H31          0.1158 -17.6992  15.6991 H              1 <1>                0.0000
     32 H32          1.1294 -16.2426  15.5606 H              1 <1>                0.0000
     33 H33         -0.9957 -17.1292  13.5570 H              1 <1>                0.0000
     34 H34         -1.1692 -15.8087  14.7378 H              1 <1>                0.0000
     35 H35         -0.5435 -14.9298  12.5052 H              1 <1>                0.0000
     36 H36          0.7444 -14.6253  13.6955 H              1 <1>                0.0000
     37 H37          0.6706 -16.9384  11.7051 H              1 <1>                0.0000
     38 H38          1.6843 -15.4818  11.5667 H              1 <1>                0.0000
     39 H39          2.7958 -16.0517  13.7087 H              1 <1>                0.0000
     40 H40          3.0017 -18.5489  12.3521 H              1 <1>                0.0000
     41 H41          3.1421 -17.2428  11.3574 H              1 <1>                0.0000
     42 H42          4.1528 -17.4078  12.6483 H              1 <1>                0.0000
@<TRIPOS>BOND
    1    1    2 1     
    2    1   20 1     
    3    1   21 1     
    4    1   22 1     
    5    2    3 1     
    6    2    4 1     
    7    2    5 1     
    8    3   23 1     
    9    3   24 1     
   10    3   25 1     
   11    4   26 1     
   12    4   27 1     
   13    4   28 1     
   14    5    6 1     
   15    6    7 2     
   16    6    8 1     
   17    8    9 2     
   18    8   12 1     
   19    9   10 1     
   20    9   29 1     
   21   10   11 1     
   22   10   13 1     
   23   11   12 2     
   24   13   14 1     
   25   13   18 1     
   26   13   30 1     
   27   14   15 1     
   28   14   31 1     
   29   14   32 1     
   30   15   16 1     
   31   15   33 1     
   32   15   34 1     
   33   16   17 1     
   34   16   35 1     
   35   16   36 1     
   36   17   18 1     
   37   17   37 1     
   38   17   38 1     
   39   18   19 1     
   40   18   39 1     
   41   19   40 1     
   42   19   41 1     
   43   19   42 1     
@<TRIPOS>SUBSTRUCTURE
      1 ****           1
@<TRIPOS>SET
DONOR_HYDROGENS      STATIC     ATOMS    <user>   **** ""
3 40 41 42
ATOM$RED        STATIC     ATOMS    COLORGROUP SYSTEM
3 40 41 42
@<TRIPOS>COMMENT
> <Gold.Version>
2022.2.0

> <Gold.Id.Protein>
3pbl|protein|mol2

> <Gold.Protein.RotatedTorsions>
[ 1303 1298 1297 1294 ] final  170.51 input  179.99 | X-H torsion
[ 2461 2456 2455 2452 ] final  158.16 input   30.03 | X-H torsion
[ 2515 2510 2509 2506 ] final  140.31 input  -89.99 | X-H torsion
[ 3721 3712 3711 3710 ] final -170.41 input -179.91 | X-H torsion
[ 3841 3832 3831 3830 ] final   55.59 input -179.91 | X-H torsion
[ 3767 3762 3761 3758 ] final  -49.72 input  -89.99 | X-H torsion
[ 2472 2467 2466 2463 ] final   -0.09 input  -89.97 | X-H torsion

> <Gold.Protein.ActiveResidues>
 VAL82   VAL86   LEU89   PHE106  VAL107  ASP110  VAL111  MET112  CYS114  THR115 
 CYS181  SER182  ILE183  PHE188  VAL189  ILE190  SER192  SER193  SER196  TRP342 
 PHE345  PHE346  HIS349  VAL350  TYR365  THR369  GLY372  TYR373 

> <Gold.Protein.RotatedAtoms>
    4.8934   -9.0047    4.7580 H   0  0  0  0  0  0  0  0  0  0  0  0  # atno 1303 bound_to 1298
    1.7681   -9.0596    8.3548 H   0  0  0  0  0  0  0  0  0  0  0  0  # atno 2461 bound_to 2456
   -3.7970   -4.8763    8.0743 H   0  0  0  0  0  0  0  0  0  0  0  0  # atno 2472 bound_to 2467
    2.1006   -8.4921    6.0928 H   0  0  0  0  0  0  0  0  0  0  0  0  # atno 2515 bound_to 2510
   -3.3361  -16.5615   13.6833 H   0  0  0  0  0  0  0  0  0  0  0  0  # atno 3721 bound_to 3712
   -5.4997  -22.1466   10.6692 H   0  0  0  0  0  0  0  0  0  0  0  0  # atno 3767 bound_to 3762
    2.4108  -20.9307    9.5387 H   0  0  0  0  0  0  0  0  0  0  0  0  # atno 3841 bound_to 3832
    3.8807  -10.2676    4.5437 LP  0  0  0  0  0  0  0  0  0  0  0  0  # atno 4297 bound_to 1298
    3.5878   -8.8491    3.7897 LP  0  0  0  0  0  0  0  0  0  0  0  0  # atno 4298 bound_to 1298
    1.6360   -7.9312    7.1814 LP  0  0  0  0  0  0  0  0  0  0  0  0  # atno 4299 bound_to 2456
    0.3338   -8.8175    7.6122 LP  0  0  0  0  0  0  0  0  0  0  0  0  # atno 4300 bound_to 2456
    2.3991   -7.4646    4.8595 LP  0  0  0  0  0  0  0  0  0  0  0  0  # atno 4301 bound_to 2510
    2.7972   -9.0424    4.7225 LP  0  0  0  0  0  0  0  0  0  0  0  0  # atno 4302 bound_to 2510
   -2.7916  -18.0064   13.2434 LP  0  0  0  0  0  0  0  0  0  0  0  0  # atno 4306 bound_to 3712
   -2.8845  -17.5993   14.8221 LP  0  0  0  0  0  0  0  0  0  0  0  0  # atno 4307 bound_to 3712
    1.4833  -19.8353    8.8205 LP  0  0  0  0  0  0  0  0  0  0  0  0  # atno 4314 bound_to 3832
    2.9612  -20.1918    8.2245 LP  0  0  0  0  0  0  0  0  0  0  0  0  # atno 4315 bound_to 3832
   -4.1971  -22.4089   11.6185 LP  0  0  0  0  0  0  0  0  0  0  0  0  # atno 4318 bound_to 3762
   -4.4309  -23.3194   10.2833 LP  0  0  0  0  0  0  0  0  0  0  0  0  # atno 4319 bound_to 3762
   -4.5029   -5.4429    9.4334 LP  0  0  0  0  0  0  0  0  0  0  0  0  # atno 4320 bound_to 2467
   -5.4169   -5.0743    8.1313 LP  0  0  0  0  0  0  0  0  0  0  0  0  # atno 4321 bound_to 2467

> <Gold.Score>
     Score     S(PLP)   S(hbond)     S(cho)   S(metal)  DE(clash)   DE(tors)     intcor
     44.32     -39.30       2.00       0.00       0.00       0.00       0.70       0.42

> <Gold.PLP.Fitness>
44.3175

> <Gold.PLP.PLP>
-39.3027

> <Gold.PLP.part.hbond>
-1.0000

> <Gold.PLP.part.metal>
0.0000

> <Gold.PLP.part.buried>
-5.1904

> <Gold.PLP.part.nonpolar>
-33.1267

> <Gold.PLP.part.repulsive>
0.1380

> <Gold.PLP.ligand.clash>
0.0000

> <Gold.PLP.ligand.torsion>
0.7032

> <Gold.PLP.Chemscore.Hbond>
2.0000

> <Gold.PLP.Chemscore.CHOScore>
0.0000

> <Gold.PLP.Chemscore.Metal>
0.0000

> <Gold.Chemscore.Hbonds>
donor molecule, donor type, donor heavy atom, donor atom, acceptor molecule, acceptor atom, score
      L1  H    19    41       P1  1227  2.00

> <Gold.PLP.Chemscore.Internal.Correction>
0.4211

