#       Name:                EN300-843819_i001
#       Creating user name   fsindt
#       Creation time:       Mon Feb 27 21:01:59 2023


#       File generated by GOLD software.
#

@<TRIPOS>MOLECULE
EN300-843819_i001|amine_3|mol2|757|dock4
    42    43     1
SMALL
USER_CHARGES


@<TRIPOS>ATOM
      1 C1          -2.5060 -12.2359   9.3716 C.3            1 <1>                0.0000
      2 C2          -1.6117 -11.4833  10.3588 C.3            1 <1>                0.0000
      3 C3          -0.4832 -10.7867   9.5959 C.3            1 <1>                0.0000
      4 C4          -2.4430 -10.4385  11.1059 C.3            1 <1>                0.0000
      5 O5          -1.0448 -12.4218  11.3108 O.3            1 <1>                0.0000
      6 C6          -0.4161 -13.5012  10.8055 C.2            1 <1>                0.0000
      7 O7          -0.0811 -13.5177   9.6375 O.2            1 <1>                0.0000
      8 C8          -0.1349 -14.6618  11.6693 C.2            1 <1>                0.0000
      9 C9           0.3682 -15.8630  11.2550 C.2            1 <1>                0.0000
     10 N10          0.4739 -16.6408  12.3506 N.pl3          1 <1>                0.0000
     11 N11          0.0213 -15.8771  13.4358 N.2            1 <1>                0.0000
     12 N12         -0.3244 -14.7160  12.9992 N.2            1 <1>                0.0000
     13 C13          0.9665 -18.0197  12.3984 C.3            1 <1>                0.0000
     14 C14         -0.0613 -18.9042  13.1069 C.3            1 <1>                0.0000
     15 C15         -0.2800 -18.3910  14.5317 C.3            1 <1>                0.0000
     16 C16          1.0437 -18.4335  15.2978 C.3            1 <1>                0.0000
     17 C17          2.0716 -17.5490  14.5893 C.3            1 <1>                0.0000
     18 C18          2.2902 -18.0621  13.1645 C.3            1 <1>                0.0000
     19 N19          3.2771 -17.2129  12.4843 N.4            1 <1>                1.0000
     20 H20         -1.9137 -12.9802   8.8393 H              1 <1>                0.0000
     21 H21         -3.3100 -12.7322   9.9151 H              1 <1>                0.0000
     22 H22         -2.9316 -11.5313   8.6570 H              1 <1>                0.0000
     23 H23         -0.9087 -10.0822   8.8812 H              1 <1>                0.0000
     24 H24          0.1540 -10.2505  10.2992 H              1 <1>                0.0000
     25 H25          0.1091 -11.5310   9.0637 H              1 <1>                0.0000
     26 H26         -3.2469 -10.9348  11.6495 H              1 <1>                0.0000
     27 H27         -1.8059  -9.9023  11.8093 H              1 <1>                0.0000
     28 H28         -2.8685  -9.7341  10.3913 H              1 <1>                0.0000
     29 H29          0.6303 -16.1367  10.2436 H              1 <1>                0.0000
     30 H30          1.1223 -18.3852  11.3835 H              1 <1>                0.0000
     31 H31         -1.0044 -18.8740  12.5612 H              1 <1>                0.0000
     32 H32          0.3051 -19.9301  13.1425 H              1 <1>                0.0000
     33 H33         -0.6465 -17.3652  14.4961 H              1 <1>                0.0000
     34 H34         -1.0123 -19.0212  15.0365 H              1 <1>                0.0000
     35 H35          0.8879 -18.0679  16.3128 H              1 <1>                0.0000
     36 H36          1.4102 -19.4594  15.3334 H              1 <1>                0.0000
     37 H37          1.7051 -16.5230  14.5537 H              1 <1>                0.0000
     38 H38          3.0146 -17.5792  15.1350 H              1 <1>                0.0000
     39 H39          2.6568 -19.0880  13.2000 H              1 <1>                0.0000
     40 H40          4.1776 -17.6679  12.4962 H              1 <1>                0.0000
     41 H41          2.9892 -17.0617  11.5291 H              1 <1>                0.0000
     42 H42          3.3423 -16.3256  12.9603 H              1 <1>                0.0000
@<TRIPOS>BOND
    1    1    2 1     
    2    1   20 1     
    3    1   21 1     
    4    1   22 1     
    5    2    3 1     
    6    2    4 1     
    7    2    5 1     
    8    3   23 1     
    9    3   24 1     
   10    3   25 1     
   11    4   26 1     
   12    4   27 1     
   13    4   28 1     
   14    5    6 1     
   15    6    7 2     
   16    6    8 1     
   17    8    9 2     
   18    8   12 1     
   19    9   10 1     
   20    9   29 1     
   21   10   11 1     
   22   10   13 1     
   23   11   12 2     
   24   13   14 1     
   25   13   18 1     
   26   13   30 1     
   27   14   15 1     
   28   14   31 1     
   29   14   32 1     
   30   15   16 1     
   31   15   33 1     
   32   15   34 1     
   33   16   17 1     
   34   16   35 1     
   35   16   36 1     
   36   17   18 1     
   37   17   37 1     
   38   17   38 1     
   39   18   19 1     
   40   18   39 1     
   41   19   40 1     
   42   19   41 1     
   43   19   42 1     
@<TRIPOS>SUBSTRUCTURE
      1 ****           1
@<TRIPOS>SET
DONOR_HYDROGENS      STATIC     ATOMS    <user>   **** ""
3 40 41 42
ATOM$RED        STATIC     ATOMS    COLORGROUP SYSTEM
3 40 41 42
@<TRIPOS>COMMENT
> <Gold.Version>
2022.2.0

> <Gold.Id.Protein>
3pbl|protein|mol2

> <Gold.Protein.RotatedTorsions>
[ 1303 1298 1297 1294 ] final  -41.27 input  179.99 | X-H torsion
[ 2461 2456 2455 2452 ] final   84.80 input   30.03 | X-H torsion
[ 2515 2510 2509 2506 ] final  146.86 input  -89.99 | X-H torsion
[ 3721 3712 3711 3710 ] final   42.25 input -179.91 | X-H torsion
[ 3841 3832 3831 3830 ] final  113.31 input -179.91 | X-H torsion
[ 3767 3762 3761 3758 ] final   48.98 input  -89.99 | X-H torsion
[ 2472 2467 2466 2463 ] final   26.03 input  -89.97 | X-H torsion

> <Gold.Protein.ActiveResidues>
 VAL82   VAL86   LEU89   PHE106  VAL107  ASP110  VAL111  MET112  CYS114  THR115 
 CYS181  SER182  ILE183  PHE188  VAL189  ILE190  SER192  SER193  SER196  TRP342 
 PHE345  PHE346  HIS349  VAL350  TYR365  THR369  GLY372  TYR373 

> <Gold.Protein.RotatedAtoms>
    3.3746   -9.2560    3.8001 H   0  0  0  0  0  0  0  0  0  0  0  0  # atno 1303 bound_to 1298
    2.1160   -8.2432    7.6606 H   0  0  0  0  0  0  0  0  0  0  0  0  # atno 2461 bound_to 2456
   -4.1085   -4.8087    7.7915 H   0  0  0  0  0  0  0  0  0  0  0  0  # atno 2472 bound_to 2467
    2.1290   -8.5949    6.0781 H   0  0  0  0  0  0  0  0  0  0  0  0  # atno 2515 bound_to 2510
   -2.5143  -18.0053   13.6206 H   0  0  0  0  0  0  0  0  0  0  0  0  # atno 3721 bound_to 3712
   -4.7227  -23.2168   10.1230 H   0  0  0  0  0  0  0  0  0  0  0  0  # atno 3767 bound_to 3762
    3.0436  -20.7819    9.0136 H   0  0  0  0  0  0  0  0  0  0  0  0  # atno 3841 bound_to 3832
    4.7220   -8.6614    4.5051 LP  0  0  0  0  0  0  0  0  0  0  0  0  # atno 4297 bound_to 1298
    4.2659  -10.2039    4.7866 LP  0  0  0  0  0  0  0  0  0  0  0  0  # atno 4298 bound_to 1298
    0.5643   -8.2766    7.1523 LP  0  0  0  0  0  0  0  0  0  0  0  0  # atno 4299 bound_to 2456
    1.0577   -9.2883    8.3352 LP  0  0  0  0  0  0  0  0  0  0  0  0  # atno 4300 bound_to 2456
    2.3534   -7.4340    4.9522 LP  0  0  0  0  0  0  0  0  0  0  0  0  # atno 4301 bound_to 2510
    2.8145   -8.9701    4.6445 LP  0  0  0  0  0  0  0  0  0  0  0  0  # atno 4302 bound_to 2510
   -3.1320  -17.1645   14.8410 LP  0  0  0  0  0  0  0  0  0  0  0  0  # atno 4306 bound_to 3712
   -3.4929  -16.7743   13.2969 LP  0  0  0  0  0  0  0  0  0  0  0  0  # atno 4307 bound_to 3712
    1.5127  -20.5325    9.4265 LP  0  0  0  0  0  0  0  0  0  0  0  0  # atno 4314 bound_to 3832
    2.2008  -19.6665    8.2251 LP  0  0  0  0  0  0  0  0  0  0  0  0  # atno 4315 bound_to 3832
   -5.3969  -21.9889   10.9624 LP  0  0  0  0  0  0  0  0  0  0  0  0  # atno 4318 bound_to 3762
   -4.0078  -22.6696   11.4854 LP  0  0  0  0  0  0  0  0  0  0  0  0  # atno 4319 bound_to 3762
   -4.0982   -5.3606    9.3283 LP  0  0  0  0  0  0  0  0  0  0  0  0  # atno 4320 bound_to 2467
   -5.5101   -5.2243    8.5191 LP  0  0  0  0  0  0  0  0  0  0  0  0  # atno 4321 bound_to 2467

> <Gold.Score>
     Score     S(PLP)   S(hbond)     S(cho)   S(metal)  DE(clash)   DE(tors)     intcor
     50.04     -41.59       2.00       0.90       0.00       0.00       0.39       0.52

> <Gold.PLP.Fitness>
50.0416

> <Gold.PLP.PLP>
-41.5883

> <Gold.PLP.part.hbond>
-1.0000

> <Gold.PLP.part.metal>
0.0000

> <Gold.PLP.part.buried>
-4.3364

> <Gold.PLP.part.nonpolar>
-38.6365

> <Gold.PLP.part.repulsive>
0.1959

> <Gold.PLP.ligand.clash>
0.0000

> <Gold.PLP.ligand.torsion>
0.3880

> <Gold.PLP.Chemscore.Hbond>
2.0000

> <Gold.PLP.Chemscore.CHOScore>
0.9036

> <Gold.PLP.Chemscore.Metal>
0.0000

> <Gold.Chemscore.Hbonds>
donor molecule, donor type, donor heavy atom, donor atom, acceptor molecule, acceptor atom, score
      L1  H    19    41       P1  1227  2.00
      L1  C     9    29       P1  1227  0.90

> <Gold.PLP.Chemscore.Internal.Correction>
0.5185

