#       Name:                EN300-843819_i001
#       Creating user name   fsindt
#       Creation time:       Mon Feb 27 21:01:55 2023


#       File generated by GOLD software.
#

@<TRIPOS>MOLECULE
EN300-843819_i001|amine_3|mol2|757|dock1
    42    43     1
SMALL
USER_CHARGES


@<TRIPOS>ATOM
      1 C1          -1.2214  -9.8781  11.2435 C.3            1 <1>                0.0000
      2 C2          -2.1416 -10.7651  10.4024 C.3            1 <1>                0.0000
      3 C3          -3.5980 -10.5006  10.7890 C.3            1 <1>                0.0000
      4 C4          -1.9416 -10.4460   8.9194 C.3            1 <1>                0.0000
      5 O5          -1.8224 -12.1608  10.6445 O.3            1 <1>                0.0000
      6 C6          -0.5442 -12.5391  10.4474 C.2            1 <1>                0.0000
      7 O7           0.2354 -11.7843   9.9005 O.2            1 <1>                0.0000
      8 C8          -0.0917 -13.8684  10.8953 C.2            1 <1>                0.0000
      9 C9          -0.7004 -14.6423  11.8430 C.2            1 <1>                0.0000
     10 N10          0.0274 -15.7713  11.9515 N.pl3          1 <1>                0.0000
     11 N11          1.0905 -15.6577  11.0445 N.2            1 <1>                0.0000
     12 N12          0.9863 -14.5275  10.4363 N.2            1 <1>                0.0000
     13 C13         -0.2404 -16.9004  12.8458 C.3            1 <1>                0.0000
     14 C14         -0.1258 -16.4379  14.2996 C.3            1 <1>                0.0000
     15 C15          1.2863 -15.9077  14.5564 C.3            1 <1>                0.0000
     16 C16          2.3041 -17.0194  14.2932 C.3            1 <1>                0.0000
     17 C17          2.1895 -17.4819  12.8394 C.3            1 <1>                0.0000
     18 C18          0.7774 -18.0121  12.5826 C.3            1 <1>                0.0000
     19 N19          0.6675 -18.4563  11.1866 N.4            1 <1>                1.0000
     20 H20         -1.3638 -10.1055  12.3000 H              1 <1>                0.0000
     21 H21         -0.1838 -10.0666  10.9679 H              1 <1>                0.0000
     22 H22         -1.4610  -8.8304  11.0617 H              1 <1>                0.0000
     23 H23         -3.8377  -9.4528  10.6074 H              1 <1>                0.0000
     24 H24         -4.2537 -11.1325  10.1898 H              1 <1>                0.0000
     25 H25         -3.7405 -10.7279  11.8455 H              1 <1>                0.0000
     26 H26         -0.9040 -10.6345   8.6439 H              1 <1>                0.0000
     27 H27         -2.5972 -11.0779   8.3201 H              1 <1>                0.0000
     28 H28         -2.1812  -9.3983   8.7377 H              1 <1>                0.0000
     29 H29         -1.5931 -14.3960  12.3989 H              1 <1>                0.0000
     30 H30         -1.2463 -17.2782  12.6628 H              1 <1>                0.0000
     31 H31         -0.8509 -15.6459  14.4872 H              1 <1>                0.0000
     32 H32         -0.3251 -17.2779  14.9650 H              1 <1>                0.0000
     33 H33          1.4855 -15.0677  13.8911 H              1 <1>                0.0000
     34 H34          1.3679 -15.5781  15.5922 H              1 <1>                0.0000
     35 H35          3.3100 -16.6416  14.4761 H              1 <1>                0.0000
     36 H36          2.1048 -17.8594  14.9586 H              1 <1>                0.0000
     37 H37          2.3888 -16.6418  12.1740 H              1 <1>                0.0000
     38 H38          2.9146 -18.2738  12.6518 H              1 <1>                0.0000
     39 H39          0.5782 -18.8522  13.2478 H              1 <1>                0.0000
     40 H40          0.5215 -19.4543  11.1617 H              1 <1>                0.0000
     41 H41         -0.1121 -17.9911  10.7462 H              1 <1>                0.0000
     42 H42          1.5176 -18.2283  10.6932 H              1 <1>                0.0000
@<TRIPOS>BOND
    1    1    2 1     
    2    1   20 1     
    3    1   21 1     
    4    1   22 1     
    5    2    3 1     
    6    2    4 1     
    7    2    5 1     
    8    3   23 1     
    9    3   24 1     
   10    3   25 1     
   11    4   26 1     
   12    4   27 1     
   13    4   28 1     
   14    5    6 1     
   15    6    7 2     
   16    6    8 1     
   17    8    9 2     
   18    8   12 1     
   19    9   10 1     
   20    9   29 1     
   21   10   11 1     
   22   10   13 1     
   23   11   12 2     
   24   13   14 1     
   25   13   18 1     
   26   13   30 1     
   27   14   15 1     
   28   14   31 1     
   29   14   32 1     
   30   15   16 1     
   31   15   33 1     
   32   15   34 1     
   33   16   17 1     
   34   16   35 1     
   35   16   36 1     
   36   17   18 1     
   37   17   37 1     
   38   17   38 1     
   39   18   19 1     
   40   18   39 1     
   41   19   40 1     
   42   19   41 1     
   43   19   42 1     
@<TRIPOS>SUBSTRUCTURE
      1 ****           1
@<TRIPOS>SET
DONOR_HYDROGENS      STATIC     ATOMS    <user>   **** ""
3 40 41 42
ATOM$RED        STATIC     ATOMS    COLORGROUP SYSTEM
3 40 41 42
@<TRIPOS>COMMENT
> <Gold.Version>
2022.2.0

> <Gold.Id.Protein>
3pbl|protein|mol2

> <Gold.Protein.RotatedTorsions>
[ 1303 1298 1297 1294 ] final   34.54 input  179.99 | X-H torsion
[ 2461 2456 2455 2452 ] final   42.91 input   30.03 | X-H torsion
[ 2515 2510 2509 2506 ] final  135.22 input  -89.99 | X-H torsion
[ 3721 3712 3711 3710 ] final   36.03 input -179.91 | X-H torsion
[ 3841 3832 3831 3830 ] final   53.66 input -179.91 | X-H torsion
[ 3767 3762 3761 3758 ] final -112.27 input  -89.99 | X-H torsion
[ 2472 2467 2466 2463 ] final   -4.09 input  -89.97 | X-H torsion

> <Gold.Protein.ActiveResidues>
 VAL82   VAL86   LEU89   PHE106  VAL107  ASP110  VAL111  MET112  CYS114  THR115 
 CYS181  SER182  ILE183  PHE188  VAL189  ILE190  SER192  SER193  SER196  TRP342 
 PHE345  PHE346  HIS349  VAL350  TYR365  THR369  GLY372  TYR373 

> <Gold.Protein.RotatedAtoms>
    3.6824  -10.2080    4.3834 H   0  0  0  0  0  0  0  0  0  0  0  0  # atno 1303 bound_to 1298
    1.7034   -7.9449    7.2186 H   0  0  0  0  0  0  0  0  0  0  0  0  # atno 2461 bound_to 2456
   -3.7621   -4.8918    8.1279 H   0  0  0  0  0  0  0  0  0  0  0  0  # atno 2472 bound_to 2467
    2.0815   -8.4106    6.0964 H   0  0  0  0  0  0  0  0  0  0  0  0  # atno 2515 bound_to 2510
   -2.4959  -18.0235   13.7109 H   0  0  0  0  0  0  0  0  0  0  0  0  # atno 3721 bound_to 3712
   -4.9536  -21.9377   11.4545 H   0  0  0  0  0  0  0  0  0  0  0  0  # atno 3767 bound_to 3762
    2.3843  -20.9240    9.5491 H   0  0  0  0  0  0  0  0  0  0  0  0  # atno 3841 bound_to 3832
    3.7694   -8.6686    3.8459 LP  0  0  0  0  0  0  0  0  0  0  0  0  # atno 4297 bound_to 1298
    4.9105   -9.2443    4.8623 LP  0  0  0  0  0  0  0  0  0  0  0  0  # atno 4298 bound_to 1298
    0.3306   -8.7627    7.5564 LP  0  0  0  0  0  0  0  0  0  0  0  0  # atno 4299 bound_to 2456
    1.7039   -9.1003    8.3730 LP  0  0  0  0  0  0  0  0  0  0  0  0  # atno 4300 bound_to 2456
    2.4350   -7.4962    4.7908 LP  0  0  0  0  0  0  0  0  0  0  0  0  # atno 4301 bound_to 2510
    2.7804   -9.0922    4.7877 LP  0  0  0  0  0  0  0  0  0  0  0  0  # atno 4302 bound_to 2510
   -3.1835  -17.0791   14.8123 LP  0  0  0  0  0  0  0  0  0  0  0  0  # atno 4306 bound_to 3712
   -3.4626  -16.8388   13.2214 LP  0  0  0  0  0  0  0  0  0  0  0  0  # atno 4307 bound_to 3712
    1.4970  -19.8182    8.7967 LP  0  0  0  0  0  0  0  0  0  0  0  0  # atno 4314 bound_to 3832
    2.9782  -20.2167    8.2364 LP  0  0  0  0  0  0  0  0  0  0  0  0  # atno 4315 bound_to 3832
   -3.9254  -23.1261   11.0103 LP  0  0  0  0  0  0  0  0  0  0  0  0  # atno 4318 bound_to 3762
   -5.2485  -22.8111   10.1065 LP  0  0  0  0  0  0  0  0  0  0  0  0  # atno 4319 bound_to 3762
   -4.5683   -5.4502    9.4335 LP  0  0  0  0  0  0  0  0  0  0  0  0  # atno 4320 bound_to 2467
   -5.3864   -5.0515    8.0776 LP  0  0  0  0  0  0  0  0  0  0  0  0  # atno 4321 bound_to 2467

> <Gold.Score>
     Score     S(PLP)   S(hbond)     S(cho)   S(metal)  DE(clash)   DE(tors)     intcor
     53.43     -48.07       2.00       0.00       0.00       0.48       0.34       0.52

> <Gold.PLP.Fitness>
53.4275

> <Gold.PLP.PLP>
-48.0728

> <Gold.PLP.part.hbond>
-1.0000

> <Gold.PLP.part.metal>
0.0000

> <Gold.PLP.part.buried>
-3.9487

> <Gold.PLP.part.nonpolar>
-47.1739

> <Gold.PLP.part.repulsive>
2.1000

> <Gold.PLP.ligand.clash>
0.4818

> <Gold.PLP.ligand.torsion>
0.3410

> <Gold.PLP.Chemscore.Hbond>
2.0000

> <Gold.PLP.Chemscore.CHOScore>
0.0000

> <Gold.PLP.Chemscore.Metal>
0.0000

> <Gold.Chemscore.Hbonds>
donor molecule, donor type, donor heavy atom, donor atom, acceptor molecule, acceptor atom, score
      L1  H    19    42       P1  1227  2.00

> <Gold.PLP.Chemscore.Internal.Correction>
0.5185

