#       Name:                EN300-843819_i001
#       Creating user name   fsindt
#       Creation time:       Mon Feb 27 21:01:56 2023


#       File generated by GOLD software.
#

@<TRIPOS>MOLECULE
EN300-843819_i001|amine_3|mol2|757|dock2
    42    43     1
SMALL
USER_CHARGES


@<TRIPOS>ATOM
      1 C1          -0.9849 -24.6007  15.0544 C.3            1 <1>                0.0000
      2 C2          -1.2281 -23.8561  13.7401 C.3            1 <1>                0.0000
      3 C3          -1.3585 -24.8661  12.5983 C.3            1 <1>                0.0000
      4 C4          -2.5171 -23.0389  13.8479 C.3            1 <1>                0.0000
      5 O5          -0.1118 -22.9665  13.4741 O.3            1 <1>                0.0000
      6 C6          -0.2549 -22.0918  12.4592 C.2            1 <1>                0.0000
      7 O7          -0.9709 -22.3667  11.5166 O.2            1 <1>                0.0000
      8 C8           0.4569 -20.8016  12.4922 C.2            1 <1>                0.0000
      9 C9           0.8281 -20.1225  13.6186 C.2            1 <1>                0.0000
     10 N10          1.4503 -18.9990  13.2098 N.pl3          1 <1>                0.0000
     11 N11          1.4445 -19.0189  11.8079 N.2            1 <1>                0.0000
     12 N12          0.8563 -20.0966  11.4195 N.2            1 <1>                0.0000
     13 C13          2.0225 -17.9568  14.0658 C.3            1 <1>                0.0000
     14 C14          0.9386 -17.4092  14.9964 C.3            1 <1>                0.0000
     15 C15         -0.1984 -16.8163  14.1617 C.3            1 <1>                0.0000
     16 C16          0.3461 -15.6826  13.2904 C.3            1 <1>                0.0000
     17 C17          1.4300 -16.2303  12.3598 C.3            1 <1>                0.0000
     18 C18          2.5670 -16.8231  13.1944 C.3            1 <1>                0.0000
     19 N19          3.6077 -17.3489  12.3008 N.4            1 <1>                1.0000
     20 H20         -0.0666 -25.1829  14.9776 H              1 <1>                0.0000
     21 H21         -0.8920 -23.8812  15.8678 H              1 <1>                0.0000
     22 H22         -1.8229 -25.2685  15.2540 H              1 <1>                0.0000
     23 H23         -2.1965 -25.5340  12.7979 H              1 <1>                0.0000
     24 H24         -1.5318 -24.3357  11.6619 H              1 <1>                0.0000
     25 H25         -0.4402 -25.4483  12.5215 H              1 <1>                0.0000
     26 H26         -2.4241 -22.3193  14.6613 H              1 <1>                0.0000
     27 H27         -2.6904 -22.5084  12.9116 H              1 <1>                0.0000
     28 H28         -3.3550 -23.7067  14.0476 H              1 <1>                0.0000
     29 H29          0.6553 -20.4271  14.6403 H              1 <1>                0.0000
     30 H30          2.8325 -18.3792  14.6603 H              1 <1>                0.0000
     31 H31          0.5507 -18.2168  15.6172 H              1 <1>                0.0000
     32 H32          1.3643 -16.6338  15.6333 H              1 <1>                0.0000
     33 H33         -0.6241 -17.5917  13.5249 H              1 <1>                0.0000
     34 H34         -0.9707 -16.4262  14.8248 H              1 <1>                0.0000
     35 H35         -0.4640 -15.2603  12.6958 H              1 <1>                0.0000
     36 H36          0.7718 -14.9072  13.9273 H              1 <1>                0.0000
     37 H37          1.0042 -17.0057  11.7228 H              1 <1>                0.0000
     38 H38          1.8179 -15.4227  11.7390 H              1 <1>                0.0000
     39 H39          2.9928 -16.0478  13.8312 H              1 <1>                0.0000
     40 H40          3.9787 -18.2054  12.6839 H              1 <1>                0.0000
     41 H41          3.2096 -17.5316  11.3918 H              1 <1>                0.0000
     42 H42          4.3496 -16.6707  12.2129 H              1 <1>                0.0000
@<TRIPOS>BOND
    1    1    2 1     
    2    1   20 1     
    3    1   21 1     
    4    1   22 1     
    5    2    3 1     
    6    2    4 1     
    7    2    5 1     
    8    3   23 1     
    9    3   24 1     
   10    3   25 1     
   11    4   26 1     
   12    4   27 1     
   13    4   28 1     
   14    5    6 1     
   15    6    7 2     
   16    6    8 1     
   17    8    9 2     
   18    8   12 1     
   19    9   10 1     
   20    9   29 1     
   21   10   11 1     
   22   10   13 1     
   23   11   12 2     
   24   13   14 1     
   25   13   18 1     
   26   13   30 1     
   27   14   15 1     
   28   14   31 1     
   29   14   32 1     
   30   15   16 1     
   31   15   33 1     
   32   15   34 1     
   33   16   17 1     
   34   16   35 1     
   35   16   36 1     
   36   17   18 1     
   37   17   37 1     
   38   17   38 1     
   39   18   19 1     
   40   18   39 1     
   41   19   40 1     
   42   19   41 1     
   43   19   42 1     
@<TRIPOS>SUBSTRUCTURE
      1 ****           1
@<TRIPOS>SET
DONOR_HYDROGENS      STATIC     ATOMS    <user>   **** ""
3 40 41 42
ATOM$RED        STATIC     ATOMS    COLORGROUP SYSTEM
3 40 41 42
@<TRIPOS>COMMENT
> <Gold.Version>
2022.2.0

> <Gold.Id.Protein>
3pbl|protein|mol2

> <Gold.Protein.RotatedTorsions>
[ 1303 1298 1297 1294 ] final -101.59 input  179.99 | X-H torsion
[ 2461 2456 2455 2452 ] final -139.43 input   30.03 | X-H torsion
[ 2515 2510 2509 2506 ] final   67.10 input  -89.99 | X-H torsion
[ 3721 3712 3711 3710 ] final   23.07 input -179.91 | X-H torsion
[ 3841 3832 3831 3830 ] final   -9.85 input -179.91 | X-H torsion
[ 3767 3762 3761 3758 ] final  -57.67 input  -89.99 | X-H torsion
[ 2472 2467 2466 2463 ] final  -87.95 input  -89.97 | X-H torsion

> <Gold.Protein.ActiveResidues>
 VAL82   VAL86   LEU89   PHE106  VAL107  ASP110  VAL111  MET112  CYS114  THR115 
 CYS181  SER182  ILE183  PHE188  VAL189  ILE190  SER192  SER193  SER196  TRP342 
 PHE345  PHE346  HIS349  VAL350  TYR365  THR369  GLY372  TYR373 

> <Gold.Protein.RotatedAtoms>
    3.9800   -8.5418    3.9437 H   0  0  0  0  0  0  0  0  0  0  0  0  # atno 1303 bound_to 1298
    0.8212   -9.2679    8.2324 H   0  0  0  0  0  0  0  0  0  0  0  0  # atno 2461 bound_to 2456
   -4.0161   -5.3349    9.2799 H   0  0  0  0  0  0  0  0  0  0  0  0  # atno 2472 bound_to 2467
    2.1166   -7.5072    5.5515 H   0  0  0  0  0  0  0  0  0  0  0  0  # atno 2515 bound_to 2510
   -2.4731  -18.0332   13.9047 H   0  0  0  0  0  0  0  0  0  0  0  0  # atno 3721 bound_to 3712
   -5.4734  -22.0785   10.7775 H   0  0  0  0  0  0  0  0  0  0  0  0  # atno 3767 bound_to 3762
    1.6610  -20.3717    9.5024 H   0  0  0  0  0  0  0  0  0  0  0  0  # atno 3841 bound_to 3832
    4.8655   -9.4966    4.9289 LP  0  0  0  0  0  0  0  0  0  0  0  0  # atno 4297 bound_to 1298
    3.5168  -10.0832    4.2192 LP  0  0  0  0  0  0  0  0  0  0  0  0  # atno 4298 bound_to 1298
    2.1604   -8.4156    7.8483 LP  0  0  0  0  0  0  0  0  0  0  0  0  # atno 4299 bound_to 2456
    0.7559   -8.1249    7.0676 LP  0  0  0  0  0  0  0  0  0  0  0  0  # atno 4300 bound_to 2456
    2.8078   -8.3864    4.3619 LP  0  0  0  0  0  0  0  0  0  0  0  0  # atno 4301 bound_to 2510
    2.3725   -9.1060    5.7617 LP  0  0  0  0  0  0  0  0  0  0  0  0  # atno 4302 bound_to 2510
   -3.2865  -16.9137   14.7189 LP  0  0  0  0  0  0  0  0  0  0  0  0  # atno 4306 bound_to 3712
   -3.3859  -16.9929   13.0909 LP  0  0  0  0  0  0  0  0  0  0  0  0  # atno 4307 bound_to 3712
    2.2937  -19.6941    8.1922 LP  0  0  0  0  0  0  0  0  0  0  0  0  # atno 4314 bound_to 3832
    3.0169  -20.9788    8.8947 LP  0  0  0  0  0  0  0  0  0  0  0  0  # atno 4315 bound_to 3832
   -4.1167  -22.5045   11.5804 LP  0  0  0  0  0  0  0  0  0  0  0  0  # atno 4318 bound_to 3762
   -4.5375  -23.2919   10.2131 LP  0  0  0  0  0  0  0  0  0  0  0  0  # atno 4319 bound_to 3762
   -5.5043   -5.2572    8.6123 LP  0  0  0  0  0  0  0  0  0  0  0  0  # atno 4320 bound_to 2467
   -4.1965   -4.8015    7.7471 LP  0  0  0  0  0  0  0  0  0  0  0  0  # atno 4321 bound_to 2467

> <Gold.Score>
     Score     S(PLP)   S(hbond)     S(cho)   S(metal)  DE(clash)   DE(tors)     intcor
     49.55     -41.63       3.00       0.00       0.00       0.00       0.80       0.52

> <Gold.PLP.Fitness>
49.5518

> <Gold.PLP.PLP>
-41.6260

> <Gold.PLP.part.hbond>
-2.0000

> <Gold.PLP.part.metal>
0.0000

> <Gold.PLP.part.buried>
-4.9453

> <Gold.PLP.part.nonpolar>
-36.3851

> <Gold.PLP.part.repulsive>
1.7560

> <Gold.PLP.ligand.clash>
0.0000

> <Gold.PLP.ligand.torsion>
0.7963

> <Gold.PLP.Chemscore.Hbond>
3.0000

> <Gold.PLP.Chemscore.CHOScore>
0.0000

> <Gold.PLP.Chemscore.Metal>
0.0000

> <Gold.Chemscore.Hbonds>
donor molecule, donor type, donor heavy atom, donor atom, acceptor molecule, acceptor atom, score
      L1  H    19    41       P1  1227  2.00
      P1  H  3832  3841       L1    12  1.00

> <Gold.PLP.Chemscore.Internal.Correction>
0.5185

