#       Name:                EN300-843819_i001
#       Creating user name   fsindt
#       Creation time:       Mon Feb 27 21:02:18 2023


#       File generated by GOLD software.
#

@<TRIPOS>MOLECULE
EN300-843819_i001|amine_3|mol2|757|dock20
    42    43     1
SMALL
USER_CHARGES


@<TRIPOS>ATOM
      1 C1          -1.3726 -24.3084  12.8959 C.3            1 <1>                0.0000
      2 C2          -1.3538 -24.0789  14.4085 C.3            1 <1>                0.0000
      3 C3          -2.6992 -24.4976  15.0046 C.3            1 <1>                0.0000
      4 C4          -0.2358 -24.9130  15.0371 C.3            1 <1>                0.0000
      5 O5          -1.1202 -22.6720  14.6817 O.3            1 <1>                0.0000
      6 C6          -0.0694 -22.0956  14.0661 C.2            1 <1>                0.0000
      7 O7           0.8635 -22.7775  13.6900 O.2            1 <1>                0.0000
      8 C8          -0.0513 -20.6379  13.8489 C.2            1 <1>                0.0000
      9 C9           0.9993 -19.9164  13.3557 C.2            1 <1>                0.0000
     10 N10          0.6039 -18.6287  13.3151 N.pl3          1 <1>                0.0000
     11 N11         -0.7124 -18.5929  13.7967 N.2            1 <1>                0.0000
     12 N12         -1.0678 -19.7936  14.0968 N.2            1 <1>                0.0000
     13 C13          1.3971 -17.4856  12.8565 C.3            1 <1>                0.0000
     14 C14          1.7313 -16.5857  14.0479 C.3            1 <1>                0.0000
     15 C15          0.4350 -16.0834  14.6870 C.3            1 <1>                0.0000
     16 C16         -0.3669 -15.2871  13.6556 C.3            1 <1>                0.0000
     17 C17         -0.7010 -16.1869  12.4642 C.3            1 <1>                0.0000
     18 C18          0.5952 -16.6892  11.8251 C.3            1 <1>                0.0000
     19 N19          0.2744 -17.5532  10.6811 N.4            1 <1>                1.0000
     20 H20         -2.1691 -23.7141  12.4481 H              1 <1>                0.0000
     21 H21         -0.4141 -24.0101  12.4713 H              1 <1>                0.0000
     22 H22         -1.5479 -25.3645  12.6908 H              1 <1>                0.0000
     23 H23         -2.8747 -25.5537  14.7995 H              1 <1>                0.0000
     24 H24         -2.6859 -24.3341  16.0822 H              1 <1>                0.0000
     25 H25         -3.4958 -23.9033  14.5568 H              1 <1>                0.0000
     26 H26          0.7227 -24.6146  14.6125 H              1 <1>                0.0000
     27 H27         -0.2224 -24.7495  16.1147 H              1 <1>                0.0000
     28 H28         -0.4111 -25.9690  14.8319 H              1 <1>                0.0000
     29 H29          1.9621 -20.3038  13.0564 H              1 <1>                0.0000
     30 H30          2.3205 -17.8434  12.4012 H              1 <1>                0.0000
     31 H31          2.3026 -17.1530  14.7827 H              1 <1>                0.0000
     32 H32          2.3215 -15.7352  13.7067 H              1 <1>                0.0000
     33 H33         -0.1551 -16.9338  15.0282 H              1 <1>                0.0000
     34 H34          0.6731 -15.4423  15.5359 H              1 <1>                0.0000
     35 H35         -1.2903 -14.9292  14.1109 H              1 <1>                0.0000
     36 H36          0.2234 -14.4366  13.3144 H              1 <1>                0.0000
     37 H37         -1.2912 -17.0374  12.8054 H              1 <1>                0.0000
     38 H38         -1.2722 -15.6196  11.7294 H              1 <1>                0.0000
     39 H39          1.1854 -15.8388  11.4838 H              1 <1>                0.0000
     40 H40         -0.0974 -18.4296  11.0153 H              1 <1>                0.0000
     41 H41         -0.4112 -17.0976  10.0975 H              1 <1>                0.0000
     42 H42          1.1114 -17.7256  10.1447 H              1 <1>                0.0000
@<TRIPOS>BOND
    1    1    2 1     
    2    1   20 1     
    3    1   21 1     
    4    1   22 1     
    5    2    3 1     
    6    2    4 1     
    7    2    5 1     
    8    3   23 1     
    9    3   24 1     
   10    3   25 1     
   11    4   26 1     
   12    4   27 1     
   13    4   28 1     
   14    5    6 1     
   15    6    7 2     
   16    6    8 1     
   17    8    9 2     
   18    8   12 1     
   19    9   10 1     
   20    9   29 1     
   21   10   11 1     
   22   10   13 1     
   23   11   12 2     
   24   13   14 1     
   25   13   18 1     
   26   13   30 1     
   27   14   15 1     
   28   14   31 1     
   29   14   32 1     
   30   15   16 1     
   31   15   33 1     
   32   15   34 1     
   33   16   17 1     
   34   16   35 1     
   35   16   36 1     
   36   17   18 1     
   37   17   37 1     
   38   17   38 1     
   39   18   19 1     
   40   18   39 1     
   41   19   40 1     
   42   19   41 1     
   43   19   42 1     
@<TRIPOS>SUBSTRUCTURE
      1 ****           1
@<TRIPOS>SET
DONOR_HYDROGENS      STATIC     ATOMS    <user>   **** ""
3 40 41 42
ATOM$RED        STATIC     ATOMS    COLORGROUP SYSTEM
3 40 41 42
@<TRIPOS>COMMENT
> <Gold.Version>
2022.2.0

> <Gold.Id.Protein>
3pbl|protein|mol2

> <Gold.Protein.RotatedTorsions>
[ 1303 1298 1297 1294 ] final   91.78 input  179.99 | X-H torsion
[ 2461 2456 2455 2452 ] final   13.40 input   30.03 | X-H torsion
[ 2515 2510 2509 2506 ] final  -25.45 input  -89.99 | X-H torsion
[ 3721 3712 3711 3710 ] final   46.80 input -179.91 | X-H torsion
[ 3841 3832 3831 3830 ] final   49.47 input -179.91 | X-H torsion
[ 3767 3762 3761 3758 ] final -144.79 input  -89.99 | X-H torsion
[ 2472 2467 2466 2463 ] final -133.49 input  -89.97 | X-H torsion

> <Gold.Protein.ActiveResidues>
 VAL82   VAL86   LEU89   PHE106  VAL107  ASP110  VAL111  MET112  CYS114  THR115 
 CYS181  SER182  ILE183  PHE188  VAL189  ILE190  SER192  SER193  SER196  TRP342 
 PHE345  PHE346  HIS349  VAL350  TYR365  THR369  GLY372  TYR373 

> <Gold.Protein.RotatedAtoms>
    4.4373  -10.1047    4.8679 H   0  0  0  0  0  0  0  0  0  0  0  0  # atno 1303 bound_to 1298
    1.2534   -7.9342    7.0509 H   0  0  0  0  0  0  0  0  0  0  0  0  # atno 2461 bound_to 2456
   -4.7216   -5.4618    9.4166 H   0  0  0  0  0  0  0  0  0  0  0  0  # atno 2472 bound_to 2467
    2.6974   -7.9549    4.4036 H   0  0  0  0  0  0  0  0  0  0  0  0  # atno 2515 bound_to 2510
   -2.5308  -17.9866   13.5563 H   0  0  0  0  0  0  0  0  0  0  0  0  # atno 3721 bound_to 3712
   -4.5044  -22.1432   11.6414 H   0  0  0  0  0  0  0  0  0  0  0  0  # atno 3767 bound_to 3762
    2.3269  -20.9068    9.5692 H   0  0  0  0  0  0  0  0  0  0  0  0  # atno 3841 bound_to 3832
    3.3344   -9.4601    3.8508 LP  0  0  0  0  0  0  0  0  0  0  0  0  # atno 4297 bound_to 1298
    4.5903   -8.5562    4.3727 LP  0  0  0  0  0  0  0  0  0  0  0  0  # atno 4298 bound_to 1298
    0.4495   -9.0705    7.9053 LP  0  0  0  0  0  0  0  0  0  0  0  0  # atno 4299 bound_to 2456
    2.0348   -8.8033    8.1917 LP  0  0  0  0  0  0  0  0  0  0  0  0  # atno 4300 bound_to 2456
    2.5632   -9.2530    5.3847 LP  0  0  0  0  0  0  0  0  0  0  0  0  # atno 4301 bound_to 2510
    2.0360   -7.7915    5.8874 LP  0  0  0  0  0  0  0  0  0  0  0  0  # atno 4302 bound_to 2510
   -3.0938  -17.2289   14.8551 LP  0  0  0  0  0  0  0  0  0  0  0  0  # atno 4306 bound_to 3712
   -3.5120  -16.7315   13.3570 LP  0  0  0  0  0  0  0  0  0  0  0  0  # atno 4307 bound_to 3712
    1.5296  -19.7835    8.7455 LP  0  0  0  0  0  0  0  0  0  0  0  0  # atno 4314 bound_to 3832
    3.0119  -20.2712    8.2643 LP  0  0  0  0  0  0  0  0  0  0  0  0  # atno 4315 bound_to 3832
   -4.1397  -23.3185   10.5678 LP  0  0  0  0  0  0  0  0  0  0  0  0  # atno 4318 bound_to 3762
   -5.4831  -22.4132   10.3623 LP  0  0  0  0  0  0  0  0  0  0  0  0  # atno 4319 bound_to 3762
   -5.2995   -4.9999    7.9609 LP  0  0  0  0  0  0  0  0  0  0  0  0  # atno 4320 bound_to 2467
   -3.6959   -4.9319    8.2618 LP  0  0  0  0  0  0  0  0  0  0  0  0  # atno 4321 bound_to 2467

> <Gold.Score>
     Score     S(PLP)   S(hbond)     S(cho)   S(metal)  DE(clash)   DE(tors)     intcor
     44.31     -36.97       2.68       0.00       0.00       0.00       0.56       0.42

> <Gold.PLP.Fitness>
44.3105

> <Gold.PLP.PLP>
-36.9665

> <Gold.PLP.part.hbond>
-2.6353

> <Gold.PLP.part.metal>
0.0000

> <Gold.PLP.part.buried>
-2.0813

> <Gold.PLP.part.nonpolar>
-32.8377

> <Gold.PLP.part.repulsive>
0.0376

> <Gold.PLP.ligand.clash>
0.0000

> <Gold.PLP.ligand.torsion>
0.5634

> <Gold.PLP.Chemscore.Hbond>
2.6832

> <Gold.PLP.Chemscore.CHOScore>
0.0000

> <Gold.PLP.Chemscore.Metal>
0.0000

> <Gold.Chemscore.Hbonds>
donor molecule, donor type, donor heavy atom, donor atom, acceptor molecule, acceptor atom, score
      L1  H    19    42       P1  1227  2.00
      P1  H  3712  3721       L1    11  0.68

> <Gold.PLP.Chemscore.Internal.Correction>
0.4211

