#       Name:                EN300-843819_i001
#       Creating user name   fsindt
#       Creation time:       Mon Feb 27 21:02:17 2023


#       File generated by GOLD software.
#

@<TRIPOS>MOLECULE
EN300-843819_i001|amine_3|mol2|757|dock19
    42    43     1
SMALL
USER_CHARGES


@<TRIPOS>ATOM
      1 C1          -3.2884 -23.9004  13.6975 C.3            1 <1>                0.0000
      2 C2          -2.0638 -23.5728  14.5541 C.3            1 <1>                0.0000
      3 C3          -2.3331 -23.9773  16.0048 C.3            1 <1>                0.0000
      4 C4          -0.8515 -24.3430  14.0266 C.3            1 <1>                0.0000
      5 O5          -1.7963 -22.1470  14.4910 O.3            1 <1>                0.0000
      6 C6          -1.3850 -21.6536  13.3065 C.2            1 <1>                0.0000
      7 O7          -1.5254 -22.3097  12.2933 O.2            1 <1>                0.0000
      8 C8          -0.7648 -20.3182  13.2397 C.2            1 <1>                0.0000
      9 C9          -0.6798 -19.4243  14.2699 C.2            1 <1>                0.0000
     10 N10         -0.0435 -18.3368  13.7916 N.pl3          1 <1>                0.0000
     11 N11          0.2527 -18.5986  12.4465 N.2            1 <1>                0.0000
     12 N12         -0.1817 -19.7757  12.1567 N.2            1 <1>                0.0000
     13 C13          0.2768 -17.1153  14.5344 C.3            1 <1>                0.0000
     14 C14         -0.3326 -15.9084  13.8183 C.3            1 <1>                0.0000
     15 C15          0.2425 -15.8107  12.4038 C.3            1 <1>                0.0000
     16 C16          1.7614 -15.6443  12.4812 C.3            1 <1>                0.0000
     17 C17          2.3708 -16.8512  13.1973 C.3            1 <1>                0.0000
     18 C18          1.7957 -16.9489  14.6118 C.3            1 <1>                0.0000
     19 N19          2.3809 -18.1077  15.2993 N.4            1 <1>                1.0000
     20 H20         -4.1520 -23.3517  14.0733 H              1 <1>                0.0000
     21 H21         -3.0965 -23.6122  12.6640 H              1 <1>                0.0000
     22 H22         -3.4891 -24.9707  13.7449 H              1 <1>                0.0000
     23 H23         -2.5339 -25.0477  16.0523 H              1 <1>                0.0000
     24 H24         -1.4607 -23.7439  16.6152 H              1 <1>                0.0000
     25 H25         -3.1967 -23.4287  16.3807 H              1 <1>                0.0000
     26 H26         -0.6596 -24.0547  12.9931 H              1 <1>                0.0000
     27 H27          0.0210 -24.1096  14.6368 H              1 <1>                0.0000
     28 H28         -1.0523 -25.4132  14.0739 H              1 <1>                0.0000
     29 H29         -1.0517 -19.5625  15.2745 H              1 <1>                0.0000
     30 H30         -0.1329 -17.1849  15.5421 H              1 <1>                0.0000
     31 H31         -1.4148 -16.0269  13.7632 H              1 <1>                0.0000
     32 H32         -0.0944 -14.9995  14.3710 H              1 <1>                0.0000
     33 H33          0.0042 -16.7194  11.8513 H              1 <1>                0.0000
     34 H34         -0.1917 -14.9508  11.8937 H              1 <1>                0.0000
     35 H35          2.1711 -15.5747  11.4735 H              1 <1>                0.0000
     36 H36          1.9997 -14.7354  13.0339 H              1 <1>                0.0000
     37 H37          2.1326 -17.7601  12.6447 H              1 <1>                0.0000
     38 H38          3.4529 -16.7327  13.2525 H              1 <1>                0.0000
     39 H39          2.0340 -16.0402  15.1645 H              1 <1>                0.0000
     40 H40          1.8893 -18.9450  15.0251 H              1 <1>                0.0000
     41 H41          3.3545 -18.1915  15.0479 H              1 <1>                0.0000
     42 H42          2.3009 -17.9823  16.2973 H              1 <1>                0.0000
@<TRIPOS>BOND
    1    1    2 1     
    2    1   20 1     
    3    1   21 1     
    4    1   22 1     
    5    2    3 1     
    6    2    4 1     
    7    2    5 1     
    8    3   23 1     
    9    3   24 1     
   10    3   25 1     
   11    4   26 1     
   12    4   27 1     
   13    4   28 1     
   14    5    6 1     
   15    6    7 2     
   16    6    8 1     
   17    8    9 2     
   18    8   12 1     
   19    9   10 1     
   20    9   29 1     
   21   10   11 1     
   22   10   13 1     
   23   11   12 2     
   24   13   14 1     
   25   13   18 1     
   26   13   30 1     
   27   14   15 1     
   28   14   31 1     
   29   14   32 1     
   30   15   16 1     
   31   15   33 1     
   32   15   34 1     
   33   16   17 1     
   34   16   35 1     
   35   16   36 1     
   36   17   18 1     
   37   17   37 1     
   38   17   38 1     
   39   18   19 1     
   40   18   39 1     
   41   19   40 1     
   42   19   41 1     
   43   19   42 1     
@<TRIPOS>SUBSTRUCTURE
      1 ****           1
@<TRIPOS>SET
DONOR_HYDROGENS      STATIC     ATOMS    <user>   **** ""
3 40 41 42
ATOM$RED        STATIC     ATOMS    COLORGROUP SYSTEM
3 40 41 42
@<TRIPOS>COMMENT
> <Gold.Version>
2022.2.0

> <Gold.Id.Protein>
3pbl|protein|mol2

> <Gold.Protein.RotatedTorsions>
[ 1303 1298 1297 1294 ] final -120.04 input  179.99 | X-H torsion
[ 2461 2456 2455 2452 ] final -169.12 input   30.03 | X-H torsion
[ 2515 2510 2509 2506 ] final -162.77 input  -89.99 | X-H torsion
[ 3721 3712 3711 3710 ] final   63.61 input -179.91 | X-H torsion
[ 3841 3832 3831 3830 ] final -173.83 input -179.91 | X-H torsion
[ 3767 3762 3761 3758 ] final   53.85 input  -89.99 | X-H torsion
[ 2472 2467 2466 2463 ] final  -29.09 input  -89.97 | X-H torsion

> <Gold.Protein.ActiveResidues>
 VAL82   VAL86   LEU89   PHE106  VAL107  ASP110  VAL111  MET112  CYS114  THR115 
 CYS181  SER182  ILE183  PHE188  VAL189  ILE190  SER192  SER193  SER196  TRP342 
 PHE345  PHE346  HIS349  VAL350  TYR365  THR369  GLY372  TYR373 

> <Gold.Protein.RotatedAtoms>
    4.2335   -8.4774    4.0949 H   0  0  0  0  0  0  0  0  0  0  0  0  # atno 1303 bound_to 1298
    1.2787   -9.2638    8.3879 H   0  0  0  0  0  0  0  0  0  0  0  0  # atno 2461 bound_to 2456
   -3.6384   -5.0115    8.4980 H   0  0  0  0  0  0  0  0  0  0  0  0  # atno 2472 bound_to 2467
    2.4437   -9.1828    5.6324 H   0  0  0  0  0  0  0  0  0  0  0  0  # atno 2515 bound_to 2510
   -2.6109  -17.8802   13.3410 H   0  0  0  0  0  0  0  0  0  0  0  0  # atno 3721 bound_to 3712
   -4.6545  -23.2480   10.1513 H   0  0  0  0  0  0  0  0  0  0  0  0  # atno 3767 bound_to 3762
    2.9011  -19.9811    8.3849 H   0  0  0  0  0  0  0  0  0  0  0  0  # atno 3841 bound_to 3832
    4.7425   -9.7719    4.9502 LP  0  0  0  0  0  0  0  0  0  0  0  0  # atno 4297 bound_to 1298
    3.3861   -9.8723    4.0466 LP  0  0  0  0  0  0  0  0  0  0  0  0  # atno 4298 bound_to 1298
    2.0217   -8.1134    7.4980 LP  0  0  0  0  0  0  0  0  0  0  0  0  # atno 4299 bound_to 2456
    0.4374   -8.4313    7.2625 LP  0  0  0  0  0  0  0  0  0  0  0  0  # atno 4300 bound_to 2456
    2.0770   -7.5928    5.6886 LP  0  0  0  0  0  0  0  0  0  0  0  0  # atno 4301 bound_to 2510
    2.7759   -8.2231    4.3541 LP  0  0  0  0  0  0  0  0  0  0  0  0  # atno 4302 bound_to 2510
   -2.9547  -17.4718   14.8552 LP  0  0  0  0  0  0  0  0  0  0  0  0  # atno 4306 bound_to 3712
   -3.5587  -16.6115   13.6055 LP  0  0  0  0  0  0  0  0  0  0  0  0  # atno 4307 bound_to 3712
    2.4652  -21.1525    9.3918 LP  0  0  0  0  0  0  0  0  0  0  0  0  # atno 4314 bound_to 3832
    1.4129  -19.9716    8.9860 LP  0  0  0  0  0  0  0  0  0  0  0  0  # atno 4315 bound_to 3832
   -5.4295  -22.0180   10.8952 LP  0  0  0  0  0  0  0  0  0  0  0  0  # atno 4318 bound_to 3762
   -4.0434  -22.6092   11.5243 LP  0  0  0  0  0  0  0  0  0  0  0  0  # atno 4319 bound_to 3762
   -4.9650   -5.4594    9.3381 LP  0  0  0  0  0  0  0  0  0  0  0  0  # atno 4320 bound_to 2467
   -5.1133   -4.9225    7.8030 LP  0  0  0  0  0  0  0  0  0  0  0  0  # atno 4321 bound_to 2467

> <Gold.Score>
     Score     S(PLP)   S(hbond)     S(cho)   S(metal)  DE(clash)   DE(tors)     intcor
     44.62     -41.82       0.99       0.00       0.00       0.00       0.30       0.42

> <Gold.PLP.Fitness>
44.6175

> <Gold.PLP.PLP>
-41.8162

> <Gold.PLP.part.hbond>
-1.0000

> <Gold.PLP.part.metal>
0.0000

> <Gold.PLP.part.buried>
-5.4040

> <Gold.PLP.part.nonpolar>
-35.6847

> <Gold.PLP.part.repulsive>
0.1794

> <Gold.PLP.ligand.clash>
0.0000

> <Gold.PLP.ligand.torsion>
0.2979

> <Gold.PLP.Chemscore.Hbond>
0.9920

> <Gold.PLP.Chemscore.CHOScore>
0.0000

> <Gold.PLP.Chemscore.Metal>
0.0000

> <Gold.Chemscore.Hbonds>
donor molecule, donor type, donor heavy atom, donor atom, acceptor molecule, acceptor atom, score
      L1  H    19    42       P1  2287  0.99

> <Gold.PLP.Chemscore.Internal.Correction>
0.4211

