#       Name:                EN300-843819_i001
#       Creating user name   fsindt
#       Creation time:       Mon Feb 27 21:02:13 2023


#       File generated by GOLD software.
#

@<TRIPOS>MOLECULE
EN300-843819_i001|amine_3|mol2|757|dock16
    42    43     1
SMALL
USER_CHARGES


@<TRIPOS>ATOM
      1 C1          -0.9328 -24.1439  14.6023 C.3            1 <1>                0.0000
      2 C2          -1.8877 -23.6765  13.5019 C.3            1 <1>                0.0000
      3 C3          -1.7738 -24.6120  12.2967 C.3            1 <1>                0.0000
      4 C4          -3.3236 -23.6975  14.0299 C.3            1 <1>                0.0000
      5 O5          -1.5392 -22.3254  13.1005 O.3            1 <1>                0.0000
      6 C6          -1.4376 -21.4037  14.0782 C.2            1 <1>                0.0000
      7 O7          -1.8963 -21.6334  15.1798 O.2            1 <1>                0.0000
      8 C8          -0.7703 -20.1169  13.8114 C.2            1 <1>                0.0000
      9 C9          -0.5456 -19.1282  14.7278 C.2            1 <1>                0.0000
     10 N10          0.0864 -18.1305  14.0786 N.pl3          1 <1>                0.0000
     11 N11          0.2367 -18.5436  12.7472 N.2            1 <1>                0.0000
     12 N12         -0.2743 -19.7194  12.6268 N.2            1 <1>                0.0000
     13 C13          0.5307 -16.8583  14.6534 C.3            1 <1>                0.0000
     14 C14         -0.0780 -15.7001  13.8604 C.3            1 <1>                0.0000
     15 C15          0.3756 -15.7867  12.4017 C.3            1 <1>                0.0000
     16 C16          1.9020 -15.7029  12.3365 C.3            1 <1>                0.0000
     17 C17          2.5106 -16.8611  13.1295 C.3            1 <1>                0.0000
     18 C18          2.0570 -16.7744  14.5882 C.3            1 <1>                0.0000
     19 N19          2.6415 -17.8865  15.3496 N.4            1 <1>                1.0000
     20 H20          0.0901 -24.1291  14.2262 H              1 <1>                0.0000
     21 H21         -1.0140 -23.4775  15.4610 H              1 <1>                0.0000
     22 H22         -1.1945 -25.1582  14.9037 H              1 <1>                0.0000
     23 H23         -2.0354 -25.6264  12.5980 H              1 <1>                0.0000
     24 H24         -2.4541 -24.2791  11.5127 H              1 <1>                0.0000
     25 H25         -0.7509 -24.5971  11.9205 H              1 <1>                0.0000
     26 H26         -3.4047 -23.0310  14.8885 H              1 <1>                0.0000
     27 H27         -4.0038 -23.3645  13.2460 H              1 <1>                0.0000
     28 H28         -3.5851 -24.7117  14.3313 H              1 <1>                0.0000
     29 H29         -0.8220 -19.1433  15.7718 H              1 <1>                0.0000
     30 H30          0.2076 -16.7966  15.6926 H              1 <1>                0.0000
     31 H31         -1.1654 -15.7598  13.9069 H              1 <1>                0.0000
     32 H32          0.2525 -14.7535  14.2881 H              1 <1>                0.0000
     33 H33          0.0451 -16.7332  11.9741 H              1 <1>                0.0000
     34 H34         -0.0581 -14.9615  11.8367 H              1 <1>                0.0000
     35 H35          2.2251 -15.7646  11.2973 H              1 <1>                0.0000
     36 H36          2.2325 -14.7563  12.7642 H              1 <1>                0.0000
     37 H37          2.1801 -17.8076  12.7018 H              1 <1>                0.0000
     38 H38          3.5980 -16.8013  13.0830 H              1 <1>                0.0000
     39 H39          2.3876 -15.8280  15.0159 H              1 <1>                0.0000
     40 H40          2.4385 -18.7574  14.8824 H              1 <1>                0.0000
     41 H41          3.6410 -17.7629  15.4115 H              1 <1>                0.0000
     42 H42          2.2465 -17.9028  16.2779 H              1 <1>                0.0000
@<TRIPOS>BOND
    1    1    2 1     
    2    1   20 1     
    3    1   21 1     
    4    1   22 1     
    5    2    3 1     
    6    2    4 1     
    7    2    5 1     
    8    3   23 1     
    9    3   24 1     
   10    3   25 1     
   11    4   26 1     
   12    4   27 1     
   13    4   28 1     
   14    5    6 1     
   15    6    7 2     
   16    6    8 1     
   17    8    9 2     
   18    8   12 1     
   19    9   10 1     
   20    9   29 1     
   21   10   11 1     
   22   10   13 1     
   23   11   12 2     
   24   13   14 1     
   25   13   18 1     
   26   13   30 1     
   27   14   15 1     
   28   14   31 1     
   29   14   32 1     
   30   15   16 1     
   31   15   33 1     
   32   15   34 1     
   33   16   17 1     
   34   16   35 1     
   35   16   36 1     
   36   17   18 1     
   37   17   37 1     
   38   17   38 1     
   39   18   19 1     
   40   18   39 1     
   41   19   40 1     
   42   19   41 1     
   43   19   42 1     
@<TRIPOS>SUBSTRUCTURE
      1 ****           1
@<TRIPOS>SET
DONOR_HYDROGENS      STATIC     ATOMS    <user>   **** ""
3 40 41 42
ATOM$RED        STATIC     ATOMS    COLORGROUP SYSTEM
3 40 41 42
@<TRIPOS>COMMENT
> <Gold.Version>
2022.2.0

> <Gold.Id.Protein>
3pbl|protein|mol2

> <Gold.Protein.RotatedTorsions>
[ 1303 1298 1297 1294 ] final  138.54 input  179.99 | X-H torsion
[ 2461 2456 2455 2452 ] final  -14.89 input   30.03 | X-H torsion
[ 2515 2510 2509 2506 ] final    1.22 input  -89.99 | X-H torsion
[ 3721 3712 3711 3710 ] final   36.07 input -179.91 | X-H torsion
[ 3841 3832 3831 3830 ] final -167.08 input -179.91 | X-H torsion
[ 3767 3762 3761 3758 ] final  163.11 input  -89.99 | X-H torsion
[ 2472 2467 2466 2463 ] final -146.63 input  -89.97 | X-H torsion

> <Gold.Protein.ActiveResidues>
 VAL82   VAL86   LEU89   PHE106  VAL107  ASP110  VAL111  MET112  CYS114  THR115 
 CYS181  SER182  ILE183  PHE188  VAL189  ILE190  SER192  SER193  SER196  TRP342 
 PHE345  PHE346  HIS349  VAL350  TYR365  THR369  GLY372  TYR373 

> <Gold.Protein.RotatedAtoms>
    4.8656   -9.4944    4.9287 H   0  0  0  0  0  0  0  0  0  0  0  0  # atno 1303 bound_to 1298
    0.8185   -8.0873    7.0520 H   0  0  0  0  0  0  0  0  0  0  0  0  # atno 2461 bound_to 2456
   -4.9281   -5.4620    9.3543 H   0  0  0  0  0  0  0  0  0  0  0  0  # atno 2472 bound_to 2467
    2.5326   -7.6165    4.6212 H   0  0  0  0  0  0  0  0  0  0  0  0  # atno 2515 bound_to 2510
   -2.4960  -18.0234   13.7102 H   0  0  0  0  0  0  0  0  0  0  0  0  # atno 3721 bound_to 3712
   -3.9711  -22.7414   11.4324 H   0  0  0  0  0  0  0  0  0  0  0  0  # atno 3767 bound_to 3762
    2.8317  -19.9095    8.3637 H   0  0  0  0  0  0  0  0  0  0  0  0  # atno 3841 bound_to 3832
    3.5178  -10.0843    4.2204 LP  0  0  0  0  0  0  0  0  0  0  0  0  # atno 4297 bound_to 1298
    3.9784   -8.5426    3.9422 LP  0  0  0  0  0  0  0  0  0  0  0  0  # atno 4298 bound_to 1298
    0.7586   -9.2524    8.1949 LP  0  0  0  0  0  0  0  0  0  0  0  0  # atno 4299 bound_to 2456
    2.1606   -8.4684    7.9011 LP  0  0  0  0  0  0  0  0  0  0  0  0  # atno 4300 bound_to 2456
    2.7207   -9.1974    4.9831 LP  0  0  0  0  0  0  0  0  0  0  0  0  # atno 4301 bound_to 2510
    2.0434   -8.1856    6.0712 LP  0  0  0  0  0  0  0  0  0  0  0  0  # atno 4302 bound_to 2510
   -3.1831  -17.0796   14.8125 LP  0  0  0  0  0  0  0  0  0  0  0  0  # atno 4306 bound_to 3712
   -3.4629  -16.8383   13.2219 LP  0  0  0  0  0  0  0  0  0  0  0  0  # atno 4307 bound_to 3712
    2.5631  -21.1579    9.3361 LP  0  0  0  0  0  0  0  0  0  0  0  0  # atno 4314 bound_to 3832
    1.3953  -20.0489    9.0662 LP  0  0  0  0  0  0  0  0  0  0  0  0  # atno 4315 bound_to 3832
   -4.8050  -23.1738   10.0965 LP  0  0  0  0  0  0  0  0  0  0  0  0  # atno 4318 bound_to 3762
   -5.3510  -21.9598   11.0424 LP  0  0  0  0  0  0  0  0  0  0  0  0  # atno 4319 bound_to 3762
   -5.1458   -4.9339    7.8246 LP  0  0  0  0  0  0  0  0  0  0  0  0  # atno 4320 bound_to 2467
   -3.6430   -4.9977    8.4603 LP  0  0  0  0  0  0  0  0  0  0  0  0  # atno 4321 bound_to 2467

> <Gold.Score>
     Score     S(PLP)   S(hbond)     S(cho)   S(metal)  DE(clash)   DE(tors)     intcor
     44.72     -42.75       0.70       0.00       0.00       0.00       0.28       0.42

> <Gold.PLP.Fitness>
44.7242

> <Gold.PLP.PLP>
-42.7499

> <Gold.PLP.part.hbond>
-1.0000

> <Gold.PLP.part.metal>
0.0000

> <Gold.PLP.part.buried>
-2.5301

> <Gold.PLP.part.nonpolar>
-40.7896

> <Gold.PLP.part.repulsive>
0.1644

> <Gold.PLP.ligand.clash>
0.0000

> <Gold.PLP.ligand.torsion>
0.2764

> <Gold.PLP.Chemscore.Hbond>
0.7020

> <Gold.PLP.Chemscore.CHOScore>
0.0000

> <Gold.PLP.Chemscore.Metal>
0.0000

> <Gold.Chemscore.Hbonds>
donor molecule, donor type, donor heavy atom, donor atom, acceptor molecule, acceptor atom, score
      L1  H    19    42       P1  2287  0.70

> <Gold.PLP.Chemscore.Internal.Correction>
0.4211

