#       Name:                EN300-843819_i001
#       Creating user name   fsindt
#       Creation time:       Mon Feb 27 21:02:11 2023


#       File generated by GOLD software.
#

@<TRIPOS>MOLECULE
EN300-843819_i001|amine_3|mol2|757|dock15
    42    43     1
SMALL
USER_CHARGES


@<TRIPOS>ATOM
      1 C1           1.4017 -19.8493  13.9315 C.3            1 <1>                0.0000
      2 C2           1.0129 -18.4486  14.4089 C.3            1 <1>                0.0000
      3 C3           0.0390 -18.5621  15.5834 C.3            1 <1>                0.0000
      4 C4           2.2673 -17.6962  14.8574 C.3            1 <1>                0.0000
      5 O5           0.3776 -17.7257  13.3215 O.3            1 <1>                0.0000
      6 C6           0.2121 -16.3984  13.4838 C.2            1 <1>                0.0000
      7 O7           0.0569 -15.9370  14.5972 O.2            1 <1>                0.0000
      8 C8           0.2193 -15.5060  12.3107 C.2            1 <1>                0.0000
      9 C9           1.1602 -15.4967  11.3196 C.2            1 <1>                0.0000
     10 N10          0.7962 -14.5382  10.4448 N.pl3          1 <1>                0.0000
     11 N11         -0.3884 -13.9703  10.9346 N.2            1 <1>                0.0000
     12 N12         -0.7018 -14.5674  12.0316 N.2            1 <1>                0.0000
     13 C13          1.5029 -14.1617   9.2180 C.3            1 <1>                0.0000
     14 C14          1.7004 -12.6448   9.1882 C.3            1 <1>                0.0000
     15 C15          0.3366 -11.9521   9.2243 C.3            1 <1>                0.0000
     16 C16         -0.4866 -12.3831   8.0088 C.3            1 <1>                0.0000
     17 C17         -0.6841 -13.9000   8.0385 C.3            1 <1>                0.0000
     18 C18          0.6796 -14.5927   8.0024 C.3            1 <1>                0.0000
     19 N19          0.4899 -16.0491   8.0309 N.4            1 <1>                1.0000
     20 H20          0.5080 -20.3854  13.6120 H              1 <1>                0.0000
     21 H21          2.0955 -19.7684  13.0948 H              1 <1>                0.0000
     22 H22          1.8785 -20.3919  14.7478 H              1 <1>                0.0000
     23 H23          0.5158 -19.1048  16.3996 H              1 <1>                0.0000
     24 H24         -0.2380 -17.5642  15.9235 H              1 <1>                0.0000
     25 H25         -0.8547 -19.0981  15.2639 H              1 <1>                0.0000
     26 H26          2.9611 -17.6153  14.0206 H              1 <1>                0.0000
     27 H27          1.9904 -16.6983  15.1974 H              1 <1>                0.0000
     28 H28          2.7441 -18.2389  15.6735 H              1 <1>                0.0000
     29 H29          2.0291 -16.1345  11.2509 H              1 <1>                0.0000
     30 H30          2.4744 -14.6552   9.1922 H              1 <1>                0.0000
     31 H31          2.2869 -12.3378  10.0542 H              1 <1>                0.0000
     32 H32          2.2262 -12.3647   8.2754 H              1 <1>                0.0000
     33 H33         -0.1891 -12.2323  10.1371 H              1 <1>                0.0000
     34 H34          0.4774 -10.8714   9.2032 H              1 <1>                0.0000
     35 H35         -1.4581 -11.8896   8.0345 H              1 <1>                0.0000
     36 H36          0.0392 -12.1029   7.0960 H              1 <1>                0.0000
     37 H37         -1.2100 -14.1802   8.9513 H              1 <1>                0.0000
     38 H38         -1.2706 -14.2070   7.1726 H              1 <1>                0.0000
     39 H39          1.2054 -14.3126   7.0897 H              1 <1>                0.0000
     40 H40          1.3187 -16.4891   8.4017 H              1 <1>                0.0000
     41 H41         -0.3007 -16.2739   8.6161 H              1 <1>                0.0000
     42 H42          0.3214 -16.3847   7.0944 H              1 <1>                0.0000
@<TRIPOS>BOND
    1    1    2 1     
    2    1   20 1     
    3    1   21 1     
    4    1   22 1     
    5    2    3 1     
    6    2    4 1     
    7    2    5 1     
    8    3   23 1     
    9    3   24 1     
   10    3   25 1     
   11    4   26 1     
   12    4   27 1     
   13    4   28 1     
   14    5    6 1     
   15    6    7 2     
   16    6    8 1     
   17    8    9 2     
   18    8   12 1     
   19    9   10 1     
   20    9   29 1     
   21   10   11 1     
   22   10   13 1     
   23   11   12 2     
   24   13   14 1     
   25   13   18 1     
   26   13   30 1     
   27   14   15 1     
   28   14   31 1     
   29   14   32 1     
   30   15   16 1     
   31   15   33 1     
   32   15   34 1     
   33   16   17 1     
   34   16   35 1     
   35   16   36 1     
   36   17   18 1     
   37   17   37 1     
   38   17   38 1     
   39   18   19 1     
   40   18   39 1     
   41   19   40 1     
   42   19   41 1     
   43   19   42 1     
@<TRIPOS>SUBSTRUCTURE
      1 ****           1
@<TRIPOS>SET
DONOR_HYDROGENS      STATIC     ATOMS    <user>   **** ""
3 40 41 42
ATOM$RED        STATIC     ATOMS    COLORGROUP SYSTEM
3 40 41 42
@<TRIPOS>COMMENT
> <Gold.Version>
2022.2.0

> <Gold.Id.Protein>
3pbl|protein|mol2

> <Gold.Protein.RotatedTorsions>
[ 1303 1298 1297 1294 ] final  102.29 input  179.99 | X-H torsion
[ 2461 2456 2455 2452 ] final  -95.76 input   30.03 | X-H torsion
[ 2515 2510 2509 2506 ] final -113.60 input  -89.99 | X-H torsion
[ 3721 3712 3711 3710 ] final  -11.74 input -179.91 | X-H torsion
[ 3841 3832 3831 3830 ] final   74.22 input -179.91 | X-H torsion
[ 3767 3762 3761 3758 ] final   52.48 input  -89.99 | X-H torsion
[ 2472 2467 2466 2463 ] final   52.77 input  -89.97 | X-H torsion

> <Gold.Protein.ActiveResidues>
 VAL82   VAL86   LEU89   PHE106  VAL107  ASP110  VAL111  MET112  CYS114  THR115 
 CYS181  SER182  ILE183  PHE188  VAL189  ILE190  SER192  SER193  SER196  TRP342 
 PHE345  PHE346  HIS349  VAL350  TYR365  THR369  GLY372  TYR373 

> <Gold.Protein.RotatedAtoms>
    4.5643   -9.9972    4.9144 H   0  0  0  0  0  0  0  0  0  0  0  0  # atno 1303 bound_to 1298
    0.3786   -8.9679    7.7781 H   0  0  0  0  0  0  0  0  0  0  0  0  # atno 2461 bound_to 2456
   -4.5247   -4.8078    7.6621 H   0  0  0  0  0  0  0  0  0  0  0  0  # atno 2472 bound_to 2467
    2.7450   -9.1638    4.9086 H   0  0  0  0  0  0  0  0  0  0  0  0  # atno 2515 bound_to 2510
   -2.5202  -17.8748   14.3959 H   0  0  0  0  0  0  0  0  0  0  0  0  # atno 3721 bound_to 3712
   -4.6736  -23.2397   10.1428 H   0  0  0  0  0  0  0  0  0  0  0  0  # atno 3767 bound_to 3762
    2.6576  -20.9564    9.4088 H   0  0  0  0  0  0  0  0  0  0  0  0  # atno 3841 bound_to 3832
    3.3316   -9.6219    3.9115 LP  0  0  0  0  0  0  0  0  0  0  0  0  # atno 4297 bound_to 1298
    4.4662   -8.5020    4.2654 LP  0  0  0  0  0  0  0  0  0  0  0  0  # atno 4298 bound_to 1298
    1.9335   -8.9230    8.2760 LP  0  0  0  0  0  0  0  0  0  0  0  0  # atno 4299 bound_to 2456
    1.4254   -7.9174    7.0940 LP  0  0  0  0  0  0  0  0  0  0  0  0  # atno 4300 bound_to 2456
    2.0548   -8.2685    6.0867 LP  0  0  0  0  0  0  0  0  0  0  0  0  # atno 4301 bound_to 2510
    2.4968   -7.5664    4.6802 LP  0  0  0  0  0  0  0  0  0  0  0  0  # atno 4302 bound_to 2510
   -3.5003  -16.6081   14.2842 LP  0  0  0  0  0  0  0  0  0  0  0  0  # atno 4306 bound_to 3712
   -3.1178  -17.4815   12.9585 LP  0  0  0  0  0  0  0  0  0  0  0  0  # atno 4307 bound_to 3712
    1.3985  -20.0293    9.0467 LP  0  0  0  0  0  0  0  0  0  0  0  0  # atno 4314 bound_to 3832
    2.7608  -19.9682    8.1484 LP  0  0  0  0  0  0  0  0  0  0  0  0  # atno 4315 bound_to 3832
   -5.4208  -22.0094   10.9141 LP  0  0  0  0  0  0  0  0  0  0  0  0  # atno 4318 bound_to 3762
   -4.0329  -22.6262   11.5139 LP  0  0  0  0  0  0  0  0  0  0  0  0  # atno 4319 bound_to 3762
   -3.7850   -5.2279    9.0558 LP  0  0  0  0  0  0  0  0  0  0  0  0  # atno 4320 bound_to 2467
   -5.4072   -5.3578    8.9211 LP  0  0  0  0  0  0  0  0  0  0  0  0  # atno 4321 bound_to 2467

> <Gold.Score>
     Score     S(PLP)   S(hbond)     S(cho)   S(metal)  DE(clash)   DE(tors)     intcor
     49.65     -40.57       3.00       1.00       0.00       0.26       1.54       0.42

> <Gold.PLP.Fitness>
49.6507

> <Gold.PLP.PLP>
-40.5738

> <Gold.PLP.part.hbond>
-2.0000

> <Gold.PLP.part.metal>
0.0000

> <Gold.PLP.part.buried>
-4.3664

> <Gold.PLP.part.nonpolar>
-34.6071

> <Gold.PLP.part.repulsive>
0.2041

> <Gold.PLP.ligand.clash>
0.2582

> <Gold.PLP.ligand.torsion>
1.5430

> <Gold.PLP.Chemscore.Hbond>
3.0000

> <Gold.PLP.Chemscore.CHOScore>
1.0000

> <Gold.PLP.Chemscore.Metal>
0.0000

> <Gold.Chemscore.Hbonds>
donor molecule, donor type, donor heavy atom, donor atom, acceptor molecule, acceptor atom, score
      L1  H    19    40       P1  1227  2.00
      P1  H  2305  2313       L1     7  1.00
      L1  C     9    29       P1  1227  1.00

> <Gold.PLP.Chemscore.Internal.Correction>
0.4211

