#       Name:                EN300-843819_i001
#       Creating user name   fsindt
#       Creation time:       Mon Feb 27 21:02:08 2023


#       File generated by GOLD software.
#

@<TRIPOS>MOLECULE
EN300-843819_i001|amine_3|mol2|757|dock12
    42    43     1
SMALL
USER_CHARGES


@<TRIPOS>ATOM
      1 C1          -1.9337 -24.1336  12.3084 C.3            1 <1>                0.0000
      2 C2          -1.1559 -23.5348  13.4820 C.3            1 <1>                0.0000
      3 C3          -2.1196 -22.7822  14.4017 C.3            1 <1>                0.0000
      4 C4          -0.4734 -24.6568  14.2670 C.3            1 <1>                0.0000
      5 O5          -0.1509 -22.6159  12.9781 O.3            1 <1>                0.0000
      6 C6           0.4902 -21.8530  13.8851 C.2            1 <1>                0.0000
      7 O7           0.6598 -22.2660  15.0153 O.2            1 <1>                0.0000
      8 C8           0.9857 -20.5176  13.5064 C.2            1 <1>                0.0000
      9 C9           1.1929 -19.4705  14.3599 C.2            1 <1>                0.0000
     10 N10          1.6465 -18.4433  13.6146 N.pl3          1 <1>                0.0000
     11 N11          1.7072 -18.8985  12.2899 N.2            1 <1>                0.0000
     12 N12          1.3160 -20.1250  12.2637 N.2            1 <1>                0.0000
     13 C13          2.0065 -17.1073  14.0961 C.3            1 <1>                0.0000
     14 C14          0.8469 -16.5286  14.9093 C.3            1 <1>                0.0000
     15 C15         -0.3985 -16.4338  14.0256 C.3            1 <1>                0.0000
     16 C16         -0.1083 -15.5224  12.8315 C.3            1 <1>                0.0000
     17 C17          1.0512 -16.1010  12.0182 C.3            1 <1>                0.0000
     18 C18          2.2966 -16.1958  12.9019 C.3            1 <1>                0.0000
     19 N19          3.4100 -16.7514  12.1210 N.4            1 <1>                1.0000
     20 H20         -2.4200 -23.3342  11.7492 H              1 <1>                0.0000
     21 H21         -1.2472 -24.6698  11.6533 H              1 <1>                0.0000
     22 H22         -2.6882 -24.8234  12.6868 H              1 <1>                0.0000
     23 H23         -2.8741 -23.4720  14.7800 H              1 <1>                0.0000
     24 H24         -1.5655 -22.3556  15.2378 H              1 <1>                0.0000
     25 H25         -2.6058 -21.9829  13.8425 H              1 <1>                0.0000
     26 H26          0.2133 -25.1929  13.6119 H              1 <1>                0.0000
     27 H27          0.0808 -24.2303  15.1031 H              1 <1>                0.0000
     28 H28         -1.2278 -25.3466  14.6452 H              1 <1>                0.0000
     29 H29          1.0248 -19.4668  15.4268 H              1 <1>                0.0000
     30 H30          2.8937 -17.1748  14.7256 H              1 <1>                0.0000
     31 H31          0.6402 -17.1779  15.7601 H              1 <1>                0.0000
     32 H32          1.1148 -15.5346  15.2676 H              1 <1>                0.0000
     33 H33         -0.6663 -17.4277  13.6675 H              1 <1>                0.0000
     34 H34         -1.2246 -16.0216  14.6051 H              1 <1>                0.0000
     35 H35         -0.9956 -15.4549  12.2020 H              1 <1>                0.0000
     36 H36          0.1595 -14.5283  13.1897 H              1 <1>                0.0000
     37 H37          0.7834 -17.0950  11.6600 H              1 <1>                0.0000
     38 H38          1.2579 -15.4517  11.1675 H              1 <1>                0.0000
     39 H39          2.5646 -15.2019  13.2601 H              1 <1>                0.0000
     40 H40          3.5986 -17.6939  12.4277 H              1 <1>                0.0000
     41 H41          3.1636 -16.7589  11.1425 H              1 <1>                0.0000
     42 H42          4.2324 -16.1827  12.2564 H              1 <1>                0.0000
@<TRIPOS>BOND
    1    1    2 1     
    2    1   20 1     
    3    1   21 1     
    4    1   22 1     
    5    2    3 1     
    6    2    4 1     
    7    2    5 1     
    8    3   23 1     
    9    3   24 1     
   10    3   25 1     
   11    4   26 1     
   12    4   27 1     
   13    4   28 1     
   14    5    6 1     
   15    6    7 2     
   16    6    8 1     
   17    8    9 2     
   18    8   12 1     
   19    9   10 1     
   20    9   29 1     
   21   10   11 1     
   22   10   13 1     
   23   11   12 2     
   24   13   14 1     
   25   13   18 1     
   26   13   30 1     
   27   14   15 1     
   28   14   31 1     
   29   14   32 1     
   30   15   16 1     
   31   15   33 1     
   32   15   34 1     
   33   16   17 1     
   34   16   35 1     
   35   16   36 1     
   36   17   18 1     
   37   17   37 1     
   38   17   38 1     
   39   18   19 1     
   40   18   39 1     
   41   19   40 1     
   42   19   41 1     
   43   19   42 1     
@<TRIPOS>SUBSTRUCTURE
      1 ****           1
@<TRIPOS>SET
DONOR_HYDROGENS      STATIC     ATOMS    <user>   **** ""
3 40 41 42
ATOM$RED        STATIC     ATOMS    COLORGROUP SYSTEM
3 40 41 42
@<TRIPOS>COMMENT
> <Gold.Version>
2022.2.0

> <Gold.Id.Protein>
3pbl|protein|mol2

> <Gold.Protein.RotatedTorsions>
[ 1303 1298 1297 1294 ] final   21.03 input  179.99 | X-H torsion
[ 2461 2456 2455 2452 ] final -170.91 input   30.03 | X-H torsion
[ 2515 2510 2509 2506 ] final  -61.48 input  -89.99 | X-H torsion
[ 3721 3712 3711 3710 ] final  141.01 input -179.91 | X-H torsion
[ 3841 3832 3831 3830 ] final  -50.85 input -179.91 | X-H torsion
[ 3767 3762 3761 3758 ] final  -41.10 input  -89.99 | X-H torsion
[ 2472 2467 2466 2463 ] final  -50.72 input  -89.97 | X-H torsion

> <Gold.Protein.ActiveResidues>
 VAL82   VAL86   LEU89   PHE106  VAL107  ASP110  VAL111  MET112  CYS114  THR115 
 CYS181  SER182  ILE183  PHE188  VAL189  ILE190  SER192  SER193  SER196  TRP342 
 PHE345  PHE346  HIS349  VAL350  TYR365  THR369  GLY372  TYR373 

> <Gold.Protein.RotatedAtoms>
    3.5407  -10.1073    4.2459 H   0  0  0  0  0  0  0  0  0  0  0  0  # atno 1303 bound_to 1298
    1.3073   -9.2577    8.3918 H   0  0  0  0  0  0  0  0  0  0  0  0  # atno 2461 bound_to 2456
   -3.6726   -5.1342    8.8281 H   0  0  0  0  0  0  0  0  0  0  0  0  # atno 2472 bound_to 2467
    2.8257   -8.5233    4.3901 H   0  0  0  0  0  0  0  0  0  0  0  0  # atno 2515 bound_to 2510
   -3.1530  -16.9674   13.1268 H   0  0  0  0  0  0  0  0  0  0  0  0  # atno 3721 bound_to 3712
   -5.5110  -22.2308   10.5557 H   0  0  0  0  0  0  0  0  0  0  0  0  # atno 3767 bound_to 3762
    1.5779  -19.8997    9.1313 H   0  0  0  0  0  0  0  0  0  0  0  0  # atno 3841 bound_to 3832
    3.9447   -8.5581    3.9248 LP  0  0  0  0  0  0  0  0  0  0  0  0  # atno 4297 bound_to 1298
    4.8770   -9.4556    4.9209 LP  0  0  0  0  0  0  0  0  0  0  0  0  # atno 4298 bound_to 1298
    2.0062   -8.0986    7.4778 LP  0  0  0  0  0  0  0  0  0  0  0  0  # atno 4299 bound_to 2456
    0.4244   -8.4521    7.2788 LP  0  0  0  0  0  0  0  0  0  0  0  0  # atno 4300 bound_to 2456
    2.3135   -9.0215    5.8582 LP  0  0  0  0  0  0  0  0  0  0  0  0  # atno 4301 bound_to 2510
    2.1573   -7.4542    5.4274 LP  0  0  0  0  0  0  0  0  0  0  0  0  # atno 4302 bound_to 2510
   -2.6079  -18.2127   13.9812 LP  0  0  0  0  0  0  0  0  0  0  0  0  # atno 4306 bound_to 3712
   -3.2797  -16.9245   14.7268 LP  0  0  0  0  0  0  0  0  0  0  0  0  # atno 4307 bound_to 3712
    2.8550  -20.0603    8.1726 LP  0  0  0  0  0  0  0  0  0  0  0  0  # atno 4314 bound_to 3832
    2.5517  -21.1578    9.3431 LP  0  0  0  0  0  0  0  0  0  0  0  0  # atno 4315 bound_to 3832
   -4.2954  -22.3098   11.6434 LP  0  0  0  0  0  0  0  0  0  0  0  0  # atno 4318 bound_to 3762
   -4.3212  -23.3343   10.3719 LP  0  0  0  0  0  0  0  0  0  0  0  0  # atno 4319 bound_to 3762
   -5.2513   -5.4175    9.1344 LP  0  0  0  0  0  0  0  0  0  0  0  0  # atno 4320 bound_to 2467
   -4.7929   -4.8418    7.6767 LP  0  0  0  0  0  0  0  0  0  0  0  0  # atno 4321 bound_to 2467

> <Gold.Score>
     Score     S(PLP)   S(hbond)     S(cho)   S(metal)  DE(clash)   DE(tors)     intcor
     44.25     -39.50       2.00       0.00       0.00       0.02       0.83       0.42

> <Gold.PLP.Fitness>
44.2474

> <Gold.PLP.PLP>
-39.5015

> <Gold.PLP.part.hbond>
-1.0000

> <Gold.PLP.part.metal>
0.0000

> <Gold.PLP.part.buried>
-1.8795

> <Gold.PLP.part.nonpolar>
-38.5040

> <Gold.PLP.part.repulsive>
0.1966

> <Gold.PLP.ligand.clash>
0.0170

> <Gold.PLP.ligand.torsion>
0.8291

> <Gold.PLP.Chemscore.Hbond>
2.0000

> <Gold.PLP.Chemscore.CHOScore>
0.0000

> <Gold.PLP.Chemscore.Metal>
0.0000

> <Gold.Chemscore.Hbonds>
donor molecule, donor type, donor heavy atom, donor atom, acceptor molecule, acceptor atom, score
      L1  H    19    41       P1  1227  2.00

> <Gold.PLP.Chemscore.Internal.Correction>
0.4211

