#       Name:                EN300-843819_i001
#       Creating user name   fsindt
#       Creation time:       Mon Feb 27 21:02:09 2023


#       File generated by GOLD software.
#

@<TRIPOS>MOLECULE
EN300-843819_i001|amine_3|mol2|757|dock13
    42    43     1
SMALL
USER_CHARGES


@<TRIPOS>ATOM
      1 C1          -1.9018 -11.5999   9.1898 C.3            1 <1>                0.0000
      2 C2          -1.4902 -11.3554  10.6430 C.3            1 <1>                0.0000
      3 C3          -0.3408 -10.3465  10.6847 C.3            1 <1>                0.0000
      4 C4          -2.6833 -10.8019  11.4248 C.3            1 <1>                0.0000
      5 O5          -1.0581 -12.6062  11.2406 O.3            1 <1>                0.0000
      6 C6          -0.1761 -13.3462  10.5405 C.2            1 <1>                0.0000
      7 O7           0.5203 -12.8217   9.6940 O.2            1 <1>                0.0000
      8 C8          -0.0561 -14.7919  10.8013 C.2            1 <1>                0.0000
      9 C9          -0.2528 -15.4054  12.0065 C.2            1 <1>                0.0000
     10 N10         -0.0466 -16.7230  11.8121 N.pl3          1 <1>                0.0000
     11 N11          0.2795 -16.8875  10.4585 N.2            1 <1>                0.0000
     12 N12          0.2596 -15.7310   9.8926 N.2            1 <1>                0.0000
     13 C13         -0.1439 -17.7804  12.8214 C.3            1 <1>                0.0000
     14 C14         -0.0800 -17.1595  14.2183 C.3            1 <1>                0.0000
     15 C15          1.2464 -16.4154  14.3855 C.3            1 <1>                0.0000
     16 C16          2.4073 -17.3964  14.2100 C.3            1 <1>                0.0000
     17 C17          2.3434 -18.0173  12.8131 C.3            1 <1>                0.0000
     18 C18          1.0170 -18.7615  12.6459 C.3            1 <1>                0.0000
     19 N19          0.9558 -19.3576  11.3046 N.4            1 <1>                1.0000
     20 H20         -1.0518 -11.9941   8.6328 H              1 <1>                0.0000
     21 H21         -2.7207 -12.3186   9.1601 H              1 <1>                0.0000
     22 H22         -2.2262 -10.6609   8.7412 H              1 <1>                0.0000
     23 H23         -0.6651  -9.4075  10.2360 H              1 <1>                0.0000
     24 H24         -0.0475 -10.1723  11.7200 H              1 <1>                0.0000
     25 H25          0.5092 -10.7408  10.1277 H              1 <1>                0.0000
     26 H26         -3.5021 -11.5207  11.3951 H              1 <1>                0.0000
     27 H27         -2.3900 -10.6278  12.4601 H              1 <1>                0.0000
     28 H28         -3.0076  -9.8630  10.9761 H              1 <1>                0.0000
     29 H29         -0.5214 -14.9263  12.9365 H              1 <1>                0.0000
     30 H30         -1.0887 -18.3106  12.7023 H              1 <1>                0.0000
     31 H31         -0.9070 -16.4606  14.3435 H              1 <1>                0.0000
     32 H32         -0.1524 -17.9463  14.9693 H              1 <1>                0.0000
     33 H33          1.3188 -15.6287  13.6347 H              1 <1>                0.0000
     34 H34          1.2918 -15.9730  15.3808 H              1 <1>                0.0000
     35 H35          3.3521 -16.8663  14.3291 H              1 <1>                0.0000
     36 H36          2.3349 -18.1832  14.9610 H              1 <1>                0.0000
     37 H37          2.4158 -17.2306  12.0621 H              1 <1>                0.0000
     38 H38          3.1704 -18.7162  12.6880 H              1 <1>                0.0000
     39 H39          0.9446 -19.5482  13.3967 H              1 <1>                0.0000
     40 H40          1.5352 -20.1831  11.2767 H              1 <1>                0.0000
     41 H41          0.0020 -19.6086  11.0915 H              1 <1>                0.0000
     42 H42          1.2880 -18.6904  10.6246 H              1 <1>                0.0000
@<TRIPOS>BOND
    1    1    2 1     
    2    1   20 1     
    3    1   21 1     
    4    1   22 1     
    5    2    3 1     
    6    2    4 1     
    7    2    5 1     
    8    3   23 1     
    9    3   24 1     
   10    3   25 1     
   11    4   26 1     
   12    4   27 1     
   13    4   28 1     
   14    5    6 1     
   15    6    7 2     
   16    6    8 1     
   17    8    9 2     
   18    8   12 1     
   19    9   10 1     
   20    9   29 1     
   21   10   11 1     
   22   10   13 1     
   23   11   12 2     
   24   13   14 1     
   25   13   18 1     
   26   13   30 1     
   27   14   15 1     
   28   14   31 1     
   29   14   32 1     
   30   15   16 1     
   31   15   33 1     
   32   15   34 1     
   33   16   17 1     
   34   16   35 1     
   35   16   36 1     
   36   17   18 1     
   37   17   37 1     
   38   17   38 1     
   39   18   19 1     
   40   18   39 1     
   41   19   40 1     
   42   19   41 1     
   43   19   42 1     
@<TRIPOS>SUBSTRUCTURE
      1 ****           1
@<TRIPOS>SET
DONOR_HYDROGENS      STATIC     ATOMS    <user>   **** ""
3 40 41 42
ATOM$RED        STATIC     ATOMS    COLORGROUP SYSTEM
3 40 41 42
@<TRIPOS>COMMENT
> <Gold.Version>
2022.2.0

> <Gold.Id.Protein>
3pbl|protein|mol2

> <Gold.Protein.RotatedTorsions>
[ 1303 1298 1297 1294 ] final   42.92 input  179.99 | X-H torsion
[ 2461 2456 2455 2452 ] final  -45.54 input   30.03 | X-H torsion
[ 2515 2510 2509 2506 ] final   88.21 input  -89.99 | X-H torsion
[ 3721 3712 3711 3710 ] final   89.46 input -179.91 | X-H torsion
[ 3841 3832 3831 3830 ] final  -31.15 input -179.91 | X-H torsion
[ 3767 3762 3761 3758 ] final  -73.44 input  -89.99 | X-H torsion
[ 2472 2467 2466 2463 ] final   85.01 input  -89.97 | X-H torsion

> <Gold.Protein.ActiveResidues>
 VAL82   VAL86   LEU89   PHE106  VAL107  ASP110  VAL111  MET112  CYS114  THR115 
 CYS181  SER182  ILE183  PHE188  VAL189  ILE190  SER192  SER193  SER196  TRP342 
 PHE345  PHE346  HIS349  VAL350  TYR365  THR369  GLY372  TYR373 

> <Gold.Protein.RotatedAtoms>
    3.7830  -10.2476    4.4687 H   0  0  0  0  0  0  0  0  0  0  0  0  # atno 1303 bound_to 1298
    0.4655   -8.3901    7.2312 H   0  0  0  0  0  0  0  0  0  0  0  0  # atno 2461 bound_to 2456
   -5.0318   -4.8977    7.7569 H   0  0  0  0  0  0  0  0  0  0  0  0  # atno 2472 bound_to 2467
    2.0473   -7.7121    5.8205 H   0  0  0  0  0  0  0  0  0  0  0  0  # atno 2515 bound_to 2510
   -2.7799  -17.6214   13.1074 H   0  0  0  0  0  0  0  0  0  0  0  0  # atno 3721 bound_to 3712
   -5.3786  -21.9755   10.9951 H   0  0  0  0  0  0  0  0  0  0  0  0  # atno 3767 bound_to 3762
    1.5687  -20.1173    9.3318 H   0  0  0  0  0  0  0  0  0  0  0  0  # atno 3841 bound_to 3832
    3.6699   -8.7572    3.8111 LP  0  0  0  0  0  0  0  0  0  0  0  0  # atno 4297 bound_to 1298
    4.9094   -9.1162    4.8118 LP  0  0  0  0  0  0  0  0  0  0  0  0  # atno 4298 bound_to 1298
    1.2216   -9.2737    8.3779 LP  0  0  0  0  0  0  0  0  0  0  0  0  # atno 4299 bound_to 2456
    2.0505   -8.1443    7.5389 LP  0  0  0  0  0  0  0  0  0  0  0  0  # atno 4300 bound_to 2456
    2.7294   -8.0503    4.3761 LP  0  0  0  0  0  0  0  0  0  0  0  0  # atno 4301 bound_to 2510
    2.5202   -9.2369    5.4783 LP  0  0  0  0  0  0  0  0  0  0  0  0  # atno 4302 bound_to 2510
   -2.7667  -17.8239   14.7000 LP  0  0  0  0  0  0  0  0  0  0  0  0  # atno 4306 bound_to 3712
   -3.5515  -16.5581   14.0303 LP  0  0  0  0  0  0  0  0  0  0  0  0  # atno 4307 bound_to 3712
    2.6069  -19.8495    8.1375 LP  0  0  0  0  0  0  0  0  0  0  0  0  # atno 4314 bound_to 3832
    2.8104  -21.1172    9.1465 LP  0  0  0  0  0  0  0  0  0  0  0  0  # atno 4315 bound_to 3832
   -3.9921  -22.6994   11.4646 LP  0  0  0  0  0  0  0  0  0  0  0  0  # atno 4318 bound_to 3762
   -4.7570  -23.2000   10.1114 LP  0  0  0  0  0  0  0  0  0  0  0  0  # atno 4319 bound_to 3762
   -3.6346   -5.0433    8.5895 LP  0  0  0  0  0  0  0  0  0  0  0  0  # atno 4320 bound_to 2467
   -5.0506   -5.4525    9.2926 LP  0  0  0  0  0  0  0  0  0  0  0  0  # atno 4321 bound_to 2467

> <Gold.Score>
     Score     S(PLP)   S(hbond)     S(cho)   S(metal)  DE(clash)   DE(tors)     intcor
     46.79     -43.40       2.00       0.00       0.00       0.40       1.31       0.42

> <Gold.PLP.Fitness>
46.7944

> <Gold.PLP.PLP>
-43.4040

> <Gold.PLP.part.hbond>
-1.8278

> <Gold.PLP.part.metal>
0.0000

> <Gold.PLP.part.buried>
-5.0026

> <Gold.PLP.part.nonpolar>
-42.5390

> <Gold.PLP.part.repulsive>
4.4314

> <Gold.PLP.ligand.clash>
0.4033

> <Gold.PLP.ligand.torsion>
1.3137

> <Gold.PLP.Chemscore.Hbond>
2.0000

> <Gold.PLP.Chemscore.CHOScore>
0.0000

> <Gold.PLP.Chemscore.Metal>
0.0000

> <Gold.Chemscore.Hbonds>
donor molecule, donor type, donor heavy atom, donor atom, acceptor molecule, acceptor atom, score
      L1  H    19    42       P1  1227  2.00

> <Gold.PLP.Chemscore.Internal.Correction>
0.4211

