#       Name:                EN300-108242_i001
#       Creating user name   aseyller
#       Creation time:       Fri Apr 21 18:58:33 2023


#       File generated by GOLD software.
#

@<TRIPOS>MOLECULE
EN300-108242_i001|benzaldehydes|mol2|673|dock18
    23    24     1
SMALL
USER_CHARGES


@<TRIPOS>ATOM
      1 C1          27.9676  35.5564  42.1464 C.3            1 <1>                0.0000
      2 N2          27.8491  36.2114  40.8413 N.pl3          1 <1>                0.0000
      3 C3          26.7509  36.8782  40.3599 C.2            1 <1>                0.0000
      4 C4          25.4809  37.0537  41.0834 C.2            1 <1>                0.0000
      5 O5          25.4877  37.2708  42.2762 O.2            1 <1>                0.0000
      6 N6          27.0042  37.3354  39.1574 N.2            1 <1>                0.0000
      7 C7          28.2536  36.9992  38.7974 C.ar           1 <1>                0.0000
      8 C8          29.0184  37.2282  37.6441 C.ar           1 <1>                0.0000
      9 C9          30.2931  36.7501  37.5685 C.ar           1 <1>                0.0000
     10 C10         30.8481  36.0354  38.6238 C.ar           1 <1>                0.0000
     11 C11         30.1191  35.7966  39.7675 C.ar           1 <1>                0.0000
     12 C12         28.8196  36.2793  39.8697 C.ar           1 <1>                0.0000
     13 C13         31.1095  36.9989  36.3265 C.3            1 <1>                0.0000
     14 F14         31.7495  38.2387  36.4298 F              1 <1>                0.0000
     15 F15         32.0682  35.9893  36.1886 F              1 <1>                0.0000
     16 F16         30.2689  36.9998  35.2083 F              1 <1>                0.0000
     17 H17         27.6445  34.5188  42.0628 H              1 <1>                0.0000
     18 H18         29.0061  35.5883  42.4760 H              1 <1>                0.0000
     19 H19         27.3403  36.0751  42.8715 H              1 <1>                0.0000
     20 H20         24.5431  36.9887  40.5516 H              1 <1>                0.0000
     21 H21         28.5983  37.7817  36.8174 H              1 <1>                0.0000
     22 H22         31.8593  35.6641  38.5459 H              1 <1>                0.0000
     23 H23         30.5566  35.2403  40.5832 H              1 <1>                0.0000
@<TRIPOS>BOND
    1    1    2 1     
    2    1   17 1     
    3    1   18 1     
    4    1   19 1     
    5    2    3 1     
    6    2   12 1     
    7    3    4 1     
    8    3    6 2     
    9    4    5 2     
   10    4   20 1     
   11    6    7 1     
   12    7    8 ar    
   13    7   12 ar    
   14    8    9 ar    
   15    8   21 1     
   16    9   10 ar    
   17    9   13 1     
   18   10   11 ar    
   19   10   22 1     
   20   11   12 ar    
   21   11   23 1     
   22   13   14 1     
   23   13   15 1     
   24   13   16 1     
@<TRIPOS>SUBSTRUCTURE
      1 ****           1
@<TRIPOS>COMMENT
> <Gold.Version>
2022.2.0

> <Gold.Id.Protein>
1qkm|1qkm_protein|mol2

> <Gold.Protein.RotatedTorsions>
[  496  491  490  487 ] final  159.24 input  -89.99 | X-H torsion

> <Gold.Protein.ActiveResidues>
 MET295  LEU298  THR299  LEU301  ALA302  GLU305  TRP335  MET336  LEU339  MET340 
 GLY342  LEU343  ARG346  PHE356  ILE373  ILE376  PHE377  LEU380  LYS471  GLY472 
 MET473  HIS475  LEU476  LEU477  ASN478  MET479  VAL484  VAL487 

> <Gold.Protein.RotatedAtoms>
   37.2947   33.1969   41.0793 H   0  0  0  0  0  0  0  0  0  0  0  0  # atno 496  bound_to 491 

> <Gold.Score>
     Score     S(PLP)   S(hbond)     S(cho)   S(metal)  DE(clash)   DE(tors)     intcor
     47.89     -48.25       0.10       0.00       0.00       1.02       1.38       3.12

> <Gold.PLP.Fitness>
47.8857

> <Gold.PLP.PLP>
-48.2493

> <Gold.PLP.part.hbond>
-1.0000

> <Gold.PLP.part.metal>
0.0000

> <Gold.PLP.part.buried>
2.4183

> <Gold.PLP.part.nonpolar>
-49.7916

> <Gold.PLP.part.repulsive>
0.2859

> <Gold.PLP.ligand.clash>
1.0247

> <Gold.PLP.ligand.torsion>
1.3788

> <Gold.PLP.Chemscore.Hbond>
0.0983

> <Gold.PLP.Chemscore.CHOScore>
0.0000

> <Gold.PLP.Chemscore.Metal>
0.0000

> <Gold.Chemscore.Hbonds>
donor molecule, donor type, donor heavy atom, donor atom, acceptor molecule, acceptor atom, score
      P1  H  1258  1270       L1     5  0.10

> <Gold.PLP.Chemscore.Internal.Correction>
3.1238

