#       Name:                EN300-108242_i001
#       Creating user name   aseyller
#       Creation time:       Fri Apr 21 18:58:27 2023


#       File generated by GOLD software.
#

@<TRIPOS>MOLECULE
EN300-108242_i001|benzaldehydes|mol2|673|dock6
    23    24     1
SMALL
USER_CHARGES


@<TRIPOS>ATOM
      1 C1          33.4196  35.9287  37.5846 C.3            1 <1>                0.0000
      2 N2          32.1190  36.4289  37.1324 N.pl3          1 <1>                0.0000
      3 C3          31.8505  37.0337  35.9305 C.2            1 <1>                0.0000
      4 C4          32.8392  37.2888  34.8700 C.2            1 <1>                0.0000
      5 O5          33.8975  36.6972  34.8728 O.2            1 <1>                0.0000
      6 N6          30.5795  37.3501  35.8697 N.2            1 <1>                0.0000
      7 C7          29.9638  36.9770  37.0035 C.ar           1 <1>                0.0000
      8 C8          28.6398  37.0720  37.4568 C.ar           1 <1>                0.0000
      9 C9          28.3074  36.5898  38.6881 C.ar           1 <1>                0.0000
     10 C10         29.2670  36.0024  39.5045 C.ar           1 <1>                0.0000
     11 C11         30.5740  35.8964  39.0836 C.ar           1 <1>                0.0000
     12 C12         30.9353  36.3756  37.8298 C.ar           1 <1>                0.0000
     13 C13         26.8833  36.6953  39.1698 C.3            1 <1>                0.0000
     14 F14         26.1514  35.5972  38.7054 F              1 <1>                0.0000
     15 F15         26.8641  36.7106  40.5687 F              1 <1>                0.0000
     16 F16         26.3125  37.8760  38.6826 F              1 <1>                0.0000
     17 H17         33.9503  36.7215  38.1119 H              1 <1>                0.0000
     18 H18         33.2703  35.0828  38.2555 H              1 <1>                0.0000
     19 H19         34.0059  35.6099  36.7227 H              1 <1>                0.0000
     20 H20         32.6219  38.0031  34.0897 H              1 <1>                0.0000
     21 H21         27.8853  37.5266  36.8321 H              1 <1>                0.0000
     22 H22         28.9853  35.6262  40.4769 H              1 <1>                0.0000
     23 H23         31.3143  35.4391  39.7234 H              1 <1>                0.0000
@<TRIPOS>BOND
    1    1    2 1     
    2    1   17 1     
    3    1   18 1     
    4    1   19 1     
    5    2    3 1     
    6    2   12 1     
    7    3    4 1     
    8    3    6 2     
    9    4    5 2     
   10    4   20 1     
   11    6    7 1     
   12    7    8 ar    
   13    7   12 ar    
   14    8    9 ar    
   15    8   21 1     
   16    9   10 ar    
   17    9   13 1     
   18   10   11 ar    
   19   10   22 1     
   20   11   12 ar    
   21   11   23 1     
   22   13   14 1     
   23   13   15 1     
   24   13   16 1     
@<TRIPOS>SUBSTRUCTURE
      1 ****           1
@<TRIPOS>COMMENT
> <Gold.Version>
2022.2.0

> <Gold.Id.Protein>
1qkm|1qkm_protein|mol2

> <Gold.Protein.RotatedTorsions>
[  496  491  490  487 ] final  101.09 input  -89.99 | X-H torsion

> <Gold.Protein.ActiveResidues>
 MET295  LEU298  THR299  LEU301  ALA302  GLU305  TRP335  MET336  LEU339  MET340 
 GLY342  LEU343  ARG346  PHE356  ILE373  ILE376  PHE377  LEU380  LYS471  GLY472 
 MET473  HIS475  LEU476  LEU477  ASN478  MET479  VAL484  VAL487 

> <Gold.Protein.RotatedAtoms>
   36.9214   32.9649   41.8838 H   0  0  0  0  0  0  0  0  0  0  0  0  # atno 496  bound_to 491 

> <Gold.Score>
     Score     S(PLP)   S(hbond)     S(cho)   S(metal)  DE(clash)   DE(tors)     intcor
     48.74     -48.91       0.00       0.00       0.00       1.02       1.14       3.12

> <Gold.PLP.Fitness>
48.7415

> <Gold.PLP.PLP>
-48.9117

> <Gold.PLP.part.hbond>
0.0000

> <Gold.PLP.part.metal>
0.0000

> <Gold.PLP.part.buried>
-3.4983

> <Gold.PLP.part.nonpolar>
-45.5500

> <Gold.PLP.part.repulsive>
0.1920

> <Gold.PLP.ligand.clash>
1.0205

> <Gold.PLP.ligand.torsion>
1.1367

> <Gold.PLP.Chemscore.Hbond>
0.0000

> <Gold.PLP.Chemscore.CHOScore>
0.0000

> <Gold.PLP.Chemscore.Metal>
0.0000

> <Gold.PLP.Chemscore.Internal.Correction>
3.1238

