#       Name:                EN300-108242_i001
#       Creating user name   aseyller
#       Creation time:       Fri Apr 21 18:58:34 2023


#       File generated by GOLD software.
#

@<TRIPOS>MOLECULE
EN300-108242_i001|benzaldehydes|mol2|673|dock20
    23    24     1
SMALL
USER_CHARGES


@<TRIPOS>ATOM
      1 C1          29.0350  35.7210  40.8784 C.3            1 <1>                0.0000
      2 N2          28.6942  36.4781  39.6713 N.pl3          1 <1>                0.0000
      3 C3          27.4558  36.9640  39.3356 C.2            1 <1>                0.0000
      4 C4          26.2353  36.8059  40.1435 C.2            1 <1>                0.0000
      5 O5          25.2695  37.5060  39.9263 O.2            1 <1>                0.0000
      6 N6          27.5243  37.5904  38.1858 N.2            1 <1>                0.0000
      7 C7          28.7831  37.5481  37.7197 C.ar           1 <1>                0.0000
      8 C8          29.3993  38.0476  36.5628 C.ar           1 <1>                0.0000
      9 C9          30.7317  37.8411  36.3599 C.ar           1 <1>                0.0000
     10 C10         31.4917  37.1390  37.2882 C.ar           1 <1>                0.0000
     11 C11         30.9117  36.6380  38.4324 C.ar           1 <1>                0.0000
     12 C12         29.5562  36.8413  38.6636 C.ar           1 <1>                0.0000
     13 C13         31.3878  38.3797  35.1148 C.3            1 <1>                0.0000
     14 F14         31.3836  39.7781  35.1532 F              1 <1>                0.0000
     15 F15         32.7071  37.9191  35.0462 F              1 <1>                0.0000
     16 F16         30.6819  37.9419  33.9891 F              1 <1>                0.0000
     17 H17         28.9086  34.6554  40.6866 H              1 <1>                0.0000
     18 H18         30.0710  35.9206  41.1521 H              1 <1>                0.0000
     19 H19         28.3788  36.0237  41.6945 H              1 <1>                0.0000
     20 H20         26.2003  36.0663  40.9298 H              1 <1>                0.0000
     21 H21         28.8194  38.5943  35.8340 H              1 <1>                0.0000
     22 H22         32.5459  36.9848  37.1105 H              1 <1>                0.0000
     23 H23         31.5084  36.0932  39.1490 H              1 <1>                0.0000
@<TRIPOS>BOND
    1    1    2 1     
    2    1   17 1     
    3    1   18 1     
    4    1   19 1     
    5    2    3 1     
    6    2   12 1     
    7    3    4 1     
    8    3    6 2     
    9    4    5 2     
   10    4   20 1     
   11    6    7 1     
   12    7    8 ar    
   13    7   12 ar    
   14    8    9 ar    
   15    8   21 1     
   16    9   10 ar    
   17    9   13 1     
   18   10   11 ar    
   19   10   22 1     
   20   11   12 ar    
   21   11   23 1     
   22   13   14 1     
   23   13   15 1     
   24   13   16 1     
@<TRIPOS>SUBSTRUCTURE
      1 ****           1
@<TRIPOS>COMMENT
> <Gold.Version>
2022.2.0

> <Gold.Id.Protein>
1qkm|1qkm_protein|mol2

> <Gold.Protein.RotatedTorsions>
[  496  491  490  487 ] final   83.61 input  -89.99 | X-H torsion

> <Gold.Protein.ActiveResidues>
 MET295  LEU298  THR299  LEU301  ALA302  GLU305  TRP335  MET336  LEU339  MET340 
 GLY342  LEU343  ARG346  PHE356  ILE373  ILE376  PHE377  LEU380  LYS471  GLY472 
 MET473  HIS475  LEU476  LEU477  ASN478  MET479  VAL484  VAL487 

> <Gold.Protein.RotatedAtoms>
   36.7612   33.0689   42.0974 H   0  0  0  0  0  0  0  0  0  0  0  0  # atno 496  bound_to 491 

> <Gold.Score>
     Score     S(PLP)   S(hbond)     S(cho)   S(metal)  DE(clash)   DE(tors)     intcor
     44.15     -44.39       0.00       0.00       0.00       2.98       0.19       3.12

> <Gold.PLP.Fitness>
44.1485

> <Gold.PLP.PLP>
-44.3869

> <Gold.PLP.part.hbond>
0.0000

> <Gold.PLP.part.metal>
0.0000

> <Gold.PLP.part.buried>
-0.3581

> <Gold.PLP.part.nonpolar>
-44.0958

> <Gold.PLP.part.repulsive>
0.1026

> <Gold.PLP.ligand.clash>
2.9776

> <Gold.PLP.ligand.torsion>
0.1923

> <Gold.PLP.Chemscore.Hbond>
0.0000

> <Gold.PLP.Chemscore.CHOScore>
0.0000

> <Gold.PLP.Chemscore.Metal>
0.0000

> <Gold.PLP.Chemscore.Internal.Correction>
3.1238

