#       Name:                EN300-108242_i001
#       Creating user name   aseyller
#       Creation time:       Fri Apr 21 18:58:26 2023


#       File generated by GOLD software.
#

@<TRIPOS>MOLECULE
EN300-108242_i001|benzaldehydes|mol2|673|dock5
    23    24     1
SMALL
USER_CHARGES


@<TRIPOS>ATOM
      1 C1          25.8004  38.0367  38.5768 C.3            1 <1>                0.0000
      2 N2          26.8050  37.1107  39.1057 N.pl3          1 <1>                0.0000
      3 C3          26.7032  36.3647  40.2528 C.2            1 <1>                0.0000
      4 C4          25.5480  36.3659  41.1653 C.2            1 <1>                0.0000
      5 O5          25.3694  37.3010  41.9160 O.2            1 <1>                0.0000
      6 N6          27.7912  35.6507  40.4129 N.2            1 <1>                0.0000
      7 C7          28.6426  35.8869  39.4015 C.ar           1 <1>                0.0000
      8 C8          29.9197  35.4013  39.0839 C.ar           1 <1>                0.0000
      9 C9          30.5517  35.8384  37.9576 C.ar           1 <1>                0.0000
     10 C10         29.9451  36.7632  37.1155 C.ar           1 <1>                0.0000
     11 C11         28.6919  37.2559  37.4038 C.ar           1 <1>                0.0000
     12 C12         28.0256  36.8204  38.5434 C.ar           1 <1>                0.0000
     13 C13         31.9239  35.3135  37.6222 C.3            1 <1>                0.0000
     14 F14         32.8928  36.1206  38.2280 F              1 <1>                0.0000
     15 F15         32.0493  34.0018  38.0926 F              1 <1>                0.0000
     16 F16         32.1036  35.3306  36.2350 F              1 <1>                0.0000
     17 H17         25.9761  39.0333  38.9817 H              1 <1>                0.0000
     18 H18         25.8722  38.0683  37.4896 H              1 <1>                0.0000
     19 H19         24.8057  37.6972  38.8655 H              1 <1>                0.0000
     20 H20         24.8597  35.5336  41.1660 H              1 <1>                0.0000
     21 H21         30.4015  34.6830  39.7305 H              1 <1>                0.0000
     22 H22         30.4612  37.0983  36.2278 H              1 <1>                0.0000
     23 H23         28.2269  37.9744  36.7451 H              1 <1>                0.0000
@<TRIPOS>BOND
    1    1    2 1     
    2    1   17 1     
    3    1   18 1     
    4    1   19 1     
    5    2    3 1     
    6    2   12 1     
    7    3    4 1     
    8    3    6 2     
    9    4    5 2     
   10    4   20 1     
   11    6    7 1     
   12    7    8 ar    
   13    7   12 ar    
   14    8    9 ar    
   15    8   21 1     
   16    9   10 ar    
   17    9   13 1     
   18   10   11 ar    
   19   10   22 1     
   20   11   12 ar    
   21   11   23 1     
   22   13   14 1     
   23   13   15 1     
   24   13   16 1     
@<TRIPOS>SUBSTRUCTURE
      1 ****           1
@<TRIPOS>COMMENT
> <Gold.Version>
2022.2.0

> <Gold.Id.Protein>
1qkm|1qkm_protein|mol2

> <Gold.Protein.RotatedTorsions>
[  496  491  490  487 ] final   84.14 input  -89.99 | X-H torsion

> <Gold.Protein.ActiveResidues>
 MET295  LEU298  THR299  LEU301  ALA302  GLU305  TRP335  MET336  LEU339  MET340 
 GLY342  LEU343  ARG346  PHE356  ILE373  ILE376  PHE377  LEU380  LYS471  GLY472 
 MET473  HIS475  LEU476  LEU477  ASN478  MET479  VAL484  VAL487 

> <Gold.Protein.RotatedAtoms>
   36.7661   33.0646   42.0916 H   0  0  0  0  0  0  0  0  0  0  0  0  # atno 496  bound_to 491 

> <Gold.Score>
     Score     S(PLP)   S(hbond)     S(cho)   S(metal)  DE(clash)   DE(tors)     intcor
     50.52     -51.68       0.14       0.00       0.00       1.07       1.82       3.12

> <Gold.PLP.Fitness>
50.5155

> <Gold.PLP.PLP>
-51.6792

> <Gold.PLP.part.hbond>
-1.0000

> <Gold.PLP.part.metal>
0.0000

> <Gold.PLP.part.buried>
-4.3400

> <Gold.PLP.part.nonpolar>
-47.7457

> <Gold.PLP.part.repulsive>
0.3345

> <Gold.PLP.ligand.clash>
1.0715

> <Gold.PLP.ligand.torsion>
1.8237

> <Gold.PLP.Chemscore.Hbond>
0.1435

> <Gold.PLP.Chemscore.CHOScore>
0.0000

> <Gold.PLP.Chemscore.Metal>
0.0000

> <Gold.Chemscore.Hbonds>
donor molecule, donor type, donor heavy atom, donor atom, acceptor molecule, acceptor atom, score
      P1  H  1258  1270       L1     5  0.14

> <Gold.PLP.Chemscore.Internal.Correction>
3.1247

