#       Name:                EN300-108242_i001
#       Creating user name   aseyller
#       Creation time:       Fri Apr 21 18:58:24 2023


#       File generated by GOLD software.
#

@<TRIPOS>MOLECULE
EN300-108242_i001
    23    24     1
SMALL
USER_CHARGES


@<TRIPOS>ATOM
      1 C1           2.5081   1.7007  -0.0006 C.3            1 <1>                0.0000
      2 N2           1.6932   0.4832  -0.0005 N.pl3          1 <1>                0.0000
      3 C3           2.1562  -0.8084  -0.0002 C.2            1 <1>                0.0000
      4 C4           3.5752  -1.2005   0.0001 C.2            1 <1>                0.0000
      5 O5           3.8799  -2.3740   0.0004 O.2            1 <1>                0.0000
      6 N6           1.1429  -1.6405  -0.0003 N.2            1 <1>                0.0000
      7 C7          -0.0102  -0.9521  -0.0006 C.ar           1 <1>                0.0000
      8 C8          -1.3600  -1.3338  -0.0001 C.ar           1 <1>                0.0000
      9 C9          -2.3352  -0.3808   0.0002 C.ar           1 <1>                0.0000
     10 C10         -2.0088   0.9704  -0.0000 C.ar           1 <1>                0.0000
     11 C11         -0.6916   1.3723  -0.0004 C.ar           1 <1>                0.0000
     12 C12          0.3198   0.4188   0.0053 C.ar           1 <1>                0.0000
     13 C13         -3.7835  -0.7972   0.0001 C.3            1 <1>                0.0000
     14 F14         -4.2316  -0.9263   1.3191 F              1 <1>                0.0000
     15 F15         -4.5474   0.1720  -0.6591 F              1 <1>                0.0000
     16 F16         -3.9161  -2.0237  -0.6596 F              1 <1>                0.0000
     17 H17          2.7100   2.0026  -1.0283 H              1 <1>                0.0000
     18 H18          1.9707   2.4976   0.5134 H              1 <1>                0.0000
     19 H19          3.4499   1.5075   0.5131 H              1 <1>                0.0000
     20 H20          4.3447  -0.4427   0.0002 H              1 <1>                0.0000
     21 H21         -1.6263  -2.3804  -0.0004 H              1 <1>                0.0000
     22 H22         -2.7948   1.7112  -0.0001 H              1 <1>                0.0000
     23 H23         -0.4455   2.4239  -0.0009 H              1 <1>                0.0000
@<TRIPOS>BOND
    1    1    2 1     
    2    1   17 1     
    3    1   18 1     
    4    1   19 1     
    5    2    3 1     
    6    2   12 1     
    7    3    4 1     
    8    3    6 2     
    9    4    5 2     
   10    4   20 1     
   11    6    7 1     
   12    7    8 ar    
   13    7   12 ar    
   14    8    9 ar    
   15    8   21 1     
   16    9   10 ar    
   17    9   13 1     
   18   10   11 ar    
   19   10   22 1     
   20   11   12 ar    
   21   11   23 1     
   22   13   14 1     
   23   13   15 1     
   24   13   16 1     
@<TRIPOS>SUBSTRUCTURE
      1 ****           1
