#       Name:                EN300-108242_i001
#       Creating user name   aseyller
#       Creation time:       Fri Apr 21 18:58:26 2023


#       File generated by GOLD software.
#

@<TRIPOS>MOLECULE
EN300-108242_i001|benzaldehydes|mol2|673|dock4
    23    24     1
SMALL
USER_CHARGES


@<TRIPOS>ATOM
      1 C1          31.4113  38.4025  34.9715 C.3            1 <1>                0.0000
      2 N2          31.4678  37.4597  36.0915 N.pl3          1 <1>                0.0000
      3 C3          32.4248  36.4993  36.3019 C.2            1 <1>                0.0000
      4 C4          33.5793  36.2460  35.4242 C.2            1 <1>                0.0000
      5 O5          33.5980  36.7011  34.3006 O.2            1 <1>                0.0000
      6 N6          32.1550  35.8412  37.4034 N.2            1 <1>                0.0000
      7 C7          31.0324  36.3260  37.9588 C.ar           1 <1>                0.0000
      8 C8          30.3110  35.9981  39.1163 C.ar           1 <1>                0.0000
      9 C9          29.1771  36.6882  39.4280 C.ar           1 <1>                0.0000
     10 C10         28.7238  37.7172  38.6107 C.ar           1 <1>                0.0000
     11 C11         29.4132  38.0594  37.4687 C.ar           1 <1>                0.0000
     12 C12         30.5751  37.3739  37.1337 C.ar           1 <1>                0.0000
     13 C13         28.4060  36.3307  40.6724 C.3            1 <1>                0.0000
     14 F14         28.4844  34.9509  40.8893 F              1 <1>                0.0000
     15 F15         28.9514  37.0068  41.7692 F              1 <1>                0.0000
     16 F16         27.0667  36.7026  40.5142 F              1 <1>                0.0000
     17 H17         30.8391  37.9624  34.1548 H              1 <1>                0.0000
     18 H18         30.9299  39.3247  35.2969 H              1 <1>                0.0000
     19 H19         32.4229  38.6216  34.6298 H              1 <1>                0.0000
     20 H20         34.4094  35.6546  35.7813 H              1 <1>                0.0000
     21 H21         30.6528  35.2003  39.7590 H              1 <1>                0.0000
     22 H22         27.8232  38.2525  38.8734 H              1 <1>                0.0000
     23 H23         29.0548  38.8598  36.8383 H              1 <1>                0.0000
@<TRIPOS>BOND
    1    1    2 1     
    2    1   17 1     
    3    1   18 1     
    4    1   19 1     
    5    2    3 1     
    6    2   12 1     
    7    3    4 1     
    8    3    6 2     
    9    4    5 2     
   10    4   20 1     
   11    6    7 1     
   12    7    8 ar    
   13    7   12 ar    
   14    8    9 ar    
   15    8   21 1     
   16    9   10 ar    
   17    9   13 1     
   18   10   11 ar    
   19   10   22 1     
   20   11   12 ar    
   21   11   23 1     
   22   13   14 1     
   23   13   15 1     
   24   13   16 1     
@<TRIPOS>SUBSTRUCTURE
      1 ****           1
@<TRIPOS>COMMENT
> <Gold.Version>
2022.2.0

> <Gold.Id.Protein>
1qkm|1qkm_protein|mol2

> <Gold.Protein.RotatedTorsions>
[  496  491  490  487 ] final   25.31 input  -89.99 | X-H torsion

> <Gold.Protein.ActiveResidues>
 MET295  LEU298  THR299  LEU301  ALA302  GLU305  TRP335  MET336  LEU339  MET340 
 GLY342  LEU343  ARG346  PHE356  ILE373  ILE376  PHE377  LEU380  LYS471  GLY472 
 MET473  HIS475  LEU476  LEU477  ASN478  MET479  VAL484  VAL487 

> <Gold.Protein.RotatedAtoms>
   36.3239   33.8289   42.3723 H   0  0  0  0  0  0  0  0  0  0  0  0  # atno 496  bound_to 491 

> <Gold.Score>
     Score     S(PLP)   S(hbond)     S(cho)   S(metal)  DE(clash)   DE(tors)     intcor
     49.61     -49.80       0.00       0.00       0.00       1.08       1.11       3.12

> <Gold.PLP.Fitness>
49.6088

> <Gold.PLP.PLP>
-49.7976

> <Gold.PLP.part.hbond>
-0.3179

> <Gold.PLP.part.metal>
0.0000

> <Gold.PLP.part.buried>
-4.8000

> <Gold.PLP.part.nonpolar>
-45.8393

> <Gold.PLP.part.repulsive>
1.1721

> <Gold.PLP.ligand.clash>
1.0837

> <Gold.PLP.ligand.torsion>
1.1150

> <Gold.PLP.Chemscore.Hbond>
0.0000

> <Gold.PLP.Chemscore.CHOScore>
0.0000

> <Gold.PLP.Chemscore.Metal>
0.0000

> <Gold.PLP.Chemscore.Internal.Correction>
3.1248

