#       Name:                EN300-108242_i001
#       Creating user name   aseyller
#       Creation time:       Fri Apr 21 18:58:33 2023


#       File generated by GOLD software.
#

@<TRIPOS>MOLECULE
EN300-108242_i001|benzaldehydes|mol2|673|dock19
    23    24     1
SMALL
USER_CHARGES


@<TRIPOS>ATOM
      1 C1          32.5884  35.8070  37.9089 C.3            1 <1>                0.0000
      2 N2          31.2760  36.4090  37.6611 N.pl3          1 <1>                0.0000
      3 C3          30.8995  37.1147  36.5462 C.2            1 <1>                0.0000
      4 C4          31.7635  37.3935  35.3873 C.2            1 <1>                0.0000
      5 O5          32.8858  36.9369  35.3441 O.2            1 <1>                0.0000
      6 N6          29.6532  37.5031  36.6698 N.2            1 <1>                0.0000
      7 C7          29.1604  37.0812  37.8456 C.ar           1 <1>                0.0000
      8 C8          27.9113  37.2141  38.4699 C.ar           1 <1>                0.0000
      9 C9          27.7041  36.6608  39.6989 C.ar           1 <1>                0.0000
     10 C10         28.7184  35.9636  40.3448 C.ar           1 <1>                0.0000
     11 C11         29.9539  35.8183  39.7542 C.ar           1 <1>                0.0000
     12 C12         30.1867  36.3685  38.4991 C.ar           1 <1>                0.0000
     13 C13         26.3601  36.8076  40.3647 C.3            1 <1>                0.0000
     14 F14         26.5121  37.4903  41.5763 F              1 <1>                0.0000
     15 F15         25.5013  37.5284  39.5279 F              1 <1>                0.0000
     16 F16         25.8194  35.5405  40.6081 F              1 <1>                0.0000
     17 H17         33.2293  36.5287  38.4155 H              1 <1>                0.0000
     18 H18         32.4702  34.9231  38.5356 H              1 <1>                0.0000
     19 H19         33.0422  35.5215  36.9598 H              1 <1>                0.0000
     20 H20         31.3975  38.0049  34.5758 H              1 <1>                0.0000
     21 H21         27.1154  37.7538  37.9784 H              1 <1>                0.0000
     22 H22         28.5360  35.5324  41.3182 H              1 <1>                0.0000
     23 H23         30.7374  35.2755  40.2621 H              1 <1>                0.0000
@<TRIPOS>BOND
    1    1    2 1     
    2    1   17 1     
    3    1   18 1     
    4    1   19 1     
    5    2    3 1     
    6    2   12 1     
    7    3    4 1     
    8    3    6 2     
    9    4    5 2     
   10    4   20 1     
   11    6    7 1     
   12    7    8 ar    
   13    7   12 ar    
   14    8    9 ar    
   15    8   21 1     
   16    9   10 ar    
   17    9   13 1     
   18   10   11 ar    
   19   10   22 1     
   20   11   12 ar    
   21   11   23 1     
   22   13   14 1     
   23   13   15 1     
   24   13   16 1     
@<TRIPOS>SUBSTRUCTURE
      1 ****           1
@<TRIPOS>COMMENT
> <Gold.Version>
2022.2.0

> <Gold.Id.Protein>
1qkm|1qkm_protein|mol2

> <Gold.Protein.RotatedTorsions>
[  496  491  490  487 ] final  124.87 input  -89.99 | X-H torsion

> <Gold.Protein.ActiveResidues>
 MET295  LEU298  THR299  LEU301  ALA302  GLU305  TRP335  MET336  LEU339  MET340 
 GLY342  LEU343  ARG346  PHE356  ILE373  ILE376  PHE377  LEU380  LYS471  GLY472 
 MET473  HIS475  LEU476  LEU477  ASN478  MET479  VAL484  VAL487 

> <Gold.Protein.RotatedAtoms>
   37.1171   32.9535   41.5481 H   0  0  0  0  0  0  0  0  0  0  0  0  # atno 496  bound_to 491 

> <Gold.Score>
     Score     S(PLP)   S(hbond)     S(cho)   S(metal)  DE(clash)   DE(tors)     intcor
     45.55     -45.98       0.00       0.00       0.00       3.55       0.00       3.12

> <Gold.PLP.Fitness>
45.5547

> <Gold.PLP.PLP>
-45.9842

> <Gold.PLP.part.hbond>
0.0000

> <Gold.PLP.part.metal>
0.0000

> <Gold.PLP.part.buried>
-2.8894

> <Gold.PLP.part.nonpolar>
-43.9338

> <Gold.PLP.part.repulsive>
0.1107

> <Gold.PLP.ligand.clash>
3.5462

> <Gold.PLP.ligand.torsion>
0.0035

> <Gold.PLP.Chemscore.Hbond>
0.0000

> <Gold.PLP.Chemscore.CHOScore>
0.0000

> <Gold.PLP.Chemscore.Metal>
0.0000

> <Gold.PLP.Chemscore.Internal.Correction>
3.1238

