#       Name:                EN300-108242_i001
#       Creating user name   aseyller
#       Creation time:       Fri Apr 21 18:58:30 2023


#       File generated by GOLD software.
#

@<TRIPOS>MOLECULE
EN300-108242_i001|benzaldehydes|mol2|673|dock12
    23    24     1
SMALL
USER_CHARGES


@<TRIPOS>ATOM
      1 C1          26.3032  37.6001  38.5987 C.3            1 <1>                0.0000
      2 N2          27.5555  36.9841  39.0446 N.pl3          1 <1>                0.0000
      3 C3          27.7718  36.3507  40.2424 C.2            1 <1>                0.0000
      4 C4          26.7664  36.1776  41.3038 C.2            1 <1>                0.0000
      5 O5          25.6775  36.7001  41.1984 O.2            1 <1>                0.0000
      6 N6          29.0100  35.9229  40.2981 N.2            1 <1>                0.0000
      7 C7          29.6540  36.2469  39.1651 C.ar           1 <1>                0.0000
      8 C8          30.9631  36.0368  38.7073 C.ar           1 <1>                0.0000
      9 C9          31.3342  36.4941  37.4775 C.ar           1 <1>                0.0000
     10 C10         30.4286  37.1690  36.6670 C.ar           1 <1>                0.0000
     11 C11         29.1373  37.3885  37.0922 C.ar           1 <1>                0.0000
     12 C12         28.7345  36.9263  38.3397 C.ar           1 <1>                0.0000
     13 C13         32.7423  36.2658  36.9916 C.3            1 <1>                0.0000
     14 F14         33.6449  36.8485  37.8876 F              1 <1>                0.0000
     15 F15         32.9898  34.8913  36.9082 F              1 <1>                0.0000
     16 F16         32.8994  36.8455  35.7282 F              1 <1>                0.0000
     17 H17         26.2824  38.6452  38.9074 H              1 <1>                0.0000
     18 H18         26.2358  37.5406  37.5124 H              1 <1>                0.0000
     19 H19         25.4600  37.0725  39.0445 H              1 <1>                0.0000
     20 H20         26.9991  35.5853  42.1764 H              1 <1>                0.0000
     21 H21         31.6760  35.5142  39.3279 H              1 <1>                0.0000
     22 H22         30.7405  37.5243  35.6959 H              1 <1>                0.0000
     23 H23         28.4393  37.9139  36.4572 H              1 <1>                0.0000
@<TRIPOS>BOND
    1    1    2 1     
    2    1   17 1     
    3    1   18 1     
    4    1   19 1     
    5    2    3 1     
    6    2   12 1     
    7    3    4 1     
    8    3    6 2     
    9    4    5 2     
   10    4   20 1     
   11    6    7 1     
   12    7    8 ar    
   13    7   12 ar    
   14    8    9 ar    
   15    8   21 1     
   16    9   10 ar    
   17    9   13 1     
   18   10   11 ar    
   19   10   22 1     
   20   11   12 ar    
   21   11   23 1     
   22   13   14 1     
   23   13   15 1     
   24   13   16 1     
@<TRIPOS>SUBSTRUCTURE
      1 ****           1
@<TRIPOS>COMMENT
> <Gold.Version>
2022.2.0

> <Gold.Id.Protein>
1qkm|1qkm_protein|mol2

> <Gold.Protein.RotatedTorsions>
[  496  491  490  487 ] final   45.45 input  -89.99 | X-H torsion

> <Gold.Protein.ActiveResidues>
 MET295  LEU298  THR299  LEU301  ALA302  GLU305  TRP335  MET336  LEU339  MET340 
 GLY342  LEU343  ARG346  PHE356  ILE373  ILE376  PHE377  LEU380  LYS471  GLY472 
 MET473  HIS475  LEU476  LEU477  ASN478  MET479  VAL484  VAL487 

> <Gold.Protein.RotatedAtoms>
   36.4400   33.5201   42.3685 H   0  0  0  0  0  0  0  0  0  0  0  0  # atno 496  bound_to 491 

> <Gold.Score>
     Score     S(PLP)   S(hbond)     S(cho)   S(metal)  DE(clash)   DE(tors)     intcor
     47.93     -47.95       0.00       0.00       0.00       3.12       0.01       3.12

> <Gold.PLP.Fitness>
47.9305

> <Gold.PLP.PLP>
-47.9515

> <Gold.PLP.part.hbond>
0.0000

> <Gold.PLP.part.metal>
0.0000

> <Gold.PLP.part.buried>
-2.8880

> <Gold.PLP.part.nonpolar>
-45.8163

> <Gold.PLP.part.repulsive>
0.2960

> <Gold.PLP.ligand.clash>
3.1181

> <Gold.PLP.ligand.torsion>
0.0134

> <Gold.PLP.Chemscore.Hbond>
0.0000

> <Gold.PLP.Chemscore.CHOScore>
0.0000

> <Gold.PLP.Chemscore.Metal>
0.0000

> <Gold.PLP.Chemscore.Internal.Correction>
3.1238

