#       Name:                EN300-108242_i001
#       Creating user name   aseyller
#       Creation time:       Fri Apr 21 18:58:26 2023


#       File generated by GOLD software.
#

@<TRIPOS>MOLECULE
EN300-108242_i001|benzaldehydes|mol2|673|dock3
    23    24     1
SMALL
USER_CHARGES


@<TRIPOS>ATOM
      1 C1          25.5161  37.5748  39.0936 C.3            1 <1>                0.0000
      2 N2          26.8117  37.0133  39.4841 N.pl3          1 <1>                0.0000
      3 C3          27.1055  36.3864  40.6687 C.2            1 <1>                0.0000
      4 C4          26.1540  36.1660  41.7702 C.2            1 <1>                0.0000
      5 O5          25.0705  36.7097  41.7533 O.2            1 <1>                0.0000
      6 N6          28.3625  36.0134  40.6707 N.2            1 <1>                0.0000
      7 C7          28.9437  36.3688  39.5134 C.ar           1 <1>                0.0000
      8 C8          30.2405  36.2179  39.0005 C.ar           1 <1>                0.0000
      9 C9          30.5393  36.6948  37.7585 C.ar           1 <1>                0.0000
     10 C10         29.5720  37.3316  36.9898 C.ar           1 <1>                0.0000
     11 C11         28.2911  37.4928  37.4694 C.ar           1 <1>                0.0000
     12 C12         27.9616  37.0096  38.7303 C.ar           1 <1>                0.0000
     13 C13         31.9345  36.5302  37.2133 C.3            1 <1>                0.0000
     14 F14         32.7305  35.8754  38.1592 F              1 <1>                0.0000
     15 F15         31.8895  35.7732  36.0376 F              1 <1>                0.0000
     16 F16         32.4788  37.7890  36.9370 F              1 <1>                0.0000
     17 H17         25.4623  38.6171  39.4080 H              1 <1>                0.0000
     18 H18         25.4059  37.5157  38.0109 H              1 <1>                0.0000
     19 H19         24.7161  37.0093  39.5717 H              1 <1>                0.0000
     20 H20         26.4213  35.5200  42.5934 H              1 <1>                0.0000
     21 H21         31.0009  35.7254  39.5883 H              1 <1>                0.0000
     22 H22         29.8271  37.7033  36.0083 H              1 <1>                0.0000
     23 H23         27.5448  37.9889  36.8666 H              1 <1>                0.0000
@<TRIPOS>BOND
    1    1    2 1     
    2    1   17 1     
    3    1   18 1     
    4    1   19 1     
    5    2    3 1     
    6    2   12 1     
    7    3    4 1     
    8    3    6 2     
    9    4    5 2     
   10    4   20 1     
   11    6    7 1     
   12    7    8 ar    
   13    7   12 ar    
   14    8    9 ar    
   15    8   21 1     
   16    9   10 ar    
   17    9   13 1     
   18   10   11 ar    
   19   10   22 1     
   20   11   12 ar    
   21   11   23 1     
   22   13   14 1     
   23   13   15 1     
   24   13   16 1     
@<TRIPOS>SUBSTRUCTURE
      1 ****           1
@<TRIPOS>COMMENT
> <Gold.Version>
2022.2.0

> <Gold.Id.Protein>
1qkm|1qkm_protein|mol2

> <Gold.Protein.RotatedTorsions>
[  496  491  490  487 ] final  170.00 input  -89.99 | X-H torsion

> <Gold.Protein.ActiveResidues>
 MET295  LEU298  THR299  LEU301  ALA302  GLU305  TRP335  MET336  LEU339  MET340 
 GLY342  LEU343  ARG346  PHE356  ILE373  ILE376  PHE377  LEU380  LYS471  GLY472 
 MET473  HIS475  LEU476  LEU477  ASN478  MET479  VAL484  VAL487 

> <Gold.Protein.RotatedAtoms>
   37.3153   33.3257   40.9599 H   0  0  0  0  0  0  0  0  0  0  0  0  # atno 496  bound_to 491 

> <Gold.Score>
     Score     S(PLP)   S(hbond)     S(cho)   S(metal)  DE(clash)   DE(tors)     intcor
     49.08     -47.88       0.56       0.00       0.00       3.55       0.03       3.12

> <Gold.PLP.Fitness>
49.0842

> <Gold.PLP.PLP>
-47.8825

> <Gold.PLP.part.hbond>
-1.0000

> <Gold.PLP.part.metal>
0.0000

> <Gold.PLP.part.buried>
-0.2721

> <Gold.PLP.part.nonpolar>
-47.4244

> <Gold.PLP.part.repulsive>
0.5030

> <Gold.PLP.ligand.clash>
3.5526

> <Gold.PLP.ligand.torsion>
0.0253

> <Gold.PLP.Chemscore.Hbond>
0.5600

> <Gold.PLP.Chemscore.CHOScore>
0.0000

> <Gold.PLP.Chemscore.Metal>
0.0000

> <Gold.Chemscore.Hbonds>
donor molecule, donor type, donor heavy atom, donor atom, acceptor molecule, acceptor atom, score
      P1  H  1258  1270       L1     5  0.56

> <Gold.PLP.Chemscore.Internal.Correction>
3.1248

