#       Name:                EN300-108242_i001
#       Creating user name   aseyller
#       Creation time:       Fri Apr 21 18:58:28 2023


#       File generated by GOLD software.
#

@<TRIPOS>MOLECULE
EN300-108242_i001|benzaldehydes|mol2|673|dock8
    23    24     1
SMALL
USER_CHARGES


@<TRIPOS>ATOM
      1 C1          26.6093  37.2941  38.8641 C.3            1 <1>                0.0000
      2 N2          28.0437  37.0005  38.9159 N.pl3          1 <1>                0.0000
      3 C3          28.7304  36.4719  39.9797 C.2            1 <1>                0.0000
      4 C4          28.1346  36.1022  41.2742 C.2            1 <1>                0.0000
      5 O5          28.7948  35.5041  42.0967 O.2            1 <1>                0.0000
      6 N6          29.9978  36.3459  39.6683 N.2            1 <1>                0.0000
      7 C7          30.2019  36.7760  38.4126 C.ar           1 <1>                0.0000
      8 C8          31.3399  36.8624  37.5969 C.ar           1 <1>                0.0000
      9 C9          31.2317  37.3555  36.3303 C.ar           1 <1>                0.0000
     10 C10         30.0034  37.7759  35.8336 C.ar           1 <1>                0.0000
     11 C11         28.8706  37.7018  36.6133 C.ar           1 <1>                0.0000
     12 C12         28.9554  37.1971  37.9056 C.ar           1 <1>                0.0000
     13 C13         32.4580  37.4464  35.4591 C.3            1 <1>                0.0000
     14 F14         33.4409  38.1960  36.1144 F              1 <1>                0.0000
     15 F15         32.9454  36.1600  35.2042 F              1 <1>                0.0000
     16 F16         32.1263  38.0676  34.2503 F              1 <1>                0.0000
     17 H17         26.4349  38.3146  39.2049 H              1 <1>                0.0000
     18 H18         26.2534  37.1872  37.8395 H              1 <1>                0.0000
     19 H19         26.0727  36.5987  39.5096 H              1 <1>                0.0000
     20 H20         27.1095  36.3637  41.4911 H              1 <1>                0.0000
     21 H21         32.2999  36.5394  37.9716 H              1 <1>                0.0000
     22 H22         29.9369  38.1641  34.8279 H              1 <1>                0.0000
     23 H23         27.9197  38.0306  36.2208 H              1 <1>                0.0000
@<TRIPOS>BOND
    1    1    2 1     
    2    1   17 1     
    3    1   18 1     
    4    1   19 1     
    5    2    3 1     
    6    2   12 1     
    7    3    4 1     
    8    3    6 2     
    9    4    5 2     
   10    4   20 1     
   11    6    7 1     
   12    7    8 ar    
   13    7   12 ar    
   14    8    9 ar    
   15    8   21 1     
   16    9   10 ar    
   17    9   13 1     
   18   10   11 ar    
   19   10   22 1     
   20   11   12 ar    
   21   11   23 1     
   22   13   14 1     
   23   13   15 1     
   24   13   16 1     
@<TRIPOS>SUBSTRUCTURE
      1 ****           1
@<TRIPOS>COMMENT
> <Gold.Version>
2022.2.0

> <Gold.Id.Protein>
1qkm|1qkm_protein|mol2

> <Gold.Protein.RotatedTorsions>
[  496  491  490  487 ] final  -78.41 input  -89.99 | X-H torsion

> <Gold.Protein.ActiveResidues>
 MET295  LEU298  THR299  LEU301  ALA302  GLU305  TRP335  MET336  LEU339  MET340 
 GLY342  LEU343  ARG346  PHE356  ILE373  ILE376  PHE377  LEU380  LYS471  GLY472 
 MET473  HIS475  LEU476  LEU477  ASN478  MET479  VAL484  VAL487 

> <Gold.Protein.RotatedAtoms>
   36.6516   34.7122   41.2264 H   0  0  0  0  0  0  0  0  0  0  0  0  # atno 496  bound_to 491 

> <Gold.Score>
     Score     S(PLP)   S(hbond)     S(cho)   S(metal)  DE(clash)   DE(tors)     intcor
     47.47     -47.55       0.00       0.00       0.00       3.07       0.07       3.12

> <Gold.PLP.Fitness>
47.4712

> <Gold.PLP.PLP>
-47.5519

> <Gold.PLP.part.hbond>
-0.9318

> <Gold.PLP.part.metal>
0.0000

> <Gold.PLP.part.buried>
-4.1737

> <Gold.PLP.part.nonpolar>
-43.9385

> <Gold.PLP.part.repulsive>
0.9022

> <Gold.PLP.ligand.clash>
3.0659

> <Gold.PLP.ligand.torsion>
0.0693

> <Gold.PLP.Chemscore.Hbond>
0.0000

> <Gold.PLP.Chemscore.CHOScore>
0.0000

> <Gold.PLP.Chemscore.Metal>
0.0000

> <Gold.PLP.Chemscore.Internal.Correction>
3.1238

