#       Name:                EN300-108242_i001
#       Creating user name   aseyller
#       Creation time:       Fri Apr 21 18:58:31 2023


#       File generated by GOLD software.
#

@<TRIPOS>MOLECULE
EN300-108242_i001|benzaldehydes|mol2|673|dock14
    23    24     1
SMALL
USER_CHARGES


@<TRIPOS>ATOM
      1 C1          28.6385  35.7892  40.4389 C.3            1 <1>                0.0000
      2 N2          28.6720  36.5299  39.1754 N.pl3          1 <1>                0.0000
      3 C3          27.6235  37.1948  38.5914 C.2            1 <1>                0.0000
      4 C4          26.2611  37.2802  39.1426 C.2            1 <1>                0.0000
      5 O5          26.0010  36.7496  40.2013 O.2            1 <1>                0.0000
      6 N6          28.0191  37.7426  37.4677 N.2            1 <1>                0.0000
      7 C7          29.3181  37.4708  37.2625 C.ar           1 <1>                0.0000
      8 C8          30.2225  37.8032  36.2431 C.ar           1 <1>                0.0000
      9 C9          31.5138  37.3709  36.3133 C.ar           1 <1>                0.0000
     10 C10         31.9486  36.6014  37.3862 C.ar           1 <1>                0.0000
     11 C11         31.0813  36.2610  38.4003 C.ar           1 <1>                0.0000
     12 C12         29.7618  36.6953  38.3535 C.ar           1 <1>                0.0000
     13 C13         32.4805  37.7308  35.2147 C.3            1 <1>                0.0000
     14 F14         33.4230  36.7072  35.0691 F              1 <1>                0.0000
     15 F15         31.7816  37.8954  34.0139 F              1 <1>                0.0000
     16 F16         33.1343  38.9237  35.5411 F              1 <1>                0.0000
     17 H17         28.3714  34.7505  40.2441 H              1 <1>                0.0000
     18 H18         29.6206  35.8297  40.9100 H              1 <1>                0.0000
     19 H19         27.8984  36.2364  41.1026 H              1 <1>                0.0000
     20 H20         25.4932  37.8155  38.6038 H              1 <1>                0.0000
     21 H21         29.8967  38.4001  35.4041 H              1 <1>                0.0000
     22 H22         32.9751  36.2676  37.4247 H              1 <1>                0.0000
     23 H23         31.4261  35.6626  39.2307 H              1 <1>                0.0000
@<TRIPOS>BOND
    1    1    2 1     
    2    1   17 1     
    3    1   18 1     
    4    1   19 1     
    5    2    3 1     
    6    2   12 1     
    7    3    4 1     
    8    3    6 2     
    9    4    5 2     
   10    4   20 1     
   11    6    7 1     
   12    7    8 ar    
   13    7   12 ar    
   14    8    9 ar    
   15    8   21 1     
   16    9   10 ar    
   17    9   13 1     
   18   10   11 ar    
   19   10   22 1     
   20   11   12 ar    
   21   11   23 1     
   22   13   14 1     
   23   13   15 1     
   24   13   16 1     
@<TRIPOS>SUBSTRUCTURE
      1 ****           1
@<TRIPOS>COMMENT
> <Gold.Version>
2022.2.0

> <Gold.Id.Protein>
1qkm|1qkm_protein|mol2

> <Gold.Protein.RotatedTorsions>
[  496  491  490  487 ] final   32.30 input  -89.99 | X-H torsion

> <Gold.Protein.ActiveResidues>
 MET295  LEU298  THR299  LEU301  ALA302  GLU305  TRP335  MET336  LEU339  MET340 
 GLY342  LEU343  ARG346  PHE356  ILE373  ILE376  PHE377  LEU380  LYS471  GLY472 
 MET473  HIS475  LEU476  LEU477  ASN478  MET479  VAL484  VAL487 

> <Gold.Protein.RotatedAtoms>
   36.3584   33.7196   42.3826 H   0  0  0  0  0  0  0  0  0  0  0  0  # atno 496  bound_to 491 

> <Gold.Score>
     Score     S(PLP)   S(hbond)     S(cho)   S(metal)  DE(clash)   DE(tors)     intcor
     47.18     -47.37       0.00       0.00       0.00       1.07       1.12       3.12

> <Gold.PLP.Fitness>
47.1789

> <Gold.PLP.PLP>
-47.3675

> <Gold.PLP.part.hbond>
0.0000

> <Gold.PLP.part.metal>
0.0000

> <Gold.PLP.part.buried>
-4.3459

> <Gold.PLP.part.nonpolar>
-43.4594

> <Gold.PLP.part.repulsive>
0.1152

> <Gold.PLP.ligand.clash>
1.0723

> <Gold.PLP.ligand.torsion>
1.1200

> <Gold.PLP.Chemscore.Hbond>
0.0000

> <Gold.PLP.Chemscore.CHOScore>
0.0000

> <Gold.PLP.Chemscore.Metal>
0.0000

> <Gold.PLP.Chemscore.Internal.Correction>
3.1238

