#       Name:                EN300-108242_i001
#       Creating user name   aseyller
#       Creation time:       Fri Apr 21 18:58:32 2023


#       File generated by GOLD software.
#

@<TRIPOS>MOLECULE
EN300-108242_i001|benzaldehydes|mol2|673|dock17
    23    24     1
SMALL
USER_CHARGES


@<TRIPOS>ATOM
      1 C1          25.8980  37.8309  38.8278 C.3            1 <1>                0.0000
      2 N2          27.2489  37.2641  38.8305 N.pl3          1 <1>                0.0000
      3 C3          27.7555  36.3673  39.7370 C.2            1 <1>                0.0000
      4 C4          27.0170  35.8105  40.8823 C.2            1 <1>                0.0000
      5 O5          25.9421  36.2761  41.1949 O.2            1 <1>                0.0000
      6 N6          28.9974  36.0816  39.4283 N.2            1 <1>                0.0000
      7 C7          29.3600  36.7613  38.3283 C.ar           1 <1>                0.0000
      8 C8          30.5471  36.8268  37.5840 C.ar           1 <1>                0.0000
      9 C9          30.6154  37.6290  36.4836 C.ar           1 <1>                0.0000
     10 C10         29.5195  38.3868  36.0871 C.ar           1 <1>                0.0000
     11 C11         28.3421  38.3409  36.8000 C.ar           1 <1>                0.0000
     12 C12         28.2470  37.5257  37.9218 C.ar           1 <1>                0.0000
     13 C13         31.8938  37.6955  35.6884 C.3            1 <1>                0.0000
     14 F14         32.9192  38.1998  36.4955 F              1 <1>                0.0000
     15 F15         32.2358  36.4126  35.2472 F              1 <1>                0.0000
     16 F16         31.7132  38.5357  34.5845 F              1 <1>                0.0000
     17 H17         25.8882  38.7494  39.4146 H              1 <1>                0.0000
     18 H18         25.5984  38.0511  37.8032 H              1 <1>                0.0000
     19 H19         25.2023  37.1138  39.2637 H              1 <1>                0.0000
     20 H20         27.4329  34.9872  41.4442 H              1 <1>                0.0000
     21 H21         31.4055  36.2432  37.8821 H              1 <1>                0.0000
     22 H22         29.5921  39.0169  35.2129 H              1 <1>                0.0000
     23 H23         27.4948  38.9327  36.4862 H              1 <1>                0.0000
@<TRIPOS>BOND
    1    1    2 1     
    2    1   17 1     
    3    1   18 1     
    4    1   19 1     
    5    2    3 1     
    6    2   12 1     
    7    3    4 1     
    8    3    6 2     
    9    4    5 2     
   10    4   20 1     
   11    6    7 1     
   12    7    8 ar    
   13    7   12 ar    
   14    8    9 ar    
   15    8   21 1     
   16    9   10 ar    
   17    9   13 1     
   18   10   11 ar    
   19   10   22 1     
   20   11   12 ar    
   21   11   23 1     
   22   13   14 1     
   23   13   15 1     
   24   13   16 1     
@<TRIPOS>SUBSTRUCTURE
      1 ****           1
@<TRIPOS>COMMENT
> <Gold.Version>
2022.2.0

> <Gold.Id.Protein>
1qkm|1qkm_protein|mol2

> <Gold.Protein.RotatedTorsions>
[  496  491  490  487 ] final   98.37 input  -89.99 | X-H torsion

> <Gold.Protein.ActiveResidues>
 MET295  LEU298  THR299  LEU301  ALA302  GLU305  TRP335  MET336  LEU339  MET340 
 GLY342  LEU343  ARG346  PHE356  ILE373  ILE376  PHE377  LEU380  LYS471  GLY472 
 MET473  HIS475  LEU476  LEU477  ASN478  MET479  VAL484  VAL487 

> <Gold.Protein.RotatedAtoms>
   36.8969   32.9759   41.9196 H   0  0  0  0  0  0  0  0  0  0  0  0  # atno 496  bound_to 491 

> <Gold.Score>
     Score     S(PLP)   S(hbond)     S(cho)   S(metal)  DE(clash)   DE(tors)     intcor
     45.70     -45.77       0.00       0.00       0.00       3.11       0.04       3.12

> <Gold.PLP.Fitness>
45.7033

> <Gold.PLP.PLP>
-45.7695

> <Gold.PLP.part.hbond>
0.0000

> <Gold.PLP.part.metal>
0.0000

> <Gold.PLP.part.buried>
-3.6557

> <Gold.PLP.part.nonpolar>
-42.1756

> <Gold.PLP.part.repulsive>
0.3988

> <Gold.PLP.ligand.clash>
3.1074

> <Gold.PLP.ligand.torsion>
0.0413

> <Gold.PLP.Chemscore.Hbond>
0.0000

> <Gold.PLP.Chemscore.CHOScore>
0.0000

> <Gold.PLP.Chemscore.Metal>
0.0000

> <Gold.PLP.Chemscore.Internal.Correction>
3.1238

