#       Name:                EN300-108242_i001
#       Creating user name   aseyller
#       Creation time:       Fri Apr 21 18:58:32 2023


#       File generated by GOLD software.
#

@<TRIPOS>MOLECULE
EN300-108242_i001|benzaldehydes|mol2|673|dock16
    23    24     1
SMALL
USER_CHARGES


@<TRIPOS>ATOM
      1 C1          31.4936  38.6652  34.6901 C.3            1 <1>                0.0000
      2 N2          31.3189  37.6878  35.7674 N.pl3          1 <1>                0.0000
      3 C3          32.2026  36.7008  36.1246 C.2            1 <1>                0.0000
      4 C4          33.5002  36.4492  35.4765 C.2            1 <1>                0.0000
      5 O5          33.6487  36.6994  34.2995 O.2            1 <1>                0.0000
      6 N6          31.7157  36.0155  37.1308 N.2            1 <1>                0.0000
      7 C7          30.5149  36.5075  37.4768 C.ar           1 <1>                0.0000
      8 C8          29.5793  36.1603  38.4625 C.ar           1 <1>                0.0000
      9 C9          28.4174  36.8651  38.5743 C.ar           1 <1>                0.0000
     10 C10         28.1458  37.9281  37.7208 C.ar           1 <1>                0.0000
     11 C11         29.0473  38.2899  36.7445 C.ar           1 <1>                0.0000
     12 C12         30.2412  37.5898  36.6154 C.ar           1 <1>                0.0000
     13 C13         27.4159  36.4868  39.6349 C.3            1 <1>                0.0000
     14 F14         26.2955  37.3188  39.5361 F              1 <1>                0.0000
     15 F15         27.0255  35.1555  39.4542 F              1 <1>                0.0000
     16 F16         27.9968  36.6351  40.8989 F              1 <1>                0.0000
     17 H17         31.0825  38.2628  33.7643 H              1 <1>                0.0000
     18 H18         30.9730  39.5874  34.9483 H              1 <1>                0.0000
     19 H19         32.5553  38.8726  34.5564 H              1 <1>                0.0000
     20 H20         34.3199  36.0416  36.0495 H              1 <1>                0.0000
     21 H21         29.7786  35.3361  39.1313 H              1 <1>                0.0000
     22 H22         27.2200  38.4748  37.8240 H              1 <1>                0.0000
     23 H23         28.8294  39.1167  36.0848 H              1 <1>                0.0000
@<TRIPOS>BOND
    1    1    2 1     
    2    1   17 1     
    3    1   18 1     
    4    1   19 1     
    5    2    3 1     
    6    2   12 1     
    7    3    4 1     
    8    3    6 2     
    9    4    5 2     
   10    4   20 1     
   11    6    7 1     
   12    7    8 ar    
   13    7   12 ar    
   14    8    9 ar    
   15    8   21 1     
   16    9   10 ar    
   17    9   13 1     
   18   10   11 ar    
   19   10   22 1     
   20   11   12 ar    
   21   11   23 1     
   22   13   14 1     
   23   13   15 1     
   24   13   16 1     
@<TRIPOS>SUBSTRUCTURE
      1 ****           1
@<TRIPOS>COMMENT
> <Gold.Version>
2022.2.0

> <Gold.Id.Protein>
1qkm|1qkm_protein|mol2

> <Gold.Protein.RotatedTorsions>
[  496  491  490  487 ] final  -20.49 input  -89.99 | X-H torsion

> <Gold.Protein.ActiveResidues>
 MET295  LEU298  THR299  LEU301  ALA302  GLU305  TRP335  MET336  LEU339  MET340 
 GLY342  LEU343  ARG346  PHE356  ILE373  ILE376  PHE377  LEU380  LYS471  GLY472 
 MET473  HIS475  LEU476  LEU477  ASN478  MET479  VAL484  VAL487 

> <Gold.Protein.RotatedAtoms>
   36.2822   34.4754   42.0273 H   0  0  0  0  0  0  0  0  0  0  0  0  # atno 496  bound_to 491 

> <Gold.Score>
     Score     S(PLP)   S(hbond)     S(cho)   S(metal)  DE(clash)   DE(tors)     intcor
     45.98     -46.38       0.00       0.00       0.00       3.12       0.20       3.12

> <Gold.PLP.Fitness>
45.9836

> <Gold.PLP.PLP>
-46.3829

> <Gold.PLP.part.hbond>
-0.3844

> <Gold.PLP.part.metal>
0.0000

> <Gold.PLP.part.buried>
-4.2121

> <Gold.PLP.part.nonpolar>
-43.2388

> <Gold.PLP.part.repulsive>
1.3505

> <Gold.PLP.ligand.clash>
3.1211

> <Gold.PLP.ligand.torsion>
0.2010

> <Gold.PLP.Chemscore.Hbond>
0.0000

> <Gold.PLP.Chemscore.CHOScore>
0.0000

> <Gold.PLP.Chemscore.Metal>
0.0000

> <Gold.PLP.Chemscore.Internal.Correction>
3.1238

