#       Name:                EN300-108242_i001
#       Creating user name   aseyller
#       Creation time:       Fri Apr 21 18:58:28 2023


#       File generated by GOLD software.
#

@<TRIPOS>MOLECULE
EN300-108242_i001|benzaldehydes|mol2|673|dock9
    23    24     1
SMALL
USER_CHARGES


@<TRIPOS>ATOM
      1 C1          30.1104  38.4499  34.9235 C.3            1 <1>                0.0000
      2 N2          30.4207  37.7190  36.1547 N.pl3          1 <1>                0.0000
      3 C3          31.6214  37.1393  36.4788 C.2            1 <1>                0.0000
      4 C4          32.8251  37.1518  35.6313 C.2            1 <1>                0.0000
      5 O5          32.7934  37.6806  34.5408 O.2            1 <1>                0.0000
      6 N6          31.5339  36.5724  37.6578 N.2            1 <1>                0.0000
      7 C7          30.2990  36.7478  38.1556 C.ar           1 <1>                0.0000
      8 C8          29.6780  36.3579  39.3515 C.ar           1 <1>                0.0000
      9 C9          28.3764  36.6928  39.5814 C.ar           1 <1>                0.0000
     10 C10         27.6526  37.4187  38.6426 C.ar           1 <1>                0.0000
     11 C11         28.2381  37.8141  37.4605 C.ar           1 <1>                0.0000
     12 C12         29.5656  37.4894  37.2066 C.ar           1 <1>                0.0000
     13 C13         27.7148  36.2704  40.8678 C.3            1 <1>                0.0000
     14 F14         26.4410  36.8435  40.9469 F              1 <1>                0.0000
     15 F15         27.6016  34.8762  40.8982 F              1 <1>                0.0000
     16 F16         28.4873  36.6994  41.9523 F              1 <1>                0.0000
     17 H17         29.7299  37.7552  34.1748 H              1 <1>                0.0000
     18 H18         29.3563  39.2088  35.1318 H              1 <1>                0.0000
     19 H19         31.0145  38.9295  34.5481 H              1 <1>                0.0000
     20 H20         33.7364  36.6897  35.9811 H              1 <1>                0.0000
     21 H21         30.2297  35.7932  40.0884 H              1 <1>                0.0000
     22 H22         26.6224  37.6746  38.8418 H              1 <1>                0.0000
     23 H23         27.6695  38.3776  36.7355 H              1 <1>                0.0000
@<TRIPOS>BOND
    1    1    2 1     
    2    1   17 1     
    3    1   18 1     
    4    1   19 1     
    5    2    3 1     
    6    2   12 1     
    7    3    4 1     
    8    3    6 2     
    9    4    5 2     
   10    4   20 1     
   11    6    7 1     
   12    7    8 ar    
   13    7   12 ar    
   14    8    9 ar    
   15    8   21 1     
   16    9   10 ar    
   17    9   13 1     
   18   10   11 ar    
   19   10   22 1     
   20   11   12 ar    
   21   11   23 1     
   22   13   14 1     
   23   13   15 1     
   24   13   16 1     
@<TRIPOS>SUBSTRUCTURE
      1 ****           1
@<TRIPOS>COMMENT
> <Gold.Version>
2022.2.0

> <Gold.Id.Protein>
1qkm|1qkm_protein|mol2

> <Gold.Protein.RotatedTorsions>
[  496  491  490  487 ] final  -75.88 input  -89.99 | X-H torsion

> <Gold.Protein.ActiveResidues>
 MET295  LEU298  THR299  LEU301  ALA302  GLU305  TRP335  MET336  LEU339  MET340 
 GLY342  LEU343  ARG346  PHE356  ILE373  ILE376  PHE377  LEU380  LYS471  GLY472 
 MET473  HIS475  LEU476  LEU477  ASN478  MET479  VAL484  VAL487 

> <Gold.Protein.RotatedAtoms>
   36.6292   34.7204   41.2604 H   0  0  0  0  0  0  0  0  0  0  0  0  # atno 496  bound_to 491 

> <Gold.Score>
     Score     S(PLP)   S(hbond)     S(cho)   S(metal)  DE(clash)   DE(tors)     intcor
     48.27     -48.39       0.00       0.00       0.00       3.00       0.12       3.12

> <Gold.PLP.Fitness>
48.2729

> <Gold.PLP.PLP>
-48.3927

> <Gold.PLP.part.hbond>
0.0000

> <Gold.PLP.part.metal>
0.0000

> <Gold.PLP.part.buried>
-3.8277

> <Gold.PLP.part.nonpolar>
-44.7809

> <Gold.PLP.part.repulsive>
0.1763

> <Gold.PLP.ligand.clash>
2.9983

> <Gold.PLP.ligand.torsion>
0.1227

> <Gold.PLP.Chemscore.Hbond>
0.0000

> <Gold.PLP.Chemscore.CHOScore>
0.0000

> <Gold.PLP.Chemscore.Metal>
0.0000

> <Gold.PLP.Chemscore.Internal.Correction>
3.1238

