#       Name:                EN300-108242_i001
#       Creating user name   aseyller
#       Creation time:       Fri Apr 21 18:58:27 2023


#       File generated by GOLD software.
#

@<TRIPOS>MOLECULE
EN300-108242_i001|benzaldehydes|mol2|673|dock7
    23    24     1
SMALL
USER_CHARGES


@<TRIPOS>ATOM
      1 C1          32.6753  35.7323  35.7389 C.3            1 <1>                0.0000
      2 N2          31.6232  36.5564  36.3392 N.pl3          1 <1>                0.0000
      3 C3          31.1802  37.7727  35.8841 C.2            1 <1>                0.0000
      4 C4          31.6939  38.4711  34.6943 C.2            1 <1>                0.0000
      5 O5          32.5065  37.9286  33.9765 O.2            1 <1>                0.0000
      6 N6          30.2299  38.2184  36.6698 N.2            1 <1>                0.0000
      7 C7          30.0065  37.3368  37.6579 C.ar           1 <1>                0.0000
      8 C8          29.1214  37.3130  38.7458 C.ar           1 <1>                0.0000
      9 C9          29.1266  36.2521  39.6025 C.ar           1 <1>                0.0000
     10 C10         30.0011  35.1886  39.4117 C.ar           1 <1>                0.0000
     11 C11         30.8802  35.1868  38.3516 C.ar           1 <1>                0.0000
     12 C12         30.8890  36.2546  37.4618 C.ar           1 <1>                0.0000
     13 C13         28.1737  36.2328  40.7698 C.3            1 <1>                0.0000
     14 F14         28.7451  36.9149  41.8494 F              1 <1>                0.0000
     15 F15         26.9762  36.8572  40.4047 F              1 <1>                0.0000
     16 F16         27.9154  34.9084  41.1390 F              1 <1>                0.0000
     17 H17         33.6388  36.0012  36.1718 H              1 <1>                0.0000
     18 H18         32.4693  34.6802  35.9358 H              1 <1>                0.0000
     19 H19         32.7002  35.9024  34.6625 H              1 <1>                0.0000
     20 H20         31.3469  39.4669  34.4611 H              1 <1>                0.0000
     21 H21         28.4374  38.1335  38.9049 H              1 <1>                0.0000
     22 H22         29.9912  34.3569  40.1007 H              1 <1>                0.0000
     23 H23         31.5570  34.3572  38.2099 H              1 <1>                0.0000
@<TRIPOS>BOND
    1    1    2 1     
    2    1   17 1     
    3    1   18 1     
    4    1   19 1     
    5    2    3 1     
    6    2   12 1     
    7    3    4 1     
    8    3    6 2     
    9    4    5 2     
   10    4   20 1     
   11    6    7 1     
   12    7    8 ar    
   13    7   12 ar    
   14    8    9 ar    
   15    8   21 1     
   16    9   10 ar    
   17    9   13 1     
   18   10   11 ar    
   19   10   22 1     
   20   11   12 ar    
   21   11   23 1     
   22   13   14 1     
   23   13   15 1     
   24   13   16 1     
@<TRIPOS>SUBSTRUCTURE
      1 ****           1
@<TRIPOS>COMMENT
> <Gold.Version>
2022.2.0

> <Gold.Id.Protein>
1qkm|1qkm_protein|mol2

> <Gold.Protein.RotatedTorsions>
[  496  491  490  487 ] final  -95.14 input  -89.99 | X-H torsion

> <Gold.Protein.ActiveResidues>
 MET295  LEU298  THR299  LEU301  ALA302  GLU305  TRP335  MET336  LEU339  MET340 
 GLY342  LEU343  ARG346  PHE356  ILE373  ILE376  PHE377  LEU380  LYS471  GLY472 
 MET473  HIS475  LEU476  LEU477  ASN478  MET479  VAL484  VAL487 

> <Gold.Protein.RotatedAtoms>
   36.8049   34.6163   41.0198 H   0  0  0  0  0  0  0  0  0  0  0  0  # atno 496  bound_to 491 

> <Gold.Score>
     Score     S(PLP)   S(hbond)     S(cho)   S(metal)  DE(clash)   DE(tors)     intcor
     49.01     -49.06       0.00       0.00       0.00       1.00       1.08       3.12

> <Gold.PLP.Fitness>
49.0139

> <Gold.PLP.PLP>
-49.0562

> <Gold.PLP.part.hbond>
0.0000

> <Gold.PLP.part.metal>
0.0000

> <Gold.PLP.part.buried>
-3.2881

> <Gold.PLP.part.nonpolar>
-46.5735

> <Gold.PLP.part.repulsive>
0.1774

> <Gold.PLP.ligand.clash>
0.9996

> <Gold.PLP.ligand.torsion>
1.0833

> <Gold.PLP.Chemscore.Hbond>
0.0000

> <Gold.PLP.Chemscore.CHOScore>
0.0000

> <Gold.PLP.Chemscore.Metal>
0.0000

> <Gold.PLP.Chemscore.Internal.Correction>
3.1238

