#       Name:                EN300-108242_i001
#       Creating user name   aseyller
#       Creation time:       Fri Apr 21 18:58:29 2023


#       File generated by GOLD software.
#

@<TRIPOS>MOLECULE
EN300-108242_i001|benzaldehydes|mol2|673|dock11
    23    24     1
SMALL
USER_CHARGES


@<TRIPOS>ATOM
      1 C1          27.9542  35.7896  41.1631 C.3            1 <1>                0.0000
      2 N2          28.1967  36.2807  39.8043 N.pl3          1 <1>                0.0000
      3 C3          27.2853  36.8981  38.9852 C.2            1 <1>                0.0000
      4 C4          25.8833  37.1785  39.3361 C.2            1 <1>                0.0000
      5 O5          25.5007  37.0222  40.4759 O.2            1 <1>                0.0000
      6 N6          27.8527  37.2005  37.8425 N.2            1 <1>                0.0000
      7 C7          29.1362  36.8055  37.8540 C.ar           1 <1>                0.0000
      8 C8          30.1757  36.8805  36.9151 C.ar           1 <1>                0.0000
      9 C9          31.4060  36.3794  37.2226 C.ar           1 <1>                0.0000
     10 C10         31.6457  35.7924  38.4596 C.ar           1 <1>                0.0000
     11 C11         30.6428  35.7060  39.3995 C.ar           1 <1>                0.0000
     12 C12         29.3821  36.2153  39.1108 C.ar           1 <1>                0.0000
     13 C13         32.5184  36.4624  36.2094 C.3            1 <1>                0.0000
     14 F14         33.6494  35.8037  36.7037 F              1 <1>                0.0000
     15 F15         32.1094  35.8556  35.0169 F              1 <1>                0.0000
     16 F16         32.8293  37.8047  35.9669 F              1 <1>                0.0000
     17 H17         27.6168  34.7541  41.1203 H              1 <1>                0.0000
     18 H18         28.8770  35.8476  41.7404 H              1 <1>                0.0000
     19 H19         27.1886  36.4020  41.6395 H              1 <1>                0.0000
     20 H20         25.1957  37.5233  38.5780 H              1 <1>                0.0000
     21 H21         30.0017  37.3338  35.9504 H              1 <1>                0.0000
     22 H22         32.6265  35.4006  38.6854 H              1 <1>                0.0000
     23 H23         30.8363  35.2483  40.3584 H              1 <1>                0.0000
@<TRIPOS>BOND
    1    1    2 1     
    2    1   17 1     
    3    1   18 1     
    4    1   19 1     
    5    2    3 1     
    6    2   12 1     
    7    3    4 1     
    8    3    6 2     
    9    4    5 2     
   10    4   20 1     
   11    6    7 1     
   12    7    8 ar    
   13    7   12 ar    
   14    8    9 ar    
   15    8   21 1     
   16    9   10 ar    
   17    9   13 1     
   18   10   11 ar    
   19   10   22 1     
   20   11   12 ar    
   21   11   23 1     
   22   13   14 1     
   23   13   15 1     
   24   13   16 1     
@<TRIPOS>SUBSTRUCTURE
      1 ****           1
@<TRIPOS>COMMENT
> <Gold.Version>
2022.2.0

> <Gold.Id.Protein>
1qkm|1qkm_protein|mol2

> <Gold.Protein.RotatedTorsions>
[  496  491  490  487 ] final   69.40 input  -89.99 | X-H torsion

> <Gold.Protein.ActiveResidues>
 MET295  LEU298  THR299  LEU301  ALA302  GLU305  TRP335  MET336  LEU339  MET340 
 GLY342  LEU343  ARG346  PHE356  ILE373  ILE376  PHE377  LEU380  LYS471  GLY472 
 MET473  HIS475  LEU476  LEU477  ASN478  MET479  VAL484  VAL487 

> <Gold.Protein.RotatedAtoms>
   36.6321   33.2064   42.2348 H   0  0  0  0  0  0  0  0  0  0  0  0  # atno 496  bound_to 491 

> <Gold.Score>
     Score     S(PLP)   S(hbond)     S(cho)   S(metal)  DE(clash)   DE(tors)     intcor
     48.83     -48.92       0.00       0.00       0.00       3.07       0.07       3.12

> <Gold.PLP.Fitness>
48.8252

> <Gold.PLP.PLP>
-48.9230

> <Gold.PLP.part.hbond>
0.0000

> <Gold.PLP.part.metal>
0.0000

> <Gold.PLP.part.buried>
-1.0569

> <Gold.PLP.part.nonpolar>
-48.5869

> <Gold.PLP.part.repulsive>
0.1364

> <Gold.PLP.ligand.clash>
3.0717

> <Gold.PLP.ligand.torsion>
0.0750

> <Gold.PLP.Chemscore.Hbond>
0.0000

> <Gold.PLP.Chemscore.CHOScore>
0.0000

> <Gold.PLP.Chemscore.Metal>
0.0000

> <Gold.PLP.Chemscore.Internal.Correction>
3.1238

