#       Name:                EN300-108242_i001
#       Creating user name   aseyller
#       Creation time:       Fri Apr 21 18:58:30 2023


#       File generated by GOLD software.
#

@<TRIPOS>MOLECULE
EN300-108242_i001|benzaldehydes|mol2|673|dock13
    23    24     1
SMALL
USER_CHARGES


@<TRIPOS>ATOM
      1 C1          33.0368  36.5409  37.7899 C.3            1 <1>                0.0000
      2 N2          31.6982  37.0069  37.4192 N.pl3          1 <1>                0.0000
      3 C3          31.3666  37.7298  36.3011 C.2            1 <1>                0.0000
      4 C4          32.3141  38.1693  35.2637 C.2            1 <1>                0.0000
      5 O5          31.9140  38.7849  34.2988 O.2            1 <1>                0.0000
      6 N6          30.0776  37.9697  36.2970 N.2            1 <1>                0.0000
      7 C7          29.5112  37.4284  37.3877 C.ar           1 <1>                0.0000
      8 C8          28.1942  37.3856  37.8687 C.ar           1 <1>                0.0000
      9 C9          27.9193  36.7426  39.0393 C.ar           1 <1>                0.0000
     10 C10         28.9310  36.1259  39.7663 C.ar           1 <1>                0.0000
     11 C11         30.2324  36.1530  39.3166 C.ar           1 <1>                0.0000
     12 C12         30.5358  36.7974  38.1229 C.ar           1 <1>                0.0000
     13 C13         26.5026  36.7005  39.5511 C.3            1 <1>                0.0000
     14 F14         26.5123  36.6883  40.9500 F              1 <1>                0.0000
     15 F15         25.8099  37.8291  39.0995 F              1 <1>                0.0000
     16 F16         25.8703  35.5453  39.0791 F              1 <1>                0.0000
     17 H17         33.5295  37.2987  38.3991 H              1 <1>                0.0000
     18 H18         32.9545  35.6146  38.3583 H              1 <1>                0.0000
     19 H19         33.6222  36.3629  36.8878 H              1 <1>                0.0000
     20 H20         33.3656  37.9432  35.3621 H              1 <1>                0.0000
     21 H21         27.3996  37.8613  37.3132 H              1 <1>                0.0000
     22 H22         28.6945  35.6216  40.6916 H              1 <1>                0.0000
     23 H23         31.0133  35.6721  39.8869 H              1 <1>                0.0000
@<TRIPOS>BOND
    1    1    2 1     
    2    1   17 1     
    3    1   18 1     
    4    1   19 1     
    5    2    3 1     
    6    2   12 1     
    7    3    4 1     
    8    3    6 2     
    9    4    5 2     
   10    4   20 1     
   11    6    7 1     
   12    7    8 ar    
   13    7   12 ar    
   14    8    9 ar    
   15    8   21 1     
   16    9   10 ar    
   17    9   13 1     
   18   10   11 ar    
   19   10   22 1     
   20   11   12 ar    
   21   11   23 1     
   22   13   14 1     
   23   13   15 1     
   24   13   16 1     
@<TRIPOS>SUBSTRUCTURE
      1 ****           1
@<TRIPOS>COMMENT
> <Gold.Version>
2022.2.0

> <Gold.Id.Protein>
1qkm|1qkm_protein|mol2

> <Gold.Protein.RotatedTorsions>
[  496  491  490  487 ] final   58.15 input  -89.99 | X-H torsion

> <Gold.Protein.ActiveResidues>
 MET295  LEU298  THR299  LEU301  ALA302  GLU305  TRP335  MET336  LEU339  MET340 
 GLY342  LEU343  ARG346  PHE356  ILE373  ILE376  PHE377  LEU380  LYS471  GLY472 
 MET473  HIS475  LEU476  LEU477  ASN478  MET479  VAL484  VAL487 

> <Gold.Protein.RotatedAtoms>
   36.5363   33.3432   42.3142 H   0  0  0  0  0  0  0  0  0  0  0  0  # atno 496  bound_to 491 

> <Gold.Score>
     Score     S(PLP)   S(hbond)     S(cho)   S(metal)  DE(clash)   DE(tors)     intcor
     45.60     -45.80       0.00       0.00       0.00       1.10       1.12       3.12

> <Gold.PLP.Fitness>
45.6010

> <Gold.PLP.PLP>
-45.8047

> <Gold.PLP.part.hbond>
0.0000

> <Gold.PLP.part.metal>
0.0000

> <Gold.PLP.part.buried>
-2.8459

> <Gold.PLP.part.nonpolar>
-43.2151

> <Gold.PLP.part.repulsive>
0.0962

> <Gold.PLP.ligand.clash>
1.0963

> <Gold.PLP.ligand.torsion>
1.1156

> <Gold.PLP.Chemscore.Hbond>
0.0000

> <Gold.PLP.Chemscore.CHOScore>
0.0000

> <Gold.PLP.Chemscore.Metal>
0.0000

> <Gold.PLP.Chemscore.Internal.Correction>
3.1238

