#       Name:                EN300-108242_i001
#       Creating user name   aseyller
#       Creation time:       Fri Apr 21 18:58:25 2023


#       File generated by GOLD software.
#

@<TRIPOS>MOLECULE
EN300-108242_i001|benzaldehydes|mol2|673|dock2
    23    24     1
SMALL
USER_CHARGES


@<TRIPOS>ATOM
      1 C1          28.1972  35.5668  41.4143 C.3            1 <1>                0.0000
      2 N2          27.9297  36.3920  40.2337 N.pl3          1 <1>                0.0000
      3 C3          26.7196  36.9260  39.8687 C.2            1 <1>                0.0000
      4 C4          25.4602  36.7593  40.6126 C.2            1 <1>                0.0000
      5 O5          25.4143  37.0263  41.7944 O.2            1 <1>                0.0000
      6 N6          26.8552  37.6073  38.7567 N.2            1 <1>                0.0000
      7 C7          28.1326  37.5558  38.3453 C.ar           1 <1>                0.0000
      8 C8          28.8124  38.0965  37.2438 C.ar           1 <1>                0.0000
      9 C9          30.1475  37.8659  37.0899 C.ar           1 <1>                0.0000
     10 C10         30.8476  37.0988  38.0137 C.ar           1 <1>                0.0000
     11 C11         30.2044  36.5563  39.1039 C.ar           1 <1>                0.0000
     12 C12         28.8450  36.7827  39.2850 C.ar           1 <1>                0.0000
     13 C13         30.8721  38.4490  35.9042 C.3            1 <1>                0.0000
     14 F14         32.2426  38.1949  36.0242 F              1 <1>                0.0000
     15 F15         30.3904  37.8628  34.7287 F              1 <1>                0.0000
     16 F16         30.6563  39.8305  35.8589 F              1 <1>                0.0000
     17 H17         28.0545  34.5158  41.1628 H              1 <1>                0.0000
     18 H18         29.2241  35.7256  41.7434 H              1 <1>                0.0000
     19 H19         27.5118  35.8452  42.2149 H              1 <1>                0.0000
     20 H20         24.5773  36.3990  40.1056 H              1 <1>                0.0000
     21 H21         28.2794  38.6938  36.5190 H              1 <1>                0.0000
     22 H22         31.9049  36.9265  37.8752 H              1 <1>                0.0000
     23 H23         30.7548  35.9610  39.8175 H              1 <1>                0.0000
@<TRIPOS>BOND
    1    1    2 1     
    2    1   17 1     
    3    1   18 1     
    4    1   19 1     
    5    2    3 1     
    6    2   12 1     
    7    3    4 1     
    8    3    6 2     
    9    4    5 2     
   10    4   20 1     
   11    6    7 1     
   12    7    8 ar    
   13    7   12 ar    
   14    8    9 ar    
   15    8   21 1     
   16    9   10 ar    
   17    9   13 1     
   18   10   11 ar    
   19   10   22 1     
   20   11   12 ar    
   21   11   23 1     
   22   13   14 1     
   23   13   15 1     
   24   13   16 1     
@<TRIPOS>SUBSTRUCTURE
      1 ****           1
@<TRIPOS>COMMENT
> <Gold.Version>
2022.2.0

> <Gold.Id.Protein>
1qkm|1qkm_protein|mol2

> <Gold.Protein.RotatedTorsions>
[  496  491  490  487 ] final  -75.53 input  -89.99 | X-H torsion

> <Gold.Protein.ActiveResidues>
 MET295  LEU298  THR299  LEU301  ALA302  GLU305  TRP335  MET336  LEU339  MET340 
 GLY342  LEU343  ARG346  PHE356  ILE373  ILE376  PHE377  LEU380  LYS471  GLY472 
 MET473  HIS475  LEU476  LEU477  ASN478  MET479  VAL484  VAL487 

> <Gold.Protein.RotatedAtoms>
   36.6261   34.7214   41.2652 H   0  0  0  0  0  0  0  0  0  0  0  0  # atno 496  bound_to 491 

> <Gold.Score>
     Score     S(PLP)   S(hbond)     S(cho)   S(metal)  DE(clash)   DE(tors)     intcor
     51.43     -51.97       0.17       0.00       0.00       3.02       0.58       3.12

> <Gold.PLP.Fitness>
51.4339

> <Gold.PLP.PLP>
-51.9733

> <Gold.PLP.part.hbond>
-1.0000

> <Gold.PLP.part.metal>
0.0000

> <Gold.PLP.part.buried>
-2.1142

> <Gold.PLP.part.nonpolar>
-49.3725

> <Gold.PLP.part.repulsive>
0.2679

> <Gold.PLP.ligand.clash>
3.0210

> <Gold.PLP.ligand.torsion>
0.5755

> <Gold.PLP.Chemscore.Hbond>
0.1693

> <Gold.PLP.Chemscore.CHOScore>
0.0000

> <Gold.PLP.Chemscore.Metal>
0.0000

> <Gold.Chemscore.Hbonds>
donor molecule, donor type, donor heavy atom, donor atom, acceptor molecule, acceptor atom, score
      P1  H  1258  1270       L1     5  0.17

> <Gold.PLP.Chemscore.Internal.Correction>
3.1248

