#       Name:                EN300-108242_i001
#       Creating user name   aseyller
#       Creation time:       Fri Apr 21 18:58:29 2023


#       File generated by GOLD software.
#

@<TRIPOS>MOLECULE
EN300-108242_i001|benzaldehydes|mol2|673|dock10
    23    24     1
SMALL
USER_CHARGES


@<TRIPOS>ATOM
      1 C1          26.3383  38.7274  37.6032 C.3            1 <1>                0.0000
      2 N2          27.2404  37.7482  38.2146 N.pl3          1 <1>                0.0000
      3 C3          26.9959  37.0070  39.3431 C.2            1 <1>                0.0000
      4 C4          25.7647  37.0686  40.1478 C.2            1 <1>                0.0000
      5 O5          25.6645  36.4008  41.1548 O.2            1 <1>                0.0000
      6 N6          28.0255  36.2355  39.5960 N.2            1 <1>                0.0000
      7 C7          28.9760  36.4273  38.6669 C.ar           1 <1>                0.0000
      8 C8          30.2489  35.8745  38.4627 C.ar           1 <1>                0.0000
      9 C9          31.0025  36.2789  37.4006 C.ar           1 <1>                0.0000
     10 C10         30.5244  37.2361  36.5132 C.ar           1 <1>                0.0000
     11 C11         29.2782  37.7947  36.6906 C.ar           1 <1>                0.0000
     12 C12         28.4896  37.3938  37.7627 C.ar           1 <1>                0.0000
     13 C13         32.3695  35.6818  37.1869 C.3            1 <1>                0.0000
     14 F14         33.3124  36.3964  37.9335 F              1 <1>                0.0000
     15 F15         32.3642  34.3449  37.5996 F              1 <1>                0.0000
     16 F16         32.7010  35.7495  35.8295 F              1 <1>                0.0000
     17 H17         26.5294  39.7125  38.0287 H              1 <1>                0.0000
     18 H18         26.5095  38.7568  36.5272 H              1 <1>                0.0000
     19 H19         25.3049  38.4412  37.7991 H              1 <1>                0.0000
     20 H20         24.9507  37.7086  39.8410 H              1 <1>                0.0000
     21 H21         30.6316  35.1304  39.1454 H              1 <1>                0.0000
     22 H22         31.1356  37.5444  35.6777 H              1 <1>                0.0000
     23 H23         28.9135  38.5381  35.9972 H              1 <1>                0.0000
@<TRIPOS>BOND
    1    1    2 1     
    2    1   17 1     
    3    1   18 1     
    4    1   19 1     
    5    2    3 1     
    6    2   12 1     
    7    3    4 1     
    8    3    6 2     
    9    4    5 2     
   10    4   20 1     
   11    6    7 1     
   12    7    8 ar    
   13    7   12 ar    
   14    8    9 ar    
   15    8   21 1     
   16    9   10 ar    
   17    9   13 1     
   18   10   11 ar    
   19   10   22 1     
   20   11   12 ar    
   21   11   23 1     
   22   13   14 1     
   23   13   15 1     
   24   13   16 1     
@<TRIPOS>SUBSTRUCTURE
      1 ****           1
@<TRIPOS>COMMENT
> <Gold.Version>
2022.2.0

> <Gold.Id.Protein>
1qkm|1qkm_protein|mol2

> <Gold.Protein.RotatedTorsions>
[  496  491  490  487 ] final  143.90 input  -89.99 | X-H torsion

> <Gold.Protein.ActiveResidues>
 MET295  LEU298  THR299  LEU301  ALA302  GLU305  TRP335  MET336  LEU339  MET340 
 GLY342  LEU343  ARG346  PHE356  ILE373  ILE376  PHE377  LEU380  LYS471  GLY472 
 MET473  HIS475  LEU476  LEU477  ASN478  MET479  VAL484  VAL487 

> <Gold.Protein.RotatedAtoms>
   37.2348   33.0533   41.2772 H   0  0  0  0  0  0  0  0  0  0  0  0  # atno 496  bound_to 491 

> <Gold.Score>
     Score     S(PLP)   S(hbond)     S(cho)   S(metal)  DE(clash)   DE(tors)     intcor
     48.63     -48.67       0.00       0.00       0.00       1.00       1.08       3.12

> <Gold.PLP.Fitness>
48.6294

> <Gold.PLP.PLP>
-48.6694

> <Gold.PLP.part.hbond>
0.0000

> <Gold.PLP.part.metal>
0.0000

> <Gold.PLP.part.buried>
-3.9410

> <Gold.PLP.part.nonpolar>
-45.0207

> <Gold.PLP.part.repulsive>
0.2290

> <Gold.PLP.ligand.clash>
1.0034

> <Gold.PLP.ligand.torsion>
1.0802

> <Gold.PLP.Chemscore.Hbond>
0.0000

> <Gold.PLP.Chemscore.CHOScore>
0.0000

> <Gold.PLP.Chemscore.Metal>
0.0000

> <Gold.PLP.Chemscore.Internal.Correction>
3.1238

