#       Name:                EN300-108242_i001
#       Creating user name   aseyller
#       Creation time:       Fri Apr 21 18:58:25 2023


#       File generated by GOLD software.
#

@<TRIPOS>MOLECULE
EN300-108242_i001|benzaldehydes|mol2|673|dock1
    23    24     1
SMALL
USER_CHARGES


@<TRIPOS>ATOM
      1 C1          28.4363  35.7854  41.3781 C.3            1 <1>                0.0000
      2 N2          28.3162  36.3442  40.0291 N.pl3          1 <1>                0.0000
      3 C3          27.1755  36.8405  39.4503 C.2            1 <1>                0.0000
      4 C4          25.8533  36.8981  40.0952 C.2            1 <1>                0.0000
      5 O5          25.7514  36.7030  41.2874 O.2            1 <1>                0.0000
      6 N6          27.4417  37.2555  38.2353 N.2            1 <1>                0.0000
      7 C7          28.7415  37.0570  37.9621 C.ar           1 <1>                0.0000
      8 C8          29.5393  37.3124  36.8369 C.ar           1 <1>                0.0000
      9 C9          30.8647  36.9929  36.8576 C.ar           1 <1>                0.0000
     10 C10         31.4392  36.4148  37.9836 C.ar           1 <1>                0.0000
     11 C11         30.6786  36.1536  39.1016 C.ar           1 <1>                0.0000
     12 C12         29.3265  36.4761  39.1060 C.ar           1 <1>                0.0000
     13 C13         31.7164  37.2692  35.6454 C.3            1 <1>                0.0000
     14 F14         30.9119  37.7638  34.6133 F              1 <1>                0.0000
     15 F15         32.6945  38.2158  35.9686 F              1 <1>                0.0000
     16 F16         32.3332  36.0846  35.2290 F              1 <1>                0.0000
     17 H17         28.2465  34.7126  41.3451 H              1 <1>                0.0000
     18 H18         29.4422  35.9651  41.7575 H              1 <1>                0.0000
     19 H19         27.7094  36.2630  42.0352 H              1 <1>                0.0000
     20 H20         24.9743  37.1141  39.5061 H              1 <1>                0.0000
     21 H21         29.1045  37.7608  35.9559 H              1 <1>                0.0000
     22 H22         32.4907  36.1682  37.9816 H              1 <1>                0.0000
     23 H23         31.1317  35.7039  39.9727 H              1 <1>                0.0000
@<TRIPOS>BOND
    1    1    2 1     
    2    1   17 1     
    3    1   18 1     
    4    1   19 1     
    5    2    3 1     
    6    2   12 1     
    7    3    4 1     
    8    3    6 2     
    9    4    5 2     
   10    4   20 1     
   11    6    7 1     
   12    7    8 ar    
   13    7   12 ar    
   14    8    9 ar    
   15    8   21 1     
   16    9   10 ar    
   17    9   13 1     
   18   10   11 ar    
   19   10   22 1     
   20   11   12 ar    
   21   11   23 1     
   22   13   14 1     
   23   13   15 1     
   24   13   16 1     
@<TRIPOS>SUBSTRUCTURE
      1 ****           1
@<TRIPOS>COMMENT
> <Gold.Version>
2022.2.0

> <Gold.Id.Protein>
1qkm|1qkm_protein|mol2

> <Gold.Protein.RotatedTorsions>
[  496  491  490  487 ] final -173.07 input  -89.99 | X-H torsion

> <Gold.Protein.ActiveResidues>
 MET295  LEU298  THR299  LEU301  ALA302  GLU305  TRP335  MET336  LEU339  MET340 
 GLY342  LEU343  ARG346  PHE356  ILE373  ILE376  PHE377  LEU380  LYS471  GLY472 
 MET473  HIS475  LEU476  LEU477  ASN478  MET479  VAL484  VAL487 

> <Gold.Protein.RotatedAtoms>
   37.3102   33.5628   40.8154 H   0  0  0  0  0  0  0  0  0  0  0  0  # atno 496  bound_to 491 

> <Gold.Score>
     Score     S(PLP)   S(hbond)     S(cho)   S(metal)  DE(clash)   DE(tors)     intcor
     51.23     -51.78       0.00       0.00       0.00       3.50       0.08       3.13

> <Gold.PLP.Fitness>
51.2309

> <Gold.PLP.PLP>
-51.7751

> <Gold.PLP.part.hbond>
0.0000

> <Gold.PLP.part.metal>
0.0000

> <Gold.PLP.part.buried>
-4.6262

> <Gold.PLP.part.nonpolar>
-48.1200

> <Gold.PLP.part.repulsive>
0.2070

> <Gold.PLP.ligand.clash>
3.5040

> <Gold.PLP.ligand.torsion>
0.0834

> <Gold.PLP.Chemscore.Hbond>
0.0000

> <Gold.PLP.Chemscore.CHOScore>
0.0000

> <Gold.PLP.Chemscore.Metal>
0.0000

> <Gold.PLP.Chemscore.Internal.Correction>
3.1268

