#       Name:                EN300-108242_i001
#       Creating user name   aseyller
#       Creation time:       Fri Apr 21 18:58:31 2023


#       File generated by GOLD software.
#

@<TRIPOS>MOLECULE
EN300-108242_i001|benzaldehydes|mol2|673|dock15
    23    24     1
SMALL
USER_CHARGES


@<TRIPOS>ATOM
      1 C1          31.3392  37.5306  35.3723 C.3            1 <1>                0.0000
      2 N2          31.2804  36.8889  36.6880 N.pl3          1 <1>                0.0000
      3 C3          32.2936  36.2001  37.3058 C.2            1 <1>                0.0000
      4 C4          33.6370  35.9833  36.7441 C.2            1 <1>                0.0000
      5 O5          33.8214  36.0995  35.5514 O.2            1 <1>                0.0000
      6 N6          31.8836  35.7642  38.4724 N.2            1 <1>                0.0000
      7 C7          30.6093  36.1367  38.6743 C.ar           1 <1>                0.0000
      8 C8          29.7044  35.9427  39.7285 C.ar           1 <1>                0.0000
      9 C9          28.4437  36.4552  39.6442 C.ar           1 <1>                0.0000
     10 C10         28.0406  37.1709  38.5228 C.ar           1 <1>                0.0000
     11 C11         28.9092  37.3759  37.4739 C.ar           1 <1>                0.0000
     12 C12         30.2014  36.8680  37.5398 C.ar           1 <1>                0.0000
     13 C13         27.4759  36.2428  40.7797 C.3            1 <1>                0.0000
     14 F14         28.0403  36.7179  41.9684 F              1 <1>                0.0000
     15 F15         26.2894  36.9361  40.5172 F              1 <1>                0.0000
     16 F16         27.1997  34.8774  40.9078 F              1 <1>                0.0000
     17 H17         31.0293  36.8191  34.6069 H              1 <1>                0.0000
     18 H18         30.6724  38.3927  35.3585 H              1 <1>                0.0000
     19 H19         32.3598  37.8574  35.1728 H              1 <1>                0.0000
     20 H20         34.4582  35.7207  37.3945 H              1 <1>                0.0000
     21 H21         30.0055  35.3880  40.6048 H              1 <1>                0.0000
     22 H22         27.0379  37.5692  38.4736 H              1 <1>                0.0000
     23 H23         28.5890  37.9327  36.6056 H              1 <1>                0.0000
@<TRIPOS>BOND
    1    1    2 1     
    2    1   17 1     
    3    1   18 1     
    4    1   19 1     
    5    2    3 1     
    6    2   12 1     
    7    3    4 1     
    8    3    6 2     
    9    4    5 2     
   10    4   20 1     
   11    6    7 1     
   12    7    8 ar    
   13    7   12 ar    
   14    8    9 ar    
   15    8   21 1     
   16    9   10 ar    
   17    9   13 1     
   18   10   11 ar    
   19   10   22 1     
   20   11   12 ar    
   21   11   23 1     
   22   13   14 1     
   23   13   15 1     
   24   13   16 1     
@<TRIPOS>SUBSTRUCTURE
      1 ****           1
@<TRIPOS>COMMENT
> <Gold.Version>
2022.2.0

> <Gold.Id.Protein>
1qkm|1qkm_protein|mol2

> <Gold.Protein.RotatedTorsions>
[  496  491  490  487 ] final -154.19 input  -89.99 | X-H torsion

> <Gold.Protein.ActiveResidues>
 MET295  LEU298  THR299  LEU301  ALA302  GLU305  TRP335  MET336  LEU339  MET340 
 GLY342  LEU343  ARG346  PHE356  ILE373  ILE376  PHE377  LEU380  LYS471  GLY472 
 MET473  HIS475  LEU476  LEU477  ASN478  MET479  VAL484  VAL487 

> <Gold.Protein.RotatedAtoms>
   37.2514   33.8543   40.7300 H   0  0  0  0  0  0  0  0  0  0  0  0  # atno 496  bound_to 491 

> <Gold.Score>
     Score     S(PLP)   S(hbond)     S(cho)   S(metal)  DE(clash)   DE(tors)     intcor
     46.33     -46.56       0.00       0.00       0.00       3.06       0.14       3.12

> <Gold.PLP.Fitness>
46.3329

> <Gold.PLP.PLP>
-46.5591

> <Gold.PLP.part.hbond>
0.0000

> <Gold.PLP.part.metal>
0.0000

> <Gold.PLP.part.buried>
-1.8342

> <Gold.PLP.part.nonpolar>
-44.6152

> <Gold.PLP.part.repulsive>
0.1663

> <Gold.PLP.ligand.clash>
3.0616

> <Gold.PLP.ligand.torsion>
0.1442

> <Gold.PLP.Chemscore.Hbond>
0.0000

> <Gold.PLP.Chemscore.CHOScore>
0.0000

> <Gold.PLP.Chemscore.Metal>
0.0000

> <Gold.PLP.Chemscore.Internal.Correction>
3.1238

