#       Name:                EN300-102549_i001
#       Creating user name   aseyller
#       Creation time:       Fri Apr 21 18:14:49 2023


#       File generated by GOLD software.
#

@<TRIPOS>MOLECULE
EN300-102549_i001|benzaldehydes|mol2|475|dock13
    25    25     1
SMALL
USER_CHARGES


@<TRIPOS>ATOM
      1 C1          25.9103  37.1035  39.2582 C.3            1 <1>                0.0000
      2 O2          26.0623  36.7712  40.6397 O.3            1 <1>                0.0000
      3 C3          27.0699  35.7904  40.8941 C.3            1 <1>                0.0000
      4 C4          28.4473  36.4562  40.8703 C.3            1 <1>                0.0000
      5 O5          28.7095  36.9615  39.5596 O.3            1 <1>                0.0000
      6 C6          29.8243  36.5062  38.9361 C.ar           1 <1>                0.0000
      7 C7          30.3637  35.2763  39.2825 C.ar           1 <1>                0.0000
      8 C8          31.4986  34.8139  38.6469 C.ar           1 <1>                0.0000
      9 C9          32.1085  35.5714  37.6588 C.ar           1 <1>                0.0000
     10 C10         31.5888  36.7949  37.3002 C.ar           1 <1>                0.0000
     11 C11         30.4351  37.2750  37.9320 C.ar           1 <1>                0.0000
     12 C12         29.8747  38.5784  37.5555 C.2            1 <1>                0.0000
     13 O13         30.4268  39.2559  36.7145 O.2            1 <1>                0.0000
     14 H14         26.8499  37.5007  38.8744 H              1 <1>                0.0000
     15 H15         25.6377  36.2095  38.6973 H              1 <1>                0.0000
     16 H16         25.1272  37.8537  39.1490 H              1 <1>                0.0000
     17 H17         26.9005  35.3407  41.8724 H              1 <1>                0.0000
     18 H18         27.0267  35.0175  40.1266 H              1 <1>                0.0000
     19 H19         28.4661  37.2775  41.5868 H              1 <1>                0.0000
     20 H20         29.2095  35.7241  41.1368 H              1 <1>                0.0000
     21 H21         29.8953  34.6794  40.0511 H              1 <1>                0.0000
     22 H22         31.9144  33.8559  38.9215 H              1 <1>                0.0000
     23 H23         32.9959  35.1998  37.1681 H              1 <1>                0.0000
     24 H24         32.0678  37.3812  36.5301 H              1 <1>                0.0000
     25 H25         28.9708  38.9341  38.0274 H              1 <1>                0.0000
@<TRIPOS>BOND
    1    1    2 1     
    2    1   14 1     
    3    1   15 1     
    4    1   16 1     
    5    2    3 1     
    6    3    4 1     
    7    3   17 1     
    8    3   18 1     
    9    4    5 1     
   10    4   19 1     
   11    4   20 1     
   12    5    6 1     
   13    6    7 ar    
   14    6   11 ar    
   15    7    8 ar    
   16    7   21 1     
   17    8    9 ar    
   18    8   22 1     
   19    9   10 ar    
   20    9   23 1     
   21   10   11 ar    
   22   10   24 1     
   23   11   12 1     
   24   12   13 2     
   25   12   25 1     
@<TRIPOS>SUBSTRUCTURE
      1 ****           1
@<TRIPOS>COMMENT
> <Gold.Version>
2022.2.0

> <Gold.Id.Protein>
1qkm|1qkm_protein|mol2

> <Gold.Protein.RotatedTorsions>
[  496  491  490  487 ] final -127.84 input  -89.99 | X-H torsion

> <Gold.Protein.ActiveResidues>
 MET295  LEU298  THR299  LEU301  ALA302  GLU305  TRP335  MET336  LEU339  MET340 
 GLY342  LEU343  ARG346  PHE356  ILE373  ILE376  PHE377  LEU380  LYS471  GLY472 
 MET473  HIS475  LEU476  LEU477  ASN478  MET479  VAL484  VAL487 

> <Gold.Protein.RotatedAtoms>
   37.0885   34.2511   40.7588 H   0  0  0  0  0  0  0  0  0  0  0  0  # atno 496  bound_to 491 

> <Gold.Score>
     Score     S(PLP)   S(hbond)     S(cho)   S(metal)  DE(clash)   DE(tors)     intcor
     42.72     -43.67       0.00       0.00       0.00       0.00       0.81       0.68

> <Gold.PLP.Fitness>
42.7228

> <Gold.PLP.PLP>
-43.6676

> <Gold.PLP.part.hbond>
0.0000

> <Gold.PLP.part.metal>
0.0000

> <Gold.PLP.part.buried>
-3.1776

> <Gold.PLP.part.nonpolar>
-40.9718

> <Gold.PLP.part.repulsive>
0.1563

> <Gold.PLP.ligand.clash>
0.0000

> <Gold.PLP.ligand.torsion>
0.8144

> <Gold.PLP.Chemscore.Hbond>
0.0000

> <Gold.PLP.Chemscore.CHOScore>
0.0000

> <Gold.PLP.Chemscore.Metal>
0.0000

> <Gold.PLP.Chemscore.Internal.Correction>
0.6840

