#       Name:                EN300-102549_i001
#       Creating user name   aseyller
#       Creation time:       Fri Apr 21 18:14:56 2023


#       File generated by GOLD software.
#

@<TRIPOS>MOLECULE
EN300-102549_i001|benzaldehydes|mol2|475|dock20
    25    25     1
SMALL
USER_CHARGES


@<TRIPOS>ATOM
      1 C1          31.0082  39.1164  35.2440 C.3            1 <1>                0.0000
      2 O2          30.0288  38.6440  36.1711 O.3            1 <1>                0.0000
      3 C3          28.8141  39.3966  36.1672 C.3            1 <1>                0.0000
      4 C4          27.8633  38.8358  37.2267 C.3            1 <1>                0.0000
      5 O5          28.3525  37.5740  37.6857 O.3            1 <1>                0.0000
      6 C6          27.7486  37.0392  38.7756 C.ar           1 <1>                0.0000
      7 C7          26.4112  37.3033  39.0313 C.ar           1 <1>                0.0000
      8 C8          25.7976  36.7581  40.1413 C.ar           1 <1>                0.0000
      9 C9          26.5092  35.9436  41.0085 C.ar           1 <1>                0.0000
     10 C10         27.8376  35.6692  40.7726 C.ar           1 <1>                0.0000
     11 C11         28.4726  36.2103  39.6480 C.ar           1 <1>                0.0000
     12 C12         29.8885  35.9227  39.3893 C.2            1 <1>                0.0000
     13 O13         30.4674  36.4893  38.4865 O.2            1 <1>                0.0000
     14 H14         30.6040  39.0693  34.2328 H              1 <1>                0.0000
     15 H15         31.2680  40.1475  35.4837 H              1 <1>                0.0000
     16 H16         31.8999  38.4928  35.3081 H              1 <1>                0.0000
     17 H17         29.0328  40.4406  36.3912 H              1 <1>                0.0000
     18 H18         28.3461  39.3260  35.1852 H              1 <1>                0.0000
     19 H19         27.8043  39.5295  38.0655 H              1 <1>                0.0000
     20 H20         26.8721  38.7052  36.7927 H              1 <1>                0.0000
     21 H21         25.8491  37.9366  38.3612 H              1 <1>                0.0000
     22 H22         24.7562  36.9679  40.3356 H              1 <1>                0.0000
     23 H23         26.0190  35.5224  41.8738 H              1 <1>                0.0000
     24 H24         28.3876  35.0342  41.4513 H              1 <1>                0.0000
     25 H25         30.4149  35.2065  40.0027 H              1 <1>                0.0000
@<TRIPOS>BOND
    1    1    2 1     
    2    1   14 1     
    3    1   15 1     
    4    1   16 1     
    5    2    3 1     
    6    3    4 1     
    7    3   17 1     
    8    3   18 1     
    9    4    5 1     
   10    4   19 1     
   11    4   20 1     
   12    5    6 1     
   13    6    7 ar    
   14    6   11 ar    
   15    7    8 ar    
   16    7   21 1     
   17    8    9 ar    
   18    8   22 1     
   19    9   10 ar    
   20    9   23 1     
   21   10   11 ar    
   22   10   24 1     
   23   11   12 1     
   24   12   13 2     
   25   12   25 1     
@<TRIPOS>SUBSTRUCTURE
      1 ****           1
@<TRIPOS>COMMENT
> <Gold.Version>
2022.2.0

> <Gold.Id.Protein>
1qkm|1qkm_protein|mol2

> <Gold.Protein.RotatedTorsions>
[  496  491  490  487 ] final   88.79 input  -89.99 | X-H torsion

> <Gold.Protein.ActiveResidues>
 MET295  LEU298  THR299  LEU301  ALA302  GLU305  TRP335  MET336  LEU339  MET340 
 GLY342  LEU343  ARG346  PHE356  ILE373  ILE376  PHE377  LEU380  LYS471  GLY472 
 MET473  HIS475  LEU476  LEU477  ASN478  MET479  VAL484  VAL487 

> <Gold.Protein.RotatedAtoms>
   36.8091   33.0301   42.0386 H   0  0  0  0  0  0  0  0  0  0  0  0  # atno 496  bound_to 491 

> <Gold.Score>
     Score     S(PLP)   S(hbond)     S(cho)   S(metal)  DE(clash)   DE(tors)     intcor
     40.99     -41.82       0.00       0.00       0.00       0.01       0.75       0.68

> <Gold.PLP.Fitness>
40.9926

> <Gold.PLP.PLP>
-41.8155

> <Gold.PLP.part.hbond>
0.0000

> <Gold.PLP.part.metal>
0.0000

> <Gold.PLP.part.buried>
-2.9590

> <Gold.PLP.part.nonpolar>
-38.9048

> <Gold.PLP.part.repulsive>
0.0481

> <Gold.PLP.ligand.clash>
0.0101

> <Gold.PLP.ligand.torsion>
0.7484

> <Gold.PLP.Chemscore.Hbond>
0.0000

> <Gold.PLP.Chemscore.CHOScore>
0.0000

> <Gold.PLP.Chemscore.Metal>
0.0000

> <Gold.PLP.Chemscore.Internal.Correction>
0.6840

