#       Name:                EN300-102549_i001
#       Creating user name   aseyller
#       Creation time:       Fri Apr 21 18:14:41 2023


#       File generated by GOLD software.
#

@<TRIPOS>MOLECULE
EN300-102549_i001|benzaldehydes|mol2|475|dock6
    25    25     1
SMALL
USER_CHARGES


@<TRIPOS>ATOM
      1 C1          26.4424  36.6886  40.6352 C.3            1 <1>                0.0000
      2 O2          27.5760  36.5938  39.7704 O.3            1 <1>                0.0000
      3 C3          28.8016  36.3091  40.4477 C.3            1 <1>                0.0000
      4 C4          29.9045  36.0505  39.4192 C.3            1 <1>                0.0000
      5 O5          30.2279  37.2713  38.7505 O.3            1 <1>                0.0000
      6 C6          31.0372  37.1834  37.6660 C.ar           1 <1>                0.0000
      7 C7          31.8945  36.1028  37.5218 C.ar           1 <1>                0.0000
      8 C8          32.7178  36.0145  36.4172 C.ar           1 <1>                0.0000
      9 C9          32.6960  37.0015  35.4439 C.ar           1 <1>                0.0000
     10 C10         31.8523  38.0823  35.5683 C.ar           1 <1>                0.0000
     11 C11         31.0073  38.1833  36.6802 C.ar           1 <1>                0.0000
     12 C12         30.1047  39.3323  36.8203 C.2            1 <1>                0.0000
     13 O13         30.2367  40.2987  36.0993 O.2            1 <1>                0.0000
     14 H14         26.3069  35.7439  41.1618 H              1 <1>                0.0000
     15 H15         26.6031  37.4880  41.3587 H              1 <1>                0.0000
     16 H16         25.5522  36.9064  40.0451 H              1 <1>                0.0000
     17 H17         29.0782  37.1594  41.0711 H              1 <1>                0.0000
     18 H18         28.6742  35.4259  41.0737 H              1 <1>                0.0000
     19 H19         30.7907  35.6677  39.9254 H              1 <1>                0.0000
     20 H20         29.5573  35.3180  38.6906 H              1 <1>                0.0000
     21 H21         31.9182  35.3292  38.2750 H              1 <1>                0.0000
     22 H22         33.3838  35.1711  36.3108 H              1 <1>                0.0000
     23 H23         33.3445  36.9222  34.5839 H              1 <1>                0.0000
     24 H24         31.8392  38.8486  34.8074 H              1 <1>                0.0000
     25 H25         29.3231  39.3173  37.5655 H              1 <1>                0.0000
@<TRIPOS>BOND
    1    1    2 1     
    2    1   14 1     
    3    1   15 1     
    4    1   16 1     
    5    2    3 1     
    6    3    4 1     
    7    3   17 1     
    8    3   18 1     
    9    4    5 1     
   10    4   19 1     
   11    4   20 1     
   12    5    6 1     
   13    6    7 ar    
   14    6   11 ar    
   15    7    8 ar    
   16    7   21 1     
   17    8    9 ar    
   18    8   22 1     
   19    9   10 ar    
   20    9   23 1     
   21   10   11 ar    
   22   10   24 1     
   23   11   12 1     
   24   12   13 2     
   25   12   25 1     
@<TRIPOS>SUBSTRUCTURE
      1 ****           1
@<TRIPOS>COMMENT
> <Gold.Version>
2022.2.0

> <Gold.Id.Protein>
1qkm|1qkm_protein|mol2

> <Gold.Protein.RotatedTorsions>
[  496  491  490  487 ] final   85.61 input  -89.99 | X-H torsion

> <Gold.Protein.ActiveResidues>
 MET295  LEU298  THR299  LEU301  ALA302  GLU305  TRP335  MET336  LEU339  MET340 
 GLY342  LEU343  ARG346  PHE356  ILE373  ILE376  PHE377  LEU380  LYS471  GLY472 
 MET473  HIS475  LEU476  LEU477  ASN478  MET479  VAL484  VAL487 

> <Gold.Protein.RotatedAtoms>
   36.7796   33.0531   42.0752 H   0  0  0  0  0  0  0  0  0  0  0  0  # atno 496  bound_to 491 

> <Gold.Score>
     Score     S(PLP)   S(hbond)     S(cho)   S(metal)  DE(clash)   DE(tors)     intcor
     40.38     -40.56       0.00       0.00       0.00       0.00       0.44       0.69

> <Gold.PLP.Fitness>
40.3803

> <Gold.PLP.PLP>
-40.5580

> <Gold.PLP.part.hbond>
0.0000

> <Gold.PLP.part.metal>
0.0000

> <Gold.PLP.part.buried>
-4.3036

> <Gold.PLP.part.nonpolar>
-36.8173

> <Gold.PLP.part.repulsive>
0.0476

> <Gold.PLP.ligand.clash>
0.0000

> <Gold.PLP.ligand.torsion>
0.4352

> <Gold.PLP.Chemscore.Hbond>
0.0000

> <Gold.PLP.Chemscore.CHOScore>
0.0000

> <Gold.PLP.Chemscore.Metal>
0.0000

> <Gold.PLP.Chemscore.Internal.Correction>
0.6927

