#       Name:                EN300-102549_i001
#       Creating user name   aseyller
#       Creation time:       Fri Apr 21 18:14:54 2023


#       File generated by GOLD software.
#

@<TRIPOS>MOLECULE
EN300-102549_i001|benzaldehydes|mol2|475|dock18
    25    25     1
SMALL
USER_CHARGES


@<TRIPOS>ATOM
      1 C1          26.0706  36.9984  41.1937 C.3            1 <1>                0.0000
      2 O2          25.4956  37.0010  39.8856 O.3            1 <1>                0.0000
      3 C3          26.3902  37.4324  38.8582 C.3            1 <1>                0.0000
      4 C4          27.4952  36.3904  38.6735 C.3            1 <1>                0.0000
      5 O5          28.7413  37.0524  38.4475 O.3            1 <1>                0.0000
      6 C6          29.8426  36.2695  38.3347 C.ar           1 <1>                0.0000
      7 C7          29.8646  35.0095  38.9140 C.ar           1 <1>                0.0000
      8 C8          30.9865  34.2135  38.7983 C.ar           1 <1>                0.0000
      9 C9          32.0988  34.6636  38.1040 C.ar           1 <1>                0.0000
     10 C10         32.0973  35.9111  37.5217 C.ar           1 <1>                0.0000
     11 C11         30.9649  36.7281  37.6256 C.ar           1 <1>                0.0000
     12 C12         30.9551  38.0594  37.0077 C.2            1 <1>                0.0000
     13 O13         30.0373  38.8222  37.2247 O.2            1 <1>                0.0000
     14 H14         26.9291  36.3271  41.2120 H              1 <1>                0.0000
     15 H15         26.3930  38.0075  41.4509 H              1 <1>                0.0000
     16 H16         25.3285  36.6590  41.9163 H              1 <1>                0.0000
     17 H17         25.8412  37.5494  37.9239 H              1 <1>                0.0000
     18 H18         26.8345  38.3870  39.1404 H              1 <1>                0.0000
     19 H19         27.5680  35.7752  39.5705 H              1 <1>                0.0000
     20 H20         27.2591  35.7582  37.8176 H              1 <1>                0.0000
     21 H21         29.0026  34.6507  39.4567 H              1 <1>                0.0000
     22 H22         30.9979  33.2336  39.2522 H              1 <1>                0.0000
     23 H23         32.9711  34.0324  38.0198 H              1 <1>                0.0000
     24 H24         32.9665  36.2572  36.9821 H              1 <1>                0.0000
     25 H25         31.7652  38.3599  36.3597 H              1 <1>                0.0000
@<TRIPOS>BOND
    1    1    2 1     
    2    1   14 1     
    3    1   15 1     
    4    1   16 1     
    5    2    3 1     
    6    3    4 1     
    7    3   17 1     
    8    3   18 1     
    9    4    5 1     
   10    4   19 1     
   11    4   20 1     
   12    5    6 1     
   13    6    7 ar    
   14    6   11 ar    
   15    7    8 ar    
   16    7   21 1     
   17    8    9 ar    
   18    8   22 1     
   19    9   10 ar    
   20    9   23 1     
   21   10   11 ar    
   22   10   24 1     
   23   11   12 1     
   24   12   13 2     
   25   12   25 1     
@<TRIPOS>SUBSTRUCTURE
      1 ****           1
@<TRIPOS>COMMENT
> <Gold.Version>
2022.2.0

> <Gold.Id.Protein>
1qkm|1qkm_protein|mol2

> <Gold.Protein.RotatedTorsions>
[  496  491  490  487 ] final    6.70 input  -89.99 | X-H torsion

> <Gold.Protein.ActiveResidues>
 MET295  LEU298  THR299  LEU301  ALA302  GLU305  TRP335  MET336  LEU339  MET340 
 GLY342  LEU343  ARG346  PHE356  ILE373  ILE376  PHE377  LEU380  LYS471  GLY472 
 MET473  HIS475  LEU476  LEU477  ASN478  MET479  VAL484  VAL487 

> <Gold.Protein.RotatedAtoms>
   36.2670   34.1158   42.2865 H   0  0  0  0  0  0  0  0  0  0  0  0  # atno 496  bound_to 491 

> <Gold.Score>
     Score     S(PLP)   S(hbond)     S(cho)   S(metal)  DE(clash)   DE(tors)     intcor
     42.00     -42.64       0.00       0.00       0.00       0.00       0.66       0.68

> <Gold.PLP.Fitness>
42.0049

> <Gold.PLP.PLP>
-42.6355

> <Gold.PLP.part.hbond>
0.0000

> <Gold.PLP.part.metal>
0.0000

> <Gold.PLP.part.buried>
-4.9162

> <Gold.PLP.part.nonpolar>
-38.0363

> <Gold.PLP.part.repulsive>
0.1151

> <Gold.PLP.ligand.clash>
0.0000

> <Gold.PLP.ligand.torsion>
0.6573

> <Gold.PLP.Chemscore.Hbond>
0.0000

> <Gold.PLP.Chemscore.CHOScore>
0.0000

> <Gold.PLP.Chemscore.Metal>
0.0000

> <Gold.PLP.Chemscore.Internal.Correction>
0.6840

