#       Name:                EN300-102549_i001
#       Creating user name   aseyller
#       Creation time:       Fri Apr 21 18:14:55 2023


#       File generated by GOLD software.
#

@<TRIPOS>MOLECULE
EN300-102549_i001|benzaldehydes|mol2|475|dock19
    25    25     1
SMALL
USER_CHARGES


@<TRIPOS>ATOM
      1 C1          26.7381  36.7361  39.1572 C.3            1 <1>                0.0000
      2 O2          27.0470  36.4679  40.5264 O.3            1 <1>                0.0000
      3 C3          28.3524  35.9243  40.7321 C.3            1 <1>                0.0000
      4 C4          29.4033  36.9977  40.4418 C.3            1 <1>                0.0000
      5 O5          29.4465  37.2544  39.0367 O.3            1 <1>                0.0000
      6 C6          30.4670  36.6960  38.3400 C.ar           1 <1>                0.0000
      7 C7          31.0612  35.5267  38.7909 C.ar           1 <1>                0.0000
      8 C8          32.1000  34.9592  38.0805 C.ar           1 <1>                0.0000
      9 C9          32.5581  35.5500  36.9130 C.ar           1 <1>                0.0000
     10 C10         31.9819  36.7108  36.4485 C.ar           1 <1>                0.0000
     11 C11         30.9237  37.2956  37.1549 C.ar           1 <1>                0.0000
     12 C12         30.3039  38.5332  36.6665 C.2            1 <1>                0.0000
     13 O13         29.4500  39.0858  37.3274 O.2            1 <1>                0.0000
     14 H14         27.4528  37.4556  38.7576 H              1 <1>                0.0000
     15 H15         26.7951  35.8108  38.5838 H              1 <1>                0.0000
     16 H16         25.7309  37.1464  39.0854 H              1 <1>                0.0000
     17 H17         28.4486  35.5915  41.7655 H              1 <1>                0.0000
     18 H18         28.5032  35.0776  40.0623 H              1 <1>                0.0000
     19 H19         29.1421  37.9143  40.9708 H              1 <1>                0.0000
     20 H20         30.3802  36.6501  40.7779 H              1 <1>                0.0000
     21 H21         30.7108  35.0595  39.6993 H              1 <1>                0.0000
     22 H22         32.5592  34.0491  38.4370 H              1 <1>                0.0000
     23 H23         33.3715  35.0973  36.3653 H              1 <1>                0.0000
     24 H24         32.3426  37.1673  35.5386 H              1 <1>                0.0000
     25 H25         30.6081  38.9518  35.7185 H              1 <1>                0.0000
@<TRIPOS>BOND
    1    1    2 1     
    2    1   14 1     
    3    1   15 1     
    4    1   16 1     
    5    2    3 1     
    6    3    4 1     
    7    3   17 1     
    8    3   18 1     
    9    4    5 1     
   10    4   19 1     
   11    4   20 1     
   12    5    6 1     
   13    6    7 ar    
   14    6   11 ar    
   15    7    8 ar    
   16    7   21 1     
   17    8    9 ar    
   18    8   22 1     
   19    9   10 ar    
   20    9   23 1     
   21   10   11 ar    
   22   10   24 1     
   23   11   12 1     
   24   12   13 2     
   25   12   25 1     
@<TRIPOS>SUBSTRUCTURE
      1 ****           1
@<TRIPOS>COMMENT
> <Gold.Version>
2022.2.0

> <Gold.Id.Protein>
1qkm|1qkm_protein|mol2

> <Gold.Protein.RotatedTorsions>
[  496  491  490  487 ] final  142.39 input  -89.99 | X-H torsion

> <Gold.Protein.ActiveResidues>
 MET295  LEU298  THR299  LEU301  ALA302  GLU305  TRP335  MET336  LEU339  MET340 
 GLY342  LEU343  ARG346  PHE356  ILE373  ILE376  PHE377  LEU380  LYS471  GLY472 
 MET473  HIS475  LEU476  LEU477  ASN478  MET479  VAL484  VAL487 

> <Gold.Protein.RotatedAtoms>
   37.2271   33.0420   41.2979 H   0  0  0  0  0  0  0  0  0  0  0  0  # atno 496  bound_to 491 

> <Gold.Score>
     Score     S(PLP)   S(hbond)     S(cho)   S(metal)  DE(clash)   DE(tors)     intcor
     40.31     -41.06       0.00       0.00       0.00       0.00       0.72       0.68

> <Gold.PLP.Fitness>
40.3083

> <Gold.PLP.PLP>
-41.0619

> <Gold.PLP.part.hbond>
0.0000

> <Gold.PLP.part.metal>
0.0000

> <Gold.PLP.part.buried>
-4.0869

> <Gold.PLP.part.nonpolar>
-37.6167

> <Gold.PLP.part.repulsive>
0.1047

> <Gold.PLP.ligand.clash>
0.0000

> <Gold.PLP.ligand.torsion>
0.7188

> <Gold.PLP.Chemscore.Hbond>
0.0000

> <Gold.PLP.Chemscore.CHOScore>
0.0000

> <Gold.PLP.Chemscore.Metal>
0.0000

> <Gold.PLP.Chemscore.Internal.Correction>
0.6840

