#       Name:                EN300-102549_i001
#       Creating user name   aseyller
#       Creation time:       Fri Apr 21 18:14:45 2023


#       File generated by GOLD software.
#

@<TRIPOS>MOLECULE
EN300-102549_i001|benzaldehydes|mol2|475|dock10
    25    25     1
SMALL
USER_CHARGES


@<TRIPOS>ATOM
      1 C1          25.4973  37.1655  41.1956 C.3            1 <1>                0.0000
      2 O2          26.6871  36.7197  40.5418 O.3            1 <1>                0.0000
      3 C3          27.8194  36.6099  41.4066 C.3            1 <1>                0.0000
      4 C4          28.9107  35.7892  40.7164 C.3            1 <1>                0.0000
      5 O5          29.1788  36.3427  39.4264 O.3            1 <1>                0.0000
      6 C6          30.2491  35.8498  38.7555 C.ar           1 <1>                0.0000
      7 C7          30.7138  34.5715  39.0270 C.ar           1 <1>                0.0000
      8 C8          31.8035  34.0710  38.3431 C.ar           1 <1>                0.0000
      9 C9          32.4422  34.8380  37.3810 C.ar           1 <1>                0.0000
     10 C10         31.9967  36.1093  37.0967 C.ar           1 <1>                0.0000
     11 C11         30.8892  36.6290  37.7780 C.ar           1 <1>                0.0000
     12 C12         30.4079  37.9834  37.4807 C.2            1 <1>                0.0000
     13 O13         29.2483  38.2738  37.6865 O.2            1 <1>                0.0000
     14 H14         25.2317  36.4629  41.9856 H              1 <1>                0.0000
     15 H15         25.6681  38.1512  41.6285 H              1 <1>                0.0000
     16 H16         24.6844  37.2225  40.4718 H              1 <1>                0.0000
     17 H17         28.2015  37.6053  41.6329 H              1 <1>                0.0000
     18 H18         27.5233  36.1154  42.3319 H              1 <1>                0.0000
     19 H19         29.8192  35.8138  41.3182 H              1 <1>                0.0000
     20 H20         28.5753  34.7580  40.6067 H              1 <1>                0.0000
     21 H21         30.2224  33.9669  39.7748 H              1 <1>                0.0000
     22 H22         32.1612  33.0752  38.5594 H              1 <1>                0.0000
     23 H23         33.2939  34.4363  36.8521 H              1 <1>                0.0000
     24 H24         32.4978  36.7029  36.3465 H              1 <1>                0.0000
     25 H25         31.0862  38.7215  37.0788 H              1 <1>                0.0000
@<TRIPOS>BOND
    1    1    2 1     
    2    1   14 1     
    3    1   15 1     
    4    1   16 1     
    5    2    3 1     
    6    3    4 1     
    7    3   17 1     
    8    3   18 1     
    9    4    5 1     
   10    4   19 1     
   11    4   20 1     
   12    5    6 1     
   13    6    7 ar    
   14    6   11 ar    
   15    7    8 ar    
   16    7   21 1     
   17    8    9 ar    
   18    8   22 1     
   19    9   10 ar    
   20    9   23 1     
   21   10   11 ar    
   22   10   24 1     
   23   11   12 1     
   24   12   13 2     
   25   12   25 1     
@<TRIPOS>SUBSTRUCTURE
      1 ****           1
@<TRIPOS>COMMENT
> <Gold.Version>
2022.2.0

> <Gold.Id.Protein>
1qkm|1qkm_protein|mol2

> <Gold.Protein.RotatedTorsions>
[  496  491  490  487 ] final   79.08 input  -89.99 | X-H torsion

> <Gold.Protein.ActiveResidues>
 MET295  LEU298  THR299  LEU301  ALA302  GLU305  TRP335  MET336  LEU339  MET340 
 GLY342  LEU343  ARG346  PHE356  ILE373  ILE376  PHE377  LEU380  LYS471  GLY472 
 MET473  HIS475  LEU476  LEU477  ASN478  MET479  VAL484  VAL487 

> <Gold.Protein.RotatedAtoms>
   36.7194   33.1080   42.1453 H   0  0  0  0  0  0  0  0  0  0  0  0  # atno 496  bound_to 491 

> <Gold.Score>
     Score     S(PLP)   S(hbond)     S(cho)   S(metal)  DE(clash)   DE(tors)     intcor
     43.24     -43.71       0.00       0.00       0.00       0.00       0.58       0.68

> <Gold.PLP.Fitness>
43.2443

> <Gold.PLP.PLP>
-43.7113

> <Gold.PLP.part.hbond>
0.0000

> <Gold.PLP.part.metal>
0.0000

> <Gold.PLP.part.buried>
-3.7254

> <Gold.PLP.part.nonpolar>
-40.5397

> <Gold.PLP.part.repulsive>
0.1451

> <Gold.PLP.ligand.clash>
0.0000

> <Gold.PLP.ligand.torsion>
0.5755

> <Gold.PLP.Chemscore.Hbond>
0.0000

> <Gold.PLP.Chemscore.CHOScore>
0.0000

> <Gold.PLP.Chemscore.Metal>
0.0000

> <Gold.PLP.Chemscore.Internal.Correction>
0.6840

