#       Name:                EN300-102549_i001
#       Creating user name   aseyller
#       Creation time:       Fri Apr 21 18:14:43 2023


#       File generated by GOLD software.
#

@<TRIPOS>MOLECULE
EN300-102549_i001|benzaldehydes|mol2|475|dock8
    25    25     1
SMALL
USER_CHARGES


@<TRIPOS>ATOM
      1 C1          33.0408  36.3871  35.9354 C.3            1 <1>                0.0000
      2 O2          32.1016  35.6390  36.7101 O.3            1 <1>                0.0000
      3 C3          32.2381  35.8185  38.1212 C.3            1 <1>                0.0000
      4 C4          30.8918  35.5603  38.8007 C.3            1 <1>                0.0000
      5 O5          30.0321  36.6834  38.5965 O.3            1 <1>                0.0000
      6 C6          28.7717  36.5912  39.0881 C.ar           1 <1>                0.0000
      7 C7          28.5131  35.8034  40.1999 C.ar           1 <1>                0.0000
      8 C8          27.2294  35.7105  40.6994 C.ar           1 <1>                0.0000
      9 C9          26.1894  36.4016  40.0972 C.ar           1 <1>                0.0000
     10 C10         26.4251  37.1890  38.9927 C.ar           1 <1>                0.0000
     11 C11         27.7226  37.2977  38.4776 C.ar           1 <1>                0.0000
     12 C12         27.9824  38.1350  37.3004 C.2            1 <1>                0.0000
     13 O13         29.1178  38.2836  36.9003 O.2            1 <1>                0.0000
     14 H14         32.9140  37.4505  36.1381 H              1 <1>                0.0000
     15 H15         34.0538  36.0848  36.2015 H              1 <1>                0.0000
     16 H16         32.8715  36.1966  34.8757 H              1 <1>                0.0000
     17 H17         32.9797  35.1187  38.5063 H              1 <1>                0.0000
     18 H18         32.5598  36.8392  38.3282 H              1 <1>                0.0000
     19 H19         30.4333  34.6692  38.3719 H              1 <1>                0.0000
     20 H20         31.0468  35.4108  39.8692 H              1 <1>                0.0000
     21 H21         29.3171  35.2616  40.6755 H              1 <1>                0.0000
     22 H22         27.0340  35.0949  41.5649 H              1 <1>                0.0000
     23 H23         25.1891  36.3216  40.4965 H              1 <1>                0.0000
     24 H24         25.6114  37.7251  38.5270 H              1 <1>                0.0000
     25 H25         27.1625  38.6188  36.7903 H              1 <1>                0.0000
@<TRIPOS>BOND
    1    1    2 1     
    2    1   14 1     
    3    1   15 1     
    4    1   16 1     
    5    2    3 1     
    6    3    4 1     
    7    3   17 1     
    8    3   18 1     
    9    4    5 1     
   10    4   19 1     
   11    4   20 1     
   12    5    6 1     
   13    6    7 ar    
   14    6   11 ar    
   15    7    8 ar    
   16    7   21 1     
   17    8    9 ar    
   18    8   22 1     
   19    9   10 ar    
   20    9   23 1     
   21   10   11 ar    
   22   10   24 1     
   23   11   12 1     
   24   12   13 2     
   25   12   25 1     
@<TRIPOS>SUBSTRUCTURE
      1 ****           1
@<TRIPOS>COMMENT
> <Gold.Version>
2022.2.0

> <Gold.Id.Protein>
1qkm|1qkm_protein|mol2

> <Gold.Protein.RotatedTorsions>
[  496  491  490  487 ] final   69.08 input  -89.99 | X-H torsion

> <Gold.Protein.ActiveResidues>
 MET295  LEU298  THR299  LEU301  ALA302  GLU305  TRP335  MET336  LEU339  MET340 
 GLY342  LEU343  ARG346  PHE356  ILE373  ILE376  PHE377  LEU380  LYS471  GLY472 
 MET473  HIS475  LEU476  LEU477  ASN478  MET479  VAL484  VAL487 

> <Gold.Protein.RotatedAtoms>
   36.6293   33.2100   42.2374 H   0  0  0  0  0  0  0  0  0  0  0  0  # atno 496  bound_to 491 

> <Gold.Score>
     Score     S(PLP)   S(hbond)     S(cho)   S(metal)  DE(clash)   DE(tors)     intcor
     43.15     -43.65       0.00       0.00       0.00       0.00       0.59       0.68

> <Gold.PLP.Fitness>
43.1512

> <Gold.PLP.PLP>
-43.6539

> <Gold.PLP.part.hbond>
0.0000

> <Gold.PLP.part.metal>
0.0000

> <Gold.PLP.part.buried>
-4.6008

> <Gold.PLP.part.nonpolar>
-39.1443

> <Gold.PLP.part.repulsive>
0.0506

> <Gold.PLP.ligand.clash>
0.0000

> <Gold.PLP.ligand.torsion>
0.5934

> <Gold.PLP.Chemscore.Hbond>
0.0000

> <Gold.PLP.Chemscore.CHOScore>
0.0000

> <Gold.PLP.Chemscore.Metal>
0.0000

> <Gold.PLP.Chemscore.Internal.Correction>
0.6840

