#       Name:                EN300-102549_i001
#       Creating user name   aseyller
#       Creation time:       Fri Apr 21 18:14:37 2023


#       File generated by GOLD software.
#

@<TRIPOS>MOLECULE
EN300-102549_i001|benzaldehydes|mol2|475|dock2
    25    25     1
SMALL
USER_CHARGES


@<TRIPOS>ATOM
      1 C1          25.7832  37.0059  41.4471 C.3            1 <1>                0.0000
      2 O2          26.8238  36.5503  40.5803 O.3            1 <1>                0.0000
      3 C3          28.0323  36.1994  41.2574 C.3            1 <1>                0.0000
      4 C4          29.1034  35.8286  40.2297 C.3            1 <1>                0.0000
      5 O5          29.4550  36.9864  39.4693 O.3            1 <1>                0.0000
      6 C6          30.4132  36.8331  38.5221 C.ar           1 <1>                0.0000
      7 C7          31.3294  35.7963  38.6188 C.ar           1 <1>                0.0000
      8 C8          32.3043  35.6414  37.6537 C.ar           1 <1>                0.0000
      9 C9          32.3772  36.5172  36.5816 C.ar           1 <1>                0.0000
     10 C10         31.4772  37.5528  36.4672 C.ar           1 <1>                0.0000
     11 C11         30.4792  37.7198  37.4351 C.ar           1 <1>                0.0000
     12 C12         29.5159  38.8214  37.3205 C.2            1 <1>                0.0000
     13 O13         29.6349  39.6416  36.4349 O.2            1 <1>                0.0000
     14 H14         25.5354  36.2208  42.1615 H              1 <1>                0.0000
     15 H15         26.1199  37.8927  41.9842 H              1 <1>                0.0000
     16 H16         24.9004  37.2520  40.8571 H              1 <1>                0.0000
     17 H17         28.3757  37.0470  41.8504 H              1 <1>                0.0000
     18 H18         27.8477  35.3484  41.9130 H              1 <1>                0.0000
     19 H19         29.9863  35.4507  40.7453 H              1 <1>                0.0000
     20 H20         28.7156  35.0594  39.5620 H              1 <1>                0.0000
     21 H21         31.2802  35.1093  39.4506 H              1 <1>                0.0000
     22 H22         33.0154  34.8327  37.7348 H              1 <1>                0.0000
     23 H23         33.1440  36.3865  35.8324 H              1 <1>                0.0000
     24 H24         31.5383  38.2325  35.6301 H              1 <1>                0.0000
     25 H25         28.7011  38.9015  38.0247 H              1 <1>                0.0000
@<TRIPOS>BOND
    1    1    2 1     
    2    1   14 1     
    3    1   15 1     
    4    1   16 1     
    5    2    3 1     
    6    3    4 1     
    7    3   17 1     
    8    3   18 1     
    9    4    5 1     
   10    4   19 1     
   11    4   20 1     
   12    5    6 1     
   13    6    7 ar    
   14    6   11 ar    
   15    7    8 ar    
   16    7   21 1     
   17    8    9 ar    
   18    8   22 1     
   19    9   10 ar    
   20    9   23 1     
   21   10   11 ar    
   22   10   24 1     
   23   11   12 1     
   24   12   13 2     
   25   12   25 1     
@<TRIPOS>SUBSTRUCTURE
      1 ****           1
@<TRIPOS>COMMENT
> <Gold.Version>
2022.2.0

> <Gold.Id.Protein>
1qkm|1qkm_protein|mol2

> <Gold.Protein.RotatedTorsions>
[  496  491  490  487 ] final  -82.87 input  -89.99 | X-H torsion

> <Gold.Protein.ActiveResidues>
 MET295  LEU298  THR299  LEU301  ALA302  GLU305  TRP335  MET336  LEU339  MET340 
 GLY342  LEU343  ARG346  PHE356  ILE373  ILE376  PHE377  LEU380  LYS471  GLY472 
 MET473  HIS475  LEU476  LEU477  ASN478  MET479  VAL484  VAL487 

> <Gold.Protein.RotatedAtoms>
   36.6919   34.6937   41.1678 H   0  0  0  0  0  0  0  0  0  0  0  0  # atno 496  bound_to 491 

> <Gold.Score>
     Score     S(PLP)   S(hbond)     S(cho)   S(metal)  DE(clash)   DE(tors)     intcor
     42.81     -42.90       0.00       0.00       0.00       0.08       0.35       0.69

> <Gold.PLP.Fitness>
42.8073

> <Gold.PLP.PLP>
-42.8985

> <Gold.PLP.part.hbond>
0.0000

> <Gold.PLP.part.metal>
0.0000

> <Gold.PLP.part.buried>
-4.4412

> <Gold.PLP.part.nonpolar>
-38.9661

> <Gold.PLP.part.repulsive>
0.1421

> <Gold.PLP.ligand.clash>
0.0773

> <Gold.PLP.ligand.torsion>
0.3533

> <Gold.PLP.Chemscore.Hbond>
0.0000

> <Gold.PLP.Chemscore.CHOScore>
0.0000

> <Gold.PLP.Chemscore.Metal>
0.0000

> <Gold.PLP.Chemscore.Internal.Correction>
0.6927

