#       Name:                EN300-102549_i001
#       Creating user name   aseyller
#       Creation time:       Fri Apr 21 18:14:46 2023


#       File generated by GOLD software.
#

@<TRIPOS>MOLECULE
EN300-102549_i001|benzaldehydes|mol2|475|dock11
    25    25     1
SMALL
USER_CHARGES


@<TRIPOS>ATOM
      1 C1          31.7206  38.5043  34.5743 C.3            1 <1>                0.0000
      2 O2          30.4661  38.4680  35.2575 O.3            1 <1>                0.0000
      3 C3          30.3349  39.4528  36.2846 C.3            1 <1>                0.0000
      4 C4          29.1155  39.1281  37.1498 C.3            1 <1>                0.0000
      5 O5          29.1819  37.7651  37.5740 O.3            1 <1>                0.0000
      6 C6          28.1673  37.3124  38.3515 C.ar           1 <1>                0.0000
      7 C7          26.8946  37.8471  38.2179 C.ar           1 <1>                0.0000
      8 C8          25.8627  37.3852  39.0100 C.ar           1 <1>                0.0000
      9 C9          26.0869  36.3852  39.9436 C.ar           1 <1>                0.0000
     10 C10         27.3429  35.8412  40.0919 C.ar           1 <1>                0.0000
     11 C11         28.3987  36.2954  39.2920 C.ar           1 <1>                0.0000
     12 C12         29.7408  35.7206  39.4438 C.2            1 <1>                0.0000
     13 O13         30.6592  36.1385  38.7707 O.2            1 <1>                0.0000
     14 H14         31.8502  39.4789  34.1037 H              1 <1>                0.0000
     15 H15         32.5277  38.3349  35.2871 H              1 <1>                0.0000
     16 H16         31.7412  37.7267  33.8108 H              1 <1>                0.0000
     17 H17         31.2311  39.4524  36.9049 H              1 <1>                0.0000
     18 H18         30.2074  40.4359  35.8312 H              1 <1>                0.0000
     19 H19         29.1056  39.7804  38.0231 H              1 <1>                0.0000
     20 H20         28.2062  39.2842  36.5694 H              1 <1>                0.0000
     21 H21         26.7107  38.6264  37.4932 H              1 <1>                0.0000
     22 H22         24.8740  37.8060  38.9020 H              1 <1>                0.0000
     23 H23         25.2722  36.0314  40.5580 H              1 <1>                0.0000
     24 H24         27.5125  35.0626  40.8208 H              1 <1>                0.0000
     25 H25         29.9105  34.9255  40.1547 H              1 <1>                0.0000
@<TRIPOS>BOND
    1    1    2 1     
    2    1   14 1     
    3    1   15 1     
    4    1   16 1     
    5    2    3 1     
    6    3    4 1     
    7    3   17 1     
    8    3   18 1     
    9    4    5 1     
   10    4   19 1     
   11    4   20 1     
   12    5    6 1     
   13    6    7 ar    
   14    6   11 ar    
   15    7    8 ar    
   16    7   21 1     
   17    8    9 ar    
   18    8   22 1     
   19    9   10 ar    
   20    9   23 1     
   21   10   11 ar    
   22   10   24 1     
   23   11   12 1     
   24   12   13 2     
   25   12   25 1     
@<TRIPOS>SUBSTRUCTURE
      1 ****           1
@<TRIPOS>COMMENT
> <Gold.Version>
2022.2.0

> <Gold.Id.Protein>
1qkm|1qkm_protein|mol2

> <Gold.Protein.RotatedTorsions>
[  496  491  490  487 ] final   53.85 input  -89.99 | X-H torsion

> <Gold.Protein.ActiveResidues>
 MET295  LEU298  THR299  LEU301  ALA302  GLU305  TRP335  MET336  LEU339  MET340 
 GLY342  LEU343  ARG346  PHE356  ILE373  ILE376  PHE377  LEU380  LYS471  GLY472 
 MET473  HIS475  LEU476  LEU477  ASN478  MET479  VAL484  VAL487 

> <Gold.Protein.RotatedAtoms>
   36.5021   33.4008   42.3369 H   0  0  0  0  0  0  0  0  0  0  0  0  # atno 496  bound_to 491 

> <Gold.Score>
     Score     S(PLP)   S(hbond)     S(cho)   S(metal)  DE(clash)   DE(tors)     intcor
     43.15     -43.34       0.00       0.00       0.00       0.00       0.44       0.68

> <Gold.PLP.Fitness>
43.1485

> <Gold.PLP.PLP>
-43.3376

> <Gold.PLP.part.hbond>
0.0000

> <Gold.PLP.part.metal>
0.0000

> <Gold.PLP.part.buried>
-4.1104

> <Gold.PLP.part.nonpolar>
-39.4497

> <Gold.PLP.part.repulsive>
0.0758

> <Gold.PLP.ligand.clash>
0.0000

> <Gold.PLP.ligand.torsion>
0.4366

> <Gold.PLP.Chemscore.Hbond>
0.0000

> <Gold.PLP.Chemscore.CHOScore>
0.0000

> <Gold.PLP.Chemscore.Metal>
0.0000

> <Gold.PLP.Chemscore.Internal.Correction>
0.6840

