#       Name:                EN300-102549_i001
#       Creating user name   aseyller
#       Creation time:       Fri Apr 21 18:14:38 2023


#       File generated by GOLD software.
#

@<TRIPOS>MOLECULE
EN300-102549_i001|benzaldehydes|mol2|475|dock3
    25    25     1
SMALL
USER_CHARGES


@<TRIPOS>ATOM
      1 C1          26.5374  36.8983  38.8552 C.3            1 <1>                0.0000
      2 O2          27.8762  36.7848  38.3686 O.3            1 <1>                0.0000
      3 C3          28.8661  36.7303  39.3977 C.3            1 <1>                0.0000
      4 C4          30.2393  36.4788  38.7717 C.3            1 <1>                0.0000
      5 O5          30.5485  37.5359  37.8611 O.3            1 <1>                0.0000
      6 C6          31.4518  37.2647  36.8870 C.ar           1 <1>                0.0000
      7 C7          32.3786  36.2474  37.0594 C.ar           1 <1>                0.0000
      8 C8          33.2977  35.9723  36.0667 C.ar           1 <1>                0.0000
      9 C9          33.3036  36.7072  34.8912 C.ar           1 <1>                0.0000
     10 C10         32.3920  37.7212  34.7005 C.ar           1 <1>                0.0000
     11 C11         31.4500  38.0087  35.6958 C.ar           1 <1>                0.0000
     12 C12         30.4747  39.0881  35.5003 C.2            1 <1>                0.0000
     13 O13         29.7904  39.4629  36.4290 O.2            1 <1>                0.0000
     14 H14         26.3039  36.0368  39.4808 H              1 <1>                0.0000
     15 H15         26.4406  37.8111  39.4431 H              1 <1>                0.0000
     16 H16         25.8464  36.9337  38.0131 H              1 <1>                0.0000
     17 H17         28.8808  37.6768  39.9381 H              1 <1>                0.0000
     18 H18         28.6280  35.9213  40.0885 H              1 <1>                0.0000
     19 H19         30.9951  36.4424  39.5563 H              1 <1>                0.0000
     20 H20         30.2260  35.5298  38.2357 H              1 <1>                0.0000
     21 H21         32.3815  35.6696  37.9718 H              1 <1>                0.0000
     22 H22         34.0174  35.1794  36.2070 H              1 <1>                0.0000
     23 H23         34.0272  36.4834  34.1213 H              1 <1>                0.0000
     24 H24         32.4009  38.2910  33.7831 H              1 <1>                0.0000
     25 H25         30.3664  39.5487  34.5295 H              1 <1>                0.0000
@<TRIPOS>BOND
    1    1    2 1     
    2    1   14 1     
    3    1   15 1     
    4    1   16 1     
    5    2    3 1     
    6    3    4 1     
    7    3   17 1     
    8    3   18 1     
    9    4    5 1     
   10    4   19 1     
   11    4   20 1     
   12    5    6 1     
   13    6    7 ar    
   14    6   11 ar    
   15    7    8 ar    
   16    7   21 1     
   17    8    9 ar    
   18    8   22 1     
   19    9   10 ar    
   20    9   23 1     
   21   10   11 ar    
   22   10   24 1     
   23   11   12 1     
   24   12   13 2     
   25   12   25 1     
@<TRIPOS>SUBSTRUCTURE
      1 ****           1
@<TRIPOS>COMMENT
> <Gold.Version>
2022.2.0

> <Gold.Id.Protein>
1qkm|1qkm_protein|mol2

> <Gold.Protein.RotatedTorsions>
[  496  491  490  487 ] final   82.48 input  -89.99 | X-H torsion

> <Gold.Protein.ActiveResidues>
 MET295  LEU298  THR299  LEU301  ALA302  GLU305  TRP335  MET336  LEU339  MET340 
 GLY342  LEU343  ARG346  PHE356  ILE373  ILE376  PHE377  LEU380  LYS471  GLY472 
 MET473  HIS475  LEU476  LEU477  ASN478  MET479  VAL484  VAL487 

> <Gold.Protein.RotatedAtoms>
   36.7508   33.0781   42.1096 H   0  0  0  0  0  0  0  0  0  0  0  0  # atno 496  bound_to 491 

> <Gold.Score>
     Score     S(PLP)   S(hbond)     S(cho)   S(metal)  DE(clash)   DE(tors)     intcor
     41.59     -41.88       0.00       0.00       0.00       0.00       0.49       0.69

> <Gold.PLP.Fitness>
41.5935

> <Gold.PLP.PLP>
-41.8779

> <Gold.PLP.part.hbond>
0.0000

> <Gold.PLP.part.metal>
0.0000

> <Gold.PLP.part.buried>
-4.1334

> <Gold.PLP.part.nonpolar>
-37.7942

> <Gold.PLP.part.repulsive>
0.0000

> <Gold.PLP.ligand.clash>
0.0006

> <Gold.PLP.ligand.torsion>
0.4882

> <Gold.PLP.Chemscore.Hbond>
0.0000

> <Gold.PLP.Chemscore.CHOScore>
0.0000

> <Gold.PLP.Chemscore.Metal>
0.0000

> <Gold.PLP.Chemscore.Internal.Correction>
0.6927

