#       Name:                EN300-102549_i001
#       Creating user name   aseyller
#       Creation time:       Fri Apr 21 18:14:39 2023


#       File generated by GOLD software.
#

@<TRIPOS>MOLECULE
EN300-102549_i001|benzaldehydes|mol2|475|dock4
    25    25     1
SMALL
USER_CHARGES


@<TRIPOS>ATOM
      1 C1          25.8107  37.1771  39.9954 C.3            1 <1>                0.0000
      2 O2          26.5181  36.6778  38.8587 O.3            1 <1>                0.0000
      3 C3          27.2766  35.4951  39.1196 C.3            1 <1>                0.0000
      4 C4          28.4014  35.8177  40.1054 C.3            1 <1>                0.0000
      5 O5          29.3569  36.6728  39.4745 O.3            1 <1>                0.0000
      6 C6          30.3539  36.0734  38.7779 C.ar           1 <1>                0.0000
      7 C7          30.7541  34.7856  39.1019 C.ar           1 <1>                0.0000
      8 C8          31.7692  34.1765  38.3917 C.ar           1 <1>                0.0000
      9 C9          32.3968  34.8434  37.3509 C.ar           1 <1>                0.0000
     10 C10         32.0145  36.1223  37.0136 C.ar           1 <1>                0.0000
     11 C11         30.9827  36.7514  37.7209 C.ar           1 <1>                0.0000
     12 C12         30.5692  38.1147  37.3675 C.2            1 <1>                0.0000
     13 O13         31.0931  38.6847  36.4338 O.2            1 <1>                0.0000
     14 H14         25.1126  36.4192  40.3508 H              1 <1>                0.0000
     15 H15         26.5196  37.4181  40.7876 H              1 <1>                0.0000
     16 H16         25.2602  38.0752  39.7152 H              1 <1>                0.0000
     17 H17         26.6255  34.7331  39.5479 H              1 <1>                0.0000
     18 H18         27.7049  35.1252  38.1880 H              1 <1>                0.0000
     19 H19         27.9858  36.3196  40.9793 H              1 <1>                0.0000
     20 H20         28.8894  34.8936  40.4150 H              1 <1>                0.0000
     21 H21         30.2708  34.2585  39.9111 H              1 <1>                0.0000
     22 H22         32.0770  33.1739  38.6491 H              1 <1>                0.0000
     23 H23         33.1898  34.3573  36.8021 H              1 <1>                0.0000
     24 H24         32.5067  36.6377  36.2021 H              1 <1>                0.0000
     25 H25         29.7983  38.6103  37.9389 H              1 <1>                0.0000
@<TRIPOS>BOND
    1    1    2 1     
    2    1   14 1     
    3    1   15 1     
    4    1   16 1     
    5    2    3 1     
    6    3    4 1     
    7    3   17 1     
    8    3   18 1     
    9    4    5 1     
   10    4   19 1     
   11    4   20 1     
   12    5    6 1     
   13    6    7 ar    
   14    6   11 ar    
   15    7    8 ar    
   16    7   21 1     
   17    8    9 ar    
   18    8   22 1     
   19    9   10 ar    
   20    9   23 1     
   21   10   11 ar    
   22   10   24 1     
   23   11   12 1     
   24   12   13 2     
   25   12   25 1     
@<TRIPOS>SUBSTRUCTURE
      1 ****           1
@<TRIPOS>COMMENT
> <Gold.Version>
2022.2.0

> <Gold.Id.Protein>
1qkm|1qkm_protein|mol2

> <Gold.Protein.RotatedTorsions>
[  496  491  490  487 ] final  -23.89 input  -89.99 | X-H torsion

> <Gold.Protein.ActiveResidues>
 MET295  LEU298  THR299  LEU301  ALA302  GLU305  TRP335  MET336  LEU339  MET340 
 GLY342  LEU343  ARG346  PHE356  ILE373  ILE376  PHE377  LEU380  LYS471  GLY472 
 MET473  HIS475  LEU476  LEU477  ASN478  MET479  VAL484  VAL487 

> <Gold.Protein.RotatedAtoms>
   36.2923   34.5117   41.9861 H   0  0  0  0  0  0  0  0  0  0  0  0  # atno 496  bound_to 491 

> <Gold.Score>
     Score     S(PLP)   S(hbond)     S(cho)   S(metal)  DE(clash)   DE(tors)     intcor
     42.32     -42.72       0.00       0.00       0.00       0.00       0.55       0.69

> <Gold.PLP.Fitness>
42.3215

> <Gold.PLP.PLP>
-42.7225

> <Gold.PLP.part.hbond>
0.0000

> <Gold.PLP.part.metal>
0.0000

> <Gold.PLP.part.buried>
-3.8516

> <Gold.PLP.part.nonpolar>
-39.0736

> <Gold.PLP.part.repulsive>
0.1006

> <Gold.PLP.ligand.clash>
0.0000

> <Gold.PLP.ligand.torsion>
0.5469

> <Gold.PLP.Chemscore.Hbond>
0.0000

> <Gold.PLP.Chemscore.CHOScore>
0.0000

> <Gold.PLP.Chemscore.Metal>
0.0000

> <Gold.PLP.Chemscore.Internal.Correction>
0.6927

