#       Name:                EN300-102549_i001
#       Creating user name   aseyller
#       Creation time:       Fri Apr 21 18:14:44 2023


#       File generated by GOLD software.
#

@<TRIPOS>MOLECULE
EN300-102549_i001|benzaldehydes|mol2|475|dock9
    25    25     1
SMALL
USER_CHARGES


@<TRIPOS>ATOM
      1 C1          25.8764  36.9120  39.5868 C.3            1 <1>                0.0000
      2 O2          26.7161  37.3067  38.5001 O.3            1 <1>                0.0000
      3 C3          28.0994  37.0064  38.6956 C.3            1 <1>                0.0000
      4 C4          28.9224  37.6380  37.5710 C.3            1 <1>                0.0000
      5 O5          30.2912  37.2508  37.7072 O.3            1 <1>                0.0000
      6 C6          31.0757  37.3654  36.6072 C.ar           1 <1>                0.0000
      7 C7          30.7389  38.2583  35.6007 C.ar           1 <1>                0.0000
      8 C8          31.5385  38.3739  34.4813 C.ar           1 <1>                0.0000
      9 C9          32.6826  37.6018  34.3523 C.ar           1 <1>                0.0000
     10 C10         33.0346  36.7096  35.3400 C.ar           1 <1>                0.0000
     11 C11         32.2366  36.5847  36.4839 C.ar           1 <1>                0.0000
     12 C12         32.6048  35.6359  37.5415 C.2            1 <1>                0.0000
     13 O13         31.8594  35.4559  38.4814 O.2            1 <1>                0.0000
     14 H14         25.9540  35.8347  39.7334 H              1 <1>                0.0000
     15 H15         26.1917  37.4259  40.4949 H              1 <1>                0.0000
     16 H16         24.8428  37.1743  39.3612 H              1 <1>                0.0000
     17 H17         28.4263  37.4080  39.6548 H              1 <1>                0.0000
     18 H18         28.2414  35.9256  38.6870 H              1 <1>                0.0000
     19 H19         28.5426  37.2974  36.6076 H              1 <1>                0.0000
     20 H20         28.8442  38.7235  37.6291 H              1 <1>                0.0000
     21 H21         29.8494  38.8638  35.6927 H              1 <1>                0.0000
     22 H22         31.2707  39.0703  33.7006 H              1 <1>                0.0000
     23 H23         33.3009  37.7005  33.4723 H              1 <1>                0.0000
     24 H24         33.9267  36.1102  35.2346 H              1 <1>                0.0000
     25 H25         33.5394  35.0980  37.4830 H              1 <1>                0.0000
@<TRIPOS>BOND
    1    1    2 1     
    2    1   14 1     
    3    1   15 1     
    4    1   16 1     
    5    2    3 1     
    6    3    4 1     
    7    3   17 1     
    8    3   18 1     
    9    4    5 1     
   10    4   19 1     
   11    4   20 1     
   12    5    6 1     
   13    6    7 ar    
   14    6   11 ar    
   15    7    8 ar    
   16    7   21 1     
   17    8    9 ar    
   18    8   22 1     
   19    9   10 ar    
   20    9   23 1     
   21   10   11 ar    
   22   10   24 1     
   23   11   12 1     
   24   12   13 2     
   25   12   25 1     
@<TRIPOS>SUBSTRUCTURE
      1 ****           1
@<TRIPOS>COMMENT
> <Gold.Version>
2022.2.0

> <Gold.Id.Protein>
1qkm|1qkm_protein|mol2

> <Gold.Protein.RotatedTorsions>
[  496  491  490  487 ] final   -3.75 input  -89.99 | X-H torsion

> <Gold.Protein.ActiveResidues>
 MET295  LEU298  THR299  LEU301  ALA302  GLU305  TRP335  MET336  LEU339  MET340 
 GLY342  LEU343  ARG346  PHE356  ILE373  ILE376  PHE377  LEU380  LYS471  GLY472 
 MET473  HIS475  LEU476  LEU477  ASN478  MET479  VAL484  VAL487 

> <Gold.Protein.RotatedAtoms>
   36.2588   34.2662   42.2036 H   0  0  0  0  0  0  0  0  0  0  0  0  # atno 496  bound_to 491 

> <Gold.Score>
     Score     S(PLP)   S(hbond)     S(cho)   S(metal)  DE(clash)   DE(tors)     intcor
     41.82     -42.04       0.00       0.00       0.00       0.00       0.45       0.68

> <Gold.PLP.Fitness>
41.8186

> <Gold.PLP.PLP>
-42.0403

> <Gold.PLP.part.hbond>
0.0000

> <Gold.PLP.part.metal>
0.0000

> <Gold.PLP.part.buried>
-4.3368

> <Gold.PLP.part.nonpolar>
-38.0189

> <Gold.PLP.part.repulsive>
0.0942

> <Gold.PLP.ligand.clash>
0.0000

> <Gold.PLP.ligand.torsion>
0.4528

> <Gold.PLP.Chemscore.Hbond>
0.0000

> <Gold.PLP.Chemscore.CHOScore>
0.0000

> <Gold.PLP.Chemscore.Metal>
0.0000

> <Gold.PLP.Chemscore.Internal.Correction>
0.6840

