#       Name:                EN300-102549_i001
#       Creating user name   aseyller
#       Creation time:       Fri Apr 21 18:14:42 2023


#       File generated by GOLD software.
#

@<TRIPOS>MOLECULE
EN300-102549_i001|benzaldehydes|mol2|475|dock7
    25    25     1
SMALL
USER_CHARGES


@<TRIPOS>ATOM
      1 C1          26.8242  36.4444  38.5562 C.3            1 <1>                0.0000
      2 O2          28.0131  35.7801  38.9887 O.3            1 <1>                0.0000
      3 C3          29.0370  36.6633  39.4509 C.3            1 <1>                0.0000
      4 C4          29.6584  37.3924  38.2579 C.3            1 <1>                0.0000
      5 O5          30.4971  36.4908  37.5328 O.3            1 <1>                0.0000
      6 C6          31.1279  36.9826  36.4379 C.ar           1 <1>                0.0000
      7 C7          30.5601  38.0202  35.7136 C.ar           1 <1>                0.0000
      8 C8          31.2035  38.5200  34.5991 C.ar           1 <1>                0.0000
      9 C9          32.4196  37.9919  34.1939 C.ar           1 <1>                0.0000
     10 C10         33.0000  36.9617  34.8991 C.ar           1 <1>                0.0000
     11 C11         32.3624  36.4477  36.0349 C.ar           1 <1>                0.0000
     12 C12         32.9744  35.3494  36.7923 C.2            1 <1>                0.0000
     13 O13         32.3224  34.7439  37.6165 O.2            1 <1>                0.0000
     14 H14         26.4058  37.0166  39.3842 H              1 <1>                0.0000
     15 H15         27.0632  37.1182  37.7333 H              1 <1>                0.0000
     16 H16         26.0964  35.7055  38.2209 H              1 <1>                0.0000
     17 H17         28.6058  37.3917  40.1376 H              1 <1>                0.0000
     18 H18         29.8067  36.0890  39.9668 H              1 <1>                0.0000
     19 H19         28.8671  37.7584  37.6036 H              1 <1>                0.0000
     20 H20         30.2523  38.2335  38.6153 H              1 <1>                0.0000
     21 H21         29.6131  38.4377  36.0219 H              1 <1>                0.0000
     22 H22         30.7561  39.3275  34.0387 H              1 <1>                0.0000
     23 H23         32.9141  38.3907  33.3205 H              1 <1>                0.0000
     24 H24         33.9474  36.5537  34.5793 H              1 <1>                0.0000
     25 H25         34.0053  35.0805  36.6156 H              1 <1>                0.0000
@<TRIPOS>BOND
    1    1    2 1     
    2    1   14 1     
    3    1   15 1     
    4    1   16 1     
    5    2    3 1     
    6    3    4 1     
    7    3   17 1     
    8    3   18 1     
    9    4    5 1     
   10    4   19 1     
   11    4   20 1     
   12    5    6 1     
   13    6    7 ar    
   14    6   11 ar    
   15    7    8 ar    
   16    7   21 1     
   17    8    9 ar    
   18    8   22 1     
   19    9   10 ar    
   20    9   23 1     
   21   10   11 ar    
   22   10   24 1     
   23   11   12 1     
   24   12   13 2     
   25   12   25 1     
@<TRIPOS>SUBSTRUCTURE
      1 ****           1
@<TRIPOS>COMMENT
> <Gold.Version>
2022.2.0

> <Gold.Id.Protein>
1qkm|1qkm_protein|mol2

> <Gold.Protein.RotatedTorsions>
[  496  491  490  487 ] final -163.87 input  -89.99 | X-H torsion

> <Gold.Protein.ActiveResidues>
 MET295  LEU298  THR299  LEU301  ALA302  GLU305  TRP335  MET336  LEU339  MET340 
 GLY342  LEU343  ARG346  PHE356  ILE373  ILE376  PHE377  LEU380  LYS471  GLY472 
 MET473  HIS475  LEU476  LEU477  ASN478  MET479  VAL484  VAL487 

> <Gold.Protein.RotatedAtoms>
   37.2883   33.7031   40.7631 H   0  0  0  0  0  0  0  0  0  0  0  0  # atno 496  bound_to 491 

> <Gold.Score>
     Score     S(PLP)   S(hbond)     S(cho)   S(metal)  DE(clash)   DE(tors)     intcor
     42.45     -42.76       0.00       0.00       0.00       0.00       0.50       0.69

> <Gold.PLP.Fitness>
42.4524

> <Gold.PLP.PLP>
-42.7623

> <Gold.PLP.part.hbond>
0.0000

> <Gold.PLP.part.metal>
0.0000

> <Gold.PLP.part.buried>
-4.1751

> <Gold.PLP.part.nonpolar>
-38.9358

> <Gold.PLP.part.repulsive>
0.0261

> <Gold.PLP.ligand.clash>
0.0000

> <Gold.PLP.ligand.torsion>
0.5013

> <Gold.PLP.Chemscore.Hbond>
0.0000

> <Gold.PLP.Chemscore.CHOScore>
0.0000

> <Gold.PLP.Chemscore.Metal>
0.0000

> <Gold.PLP.Chemscore.Internal.Correction>
0.6927

