#       Name:                EN300-102549_i001
#       Creating user name   aseyller
#       Creation time:       Fri Apr 21 18:14:47 2023


#       File generated by GOLD software.
#

@<TRIPOS>MOLECULE
EN300-102549_i001|benzaldehydes|mol2|475|dock12
    25    25     1
SMALL
USER_CHARGES


@<TRIPOS>ATOM
      1 C1          25.5426  37.2777  41.2007 C.3            1 <1>                0.0000
      2 O2          26.4540  36.5002  40.4218 O.3            1 <1>                0.0000
      3 C3          26.1072  36.4111  39.0384 C.3            1 <1>                0.0000
      4 C4          26.8933  37.4583  38.2471 C.3            1 <1>                0.0000
      5 O5          28.2903  37.2980  38.5018 O.3            1 <1>                0.0000
      6 C6          29.1445  37.9818  37.7009 C.ar           1 <1>                0.0000
      7 C7          28.7197  39.1289  37.0471 C.ar           1 <1>                0.0000
      8 C8          29.5905  39.8242  36.2320 C.ar           1 <1>                0.0000
      9 C9          30.8939  39.3847  36.0595 C.ar           1 <1>                0.0000
     10 C10         31.3352  38.2483  36.6995 C.ar           1 <1>                0.0000
     11 C11         30.4655  37.5353  37.5338 C.ar           1 <1>                0.0000
     12 C12         30.9281  36.3229  38.2197 C.2            1 <1>                0.0000
     13 O13         32.0494  35.9047  38.0224 O.2            1 <1>                0.0000
     14 H14         25.5082  38.2953  40.8115 H              1 <1>                0.0000
     15 H15         24.5483  36.8343  41.1464 H              1 <1>                0.0000
     16 H16         25.8757  37.2967  42.2383 H              1 <1>                0.0000
     17 H17         26.3507  35.4161  38.6662 H              1 <1>                0.0000
     18 H18         25.0389  36.5922  38.9192 H              1 <1>                0.0000
     19 H19         26.7010  37.3286  37.1820 H              1 <1>                0.0000
     20 H20         26.5801  38.4562  38.5539 H              1 <1>                0.0000
     21 H21         27.7061  39.4787  37.1756 H              1 <1>                0.0000
     22 H22         29.2538  40.7162  35.7250 H              1 <1>                0.0000
     23 H23         31.5665  39.9364  35.4195 H              1 <1>                0.0000
     24 H24         32.3515  37.9100  36.5616 H              1 <1>                0.0000
     25 H25         30.2699  35.8032  38.9003 H              1 <1>                0.0000
@<TRIPOS>BOND
    1    1    2 1     
    2    1   14 1     
    3    1   15 1     
    4    1   16 1     
    5    2    3 1     
    6    3    4 1     
    7    3   17 1     
    8    3   18 1     
    9    4    5 1     
   10    4   19 1     
   11    4   20 1     
   12    5    6 1     
   13    6    7 ar    
   14    6   11 ar    
   15    7    8 ar    
   16    7   21 1     
   17    8    9 ar    
   18    8   22 1     
   19    9   10 ar    
   20    9   23 1     
   21   10   11 ar    
   22   10   24 1     
   23   11   12 1     
   24   12   13 2     
   25   12   25 1     
@<TRIPOS>SUBSTRUCTURE
      1 ****           1
@<TRIPOS>COMMENT
> <Gold.Version>
2022.2.0

> <Gold.Id.Protein>
1qkm|1qkm_protein|mol2

> <Gold.Protein.RotatedTorsions>
[  496  491  490  487 ] final  101.44 input  -89.99 | X-H torsion

> <Gold.Protein.ActiveResidues>
 MET295  LEU298  THR299  LEU301  ALA302  GLU305  TRP335  MET336  LEU339  MET340 
 GLY342  LEU343  ARG346  PHE356  ILE373  ILE376  PHE377  LEU380  LYS471  GLY472 
 MET473  HIS475  LEU476  LEU477  ASN478  MET479  VAL484  VAL487 

> <Gold.Protein.RotatedAtoms>
   36.9246   32.9636   41.8790 H   0  0  0  0  0  0  0  0  0  0  0  0  # atno 496  bound_to 491 

> <Gold.Score>
     Score     S(PLP)   S(hbond)     S(cho)   S(metal)  DE(clash)   DE(tors)     intcor
     41.89     -42.47       0.00       0.00       0.00       0.00       0.63       0.68

> <Gold.PLP.Fitness>
41.8945

> <Gold.PLP.PLP>
-42.4719

> <Gold.PLP.part.hbond>
0.0000

> <Gold.PLP.part.metal>
0.0000

> <Gold.PLP.part.buried>
-3.2161

> <Gold.PLP.part.nonpolar>
-39.8196

> <Gold.PLP.part.repulsive>
0.1539

> <Gold.PLP.ligand.clash>
0.0000

> <Gold.PLP.ligand.torsion>
0.6307

> <Gold.PLP.Chemscore.Hbond>
0.0000

> <Gold.PLP.Chemscore.CHOScore>
0.0000

> <Gold.PLP.Chemscore.Metal>
0.0000

> <Gold.PLP.Chemscore.Internal.Correction>
0.6840

