#       Name:                EN300-102549_i001
#       Creating user name   aseyller
#       Creation time:       Fri Apr 21 18:14:53 2023


#       File generated by GOLD software.
#

@<TRIPOS>MOLECULE
EN300-102549_i001|benzaldehydes|mol2|475|dock17
    25    25     1
SMALL
USER_CHARGES


@<TRIPOS>ATOM
      1 C1          32.6994  35.8349  37.6631 C.3            1 <1>                0.0000
      2 O2          32.0906  34.5427  37.7007 O.3            1 <1>                0.0000
      3 C3          31.1284  34.3836  38.7451 C.3            1 <1>                0.0000
      4 C4          30.0628  35.4751  38.6273 C.3            1 <1>                0.0000
      5 O5          29.0829  35.2967  39.6521 O.3            1 <1>                0.0000
      6 C6          27.9565  36.0464  39.5639 C.ar           1 <1>                0.0000
      7 C7          27.5395  36.5361  38.3351 C.ar           1 <1>                0.0000
      8 C8          26.3924  37.2991  38.2468 C.ar           1 <1>                0.0000
      9 C9          25.6479  37.5825  39.3814 C.ar           1 <1>                0.0000
     10 C10         26.0447  37.1059  40.6106 C.ar           1 <1>                0.0000
     11 C11         27.2029  36.3260  40.7156 C.ar           1 <1>                0.0000
     12 C12         27.6328  35.8141  42.0223 C.2            1 <1>                0.0000
     13 O13         28.7912  35.5009  42.1999 O.2            1 <1>                0.0000
     14 H14         31.9320  36.5940  37.5118 H              1 <1>                0.0000
     15 H15         33.2141  36.0216  38.6057 H              1 <1>                0.0000
     16 H16         33.4167  35.8751  36.8435 H              1 <1>                0.0000
     17 H17         30.6570  33.4046  38.6587 H              1 <1>                0.0000
     18 H18         31.6251  34.4635  39.7121 H              1 <1>                0.0000
     19 H19         30.5308  36.4533  38.7385 H              1 <1>                0.0000
     20 H20         29.5831  35.4108  37.6507 H              1 <1>                0.0000
     21 H21         28.1132  36.3203  37.4460 H              1 <1>                0.0000
     22 H22         26.0731  37.6783  37.2873 H              1 <1>                0.0000
     23 H23         24.7522  38.1805  39.3006 H              1 <1>                0.0000
     24 H24         25.4614  37.3297  41.4915 H              1 <1>                0.0000
     25 H25         26.9178  35.7162  42.8258 H              1 <1>                0.0000
@<TRIPOS>BOND
    1    1    2 1     
    2    1   14 1     
    3    1   15 1     
    4    1   16 1     
    5    2    3 1     
    6    3    4 1     
    7    3   17 1     
    8    3   18 1     
    9    4    5 1     
   10    4   19 1     
   11    4   20 1     
   12    5    6 1     
   13    6    7 ar    
   14    6   11 ar    
   15    7    8 ar    
   16    7   21 1     
   17    8    9 ar    
   18    8   22 1     
   19    9   10 ar    
   20    9   23 1     
   21   10   11 ar    
   22   10   24 1     
   23   11   12 1     
   24   12   13 2     
   25   12   25 1     
@<TRIPOS>SUBSTRUCTURE
      1 ****           1
@<TRIPOS>COMMENT
> <Gold.Version>
2022.2.0

> <Gold.Id.Protein>
1qkm|1qkm_protein|mol2

> <Gold.Protein.RotatedTorsions>
[  496  491  490  487 ] final   29.92 input  -89.99 | X-H torsion

> <Gold.Protein.ActiveResidues>
 MET295  LEU298  THR299  LEU301  ALA302  GLU305  TRP335  MET336  LEU339  MET340 
 GLY342  LEU343  ARG346  PHE356  ILE373  ILE376  PHE377  LEU380  LYS471  GLY472 
 MET473  HIS475  LEU476  LEU477  ASN478  MET479  VAL484  VAL487 

> <Gold.Protein.RotatedAtoms>
   36.3459   33.7567   42.3805 H   0  0  0  0  0  0  0  0  0  0  0  0  # atno 496  bound_to 491 

> <Gold.Score>
     Score     S(PLP)   S(hbond)     S(cho)   S(metal)  DE(clash)   DE(tors)     intcor
     41.53     -41.80       0.00       0.00       0.00       0.00       0.48       0.68

> <Gold.PLP.Fitness>
41.5257

> <Gold.PLP.PLP>
-41.7970

> <Gold.PLP.part.hbond>
-1.0000

> <Gold.PLP.part.metal>
0.0000

> <Gold.PLP.part.buried>
-1.6328

> <Gold.PLP.part.nonpolar>
-41.2904

> <Gold.PLP.part.repulsive>
0.8915

> <Gold.PLP.ligand.clash>
0.0000

> <Gold.PLP.ligand.torsion>
0.4777

> <Gold.PLP.Chemscore.Hbond>
0.0000

> <Gold.PLP.Chemscore.CHOScore>
0.0000

> <Gold.PLP.Chemscore.Metal>
0.0000

> <Gold.PLP.Chemscore.Internal.Correction>
0.6840

