#       Name:                EN300-102549_i001
#       Creating user name   aseyller
#       Creation time:       Fri Apr 21 18:14:35 2023


#       File generated by GOLD software.
#

@<TRIPOS>MOLECULE
EN300-102549_i001
    25    25     1
SMALL
USER_CHARGES


@<TRIPOS>ATOM
      1 C1           4.2303  -1.0048  -0.4755 C.3            1 <1>                0.0000
      2 O2           2.9254  -0.4322  -0.5817 O.3            1 <1>                0.0000
      3 C3           2.5345   0.3386   0.5563 C.3            1 <1>                0.0000
      4 C4           1.1288   0.9001   0.3335 C.3            1 <1>                0.0000
      5 O5           0.1912  -0.1762   0.2657 O.3            1 <1>                0.0000
      6 C6          -1.1098   0.1522   0.0702 C.ar           1 <1>                0.0000
      7 C7          -1.4818   1.4825  -0.0545 C.ar           1 <1>                0.0000
      8 C8          -2.8067   1.8154  -0.2536 C.ar           1 <1>                0.0000
      9 C9          -3.7756   0.8269  -0.3310 C.ar           1 <1>                0.0000
     10 C10         -3.4271  -0.4995  -0.2097 C.ar           1 <1>                0.0000
     11 C11         -2.0867  -0.8534  -0.0129 C.ar           1 <1>                0.0000
     12 C12         -1.7068  -2.2652   0.1174 C.2            1 <1>                0.0000
     13 O13         -2.5551  -3.1299   0.0546 O.2            1 <1>                0.0000
     14 H14          4.9672  -0.2105  -0.3565 H              1 <1>                0.0000
     15 H15          4.2672  -1.6671   0.3895 H              1 <1>                0.0000
     16 H16          4.4521  -1.5738  -1.3783 H              1 <1>                0.0000
     17 H17          2.5362  -0.2957   1.4427 H              1 <1>                0.0000
     18 H18          3.2362   1.1609   0.6967 H              1 <1>                0.0000
     19 H19          0.8657   1.5596   1.1606 H              1 <1>                0.0000
     20 H20          1.1056   1.4616  -0.6004 H              1 <1>                0.0000
     21 H21         -0.7338   2.2592   0.0045 H              1 <1>                0.0000
     22 H22         -3.0904   2.8530  -0.3492 H              1 <1>                0.0000
     23 H23         -4.8091   1.0988  -0.4870 H              1 <1>                0.0000
     24 H24         -4.1857  -1.2658  -0.2705 H              1 <1>                0.0000
     25 H25         -0.6719  -2.5341   0.2692 H              1 <1>                0.0000
@<TRIPOS>BOND
    1    1    2 1     
    2    1   14 1     
    3    1   15 1     
    4    1   16 1     
    5    2    3 1     
    6    3    4 1     
    7    3   17 1     
    8    3   18 1     
    9    4    5 1     
   10    4   19 1     
   11    4   20 1     
   12    5    6 1     
   13    6    7 ar    
   14    6   11 ar    
   15    7    8 ar    
   16    7   21 1     
   17    8    9 ar    
   18    8   22 1     
   19    9   10 ar    
   20    9   23 1     
   21   10   11 ar    
   22   10   24 1     
   23   11   12 1     
   24   12   13 2     
   25   12   25 1     
@<TRIPOS>SUBSTRUCTURE
      1 ****           1
