#       Name:                EN300-102549_i001
#       Creating user name   aseyller
#       Creation time:       Fri Apr 21 18:14:52 2023


#       File generated by GOLD software.
#

@<TRIPOS>MOLECULE
EN300-102549_i001|benzaldehydes|mol2|475|dock16
    25    25     1
SMALL
USER_CHARGES


@<TRIPOS>ATOM
      1 C1          26.5344  36.4623  38.7991 C.3            1 <1>                0.0000
      2 O2          27.2097  36.9294  39.9685 O.3            1 <1>                0.0000
      3 C3          28.5632  36.4836  40.0752 C.3            1 <1>                0.0000
      4 C4          29.3965  37.1111  38.9560 C.3            1 <1>                0.0000
      5 O5          30.5984  36.3589  38.7780 O.3            1 <1>                0.0000
      6 C6          31.2738  36.5434  37.6167 C.ar           1 <1>                0.0000
      7 C7          31.2190  37.7666  36.9652 C.ar           1 <1>                0.0000
      8 C8          31.9072  37.9530  35.7831 C.ar           1 <1>                0.0000
      9 C9          32.6577  36.9233  35.2370 C.ar           1 <1>                0.0000
     10 C10         32.7251  35.7015  35.8680 C.ar           1 <1>                0.0000
     11 C11         32.0371  35.4986  37.0706 C.ar           1 <1>                0.0000
     12 C12         32.1037  34.1990  37.7496 C.2            1 <1>                0.0000
     13 O13         31.4836  34.0187  38.7764 O.2            1 <1>                0.0000
     14 H14         27.0597  36.8139  37.9111 H              1 <1>                0.0000
     15 H15         26.5146  35.3724  38.8018 H              1 <1>                0.0000
     16 H16         25.5135  36.8440  38.7921 H              1 <1>                0.0000
     17 H17         28.9690  36.7824  41.0417 H              1 <1>                0.0000
     18 H18         28.5961  35.3976  39.9875 H              1 <1>                0.0000
     19 H19         28.8232  37.1047  38.0288 H              1 <1>                0.0000
     20 H20         29.6466  38.1383  39.2213 H              1 <1>                0.0000
     21 H21         30.6369  38.5744  37.3833 H              1 <1>                0.0000
     22 H22         31.8601  38.9075  35.2800 H              1 <1>                0.0000
     23 H23         33.1921  37.0803  34.3117 H              1 <1>                0.0000
     24 H24         33.3110  34.9024  35.4384 H              1 <1>                0.0000
     25 H25         32.7048  33.4033  37.3350 H              1 <1>                0.0000
@<TRIPOS>BOND
    1    1    2 1     
    2    1   14 1     
    3    1   15 1     
    4    1   16 1     
    5    2    3 1     
    6    3    4 1     
    7    3   17 1     
    8    3   18 1     
    9    4    5 1     
   10    4   19 1     
   11    4   20 1     
   12    5    6 1     
   13    6    7 ar    
   14    6   11 ar    
   15    7    8 ar    
   16    7   21 1     
   17    8    9 ar    
   18    8   22 1     
   19    9   10 ar    
   20    9   23 1     
   21   10   11 ar    
   22   10   24 1     
   23   11   12 1     
   24   12   13 2     
   25   12   25 1     
@<TRIPOS>SUBSTRUCTURE
      1 ****           1
@<TRIPOS>COMMENT
> <Gold.Version>
2022.2.0

> <Gold.Id.Protein>
1qkm|1qkm_protein|mol2

> <Gold.Protein.RotatedTorsions>
[  496  491  490  487 ] final   29.81 input  -89.99 | X-H torsion

> <Gold.Protein.ActiveResidues>
 MET295  LEU298  THR299  LEU301  ALA302  GLU305  TRP335  MET336  LEU339  MET340 
 GLY342  LEU343  ARG346  PHE356  ILE373  ILE376  PHE377  LEU380  LYS471  GLY472 
 MET473  HIS475  LEU476  LEU477  ASN478  MET479  VAL484  VAL487 

> <Gold.Protein.RotatedAtoms>
   36.3454   33.7583   42.3804 H   0  0  0  0  0  0  0  0  0  0  0  0  # atno 496  bound_to 491 

> <Gold.Score>
     Score     S(PLP)   S(hbond)     S(cho)   S(metal)  DE(clash)   DE(tors)     intcor
     40.78     -41.18       0.00       0.00       0.00       0.00       0.54       0.68

> <Gold.PLP.Fitness>
40.7800

> <Gold.PLP.PLP>
-41.1833

> <Gold.PLP.part.hbond>
0.0000

> <Gold.PLP.part.metal>
0.0000

> <Gold.PLP.part.buried>
-4.1355

> <Gold.PLP.part.nonpolar>
-37.1944

> <Gold.PLP.part.repulsive>
0.1766

> <Gold.PLP.ligand.clash>
0.0000

> <Gold.PLP.ligand.torsion>
0.5436

> <Gold.PLP.Chemscore.Hbond>
0.0000

> <Gold.PLP.Chemscore.CHOScore>
0.0000

> <Gold.PLP.Chemscore.Metal>
0.0000

> <Gold.PLP.Chemscore.Internal.Correction>
0.6840

