#       Name:                EN300-102549_i001
#       Creating user name   aseyller
#       Creation time:       Fri Apr 21 18:14:36 2023


#       File generated by GOLD software.
#

@<TRIPOS>MOLECULE
EN300-102549_i001|benzaldehydes|mol2|475|dock1
    25    25     1
SMALL
USER_CHARGES


@<TRIPOS>ATOM
      1 C1          28.5052  36.3923  41.7442 C.3            1 <1>                0.0000
      2 O2          29.3504  36.7903  40.6629 O.3            1 <1>                0.0000
      3 C3          29.5472  35.7763  39.6754 C.3            1 <1>                0.0000
      4 C4          30.7003  36.1789  38.7540 C.3            1 <1>                0.0000
      5 O5          30.1953  36.9713  37.6773 O.3            1 <1>                0.0000
      6 C6          31.0155  37.1593  36.6140 C.ar           1 <1>                0.0000
      7 C7          32.0277  36.2501  36.3450 C.ar           1 <1>                0.0000
      8 C8          32.8619  36.4427  35.2621 C.ar           1 <1>                0.0000
      9 C9          32.6969  37.5430  34.4350 C.ar           1 <1>                0.0000
     10 C10         31.6983  38.4572  34.6847 C.ar           1 <1>                0.0000
     11 C11         30.8407  38.2728  35.7761 C.ar           1 <1>                0.0000
     12 C12         29.7735  39.2428  36.0493 C.2            1 <1>                0.0000
     13 O13         29.0266  39.0741  36.9900 O.2            1 <1>                0.0000
     14 H14         27.5218  36.1248  41.3575 H              1 <1>                0.0000
     15 H15         28.9431  35.5317  42.2500 H              1 <1>                0.0000
     16 H16         28.4059  37.2167  42.4503 H              1 <1>                0.0000
     17 H17         29.7864  34.8329  40.1661 H              1 <1>                0.0000
     18 H18         28.6364  35.6595  39.0880 H              1 <1>                0.0000
     19 H19         31.4318  36.7570  39.3187 H              1 <1>                0.0000
     20 H20         31.1756  35.2832  38.3541 H              1 <1>                0.0000
     21 H21         32.1636  35.3901  36.9839 H              1 <1>                0.0000
     22 H22         33.6487  35.7317  35.0581 H              1 <1>                0.0000
     23 H23         33.3554  37.6837  33.5906 H              1 <1>                0.0000
     24 H24         31.5741  39.3129  34.0376 H              1 <1>                0.0000
     25 H25         29.6533  40.1069  35.4127 H              1 <1>                0.0000
@<TRIPOS>BOND
    1    1    2 1     
    2    1   14 1     
    3    1   15 1     
    4    1   16 1     
    5    2    3 1     
    6    3    4 1     
    7    3   17 1     
    8    3   18 1     
    9    4    5 1     
   10    4   19 1     
   11    4   20 1     
   12    5    6 1     
   13    6    7 ar    
   14    6   11 ar    
   15    7    8 ar    
   16    7   21 1     
   17    8    9 ar    
   18    8   22 1     
   19    9   10 ar    
   20    9   23 1     
   21   10   11 ar    
   22   10   24 1     
   23   11   12 1     
   24   12   13 2     
   25   12   25 1     
@<TRIPOS>SUBSTRUCTURE
      1 ****           1
@<TRIPOS>COMMENT
> <Gold.Version>
2022.2.0

> <Gold.Id.Protein>
1qkm|1qkm_protein|mol2

> <Gold.Protein.RotatedTorsions>
[  496  491  490  487 ] final  118.39 input  -89.99 | X-H torsion

> <Gold.Protein.ActiveResidues>
 MET295  LEU298  THR299  LEU301  ALA302  GLU305  TRP335  MET336  LEU339  MET340 
 GLY342  LEU343  ARG346  PHE356  ILE373  ILE376  PHE377  LEU380  LYS471  GLY472 
 MET473  HIS475  LEU476  LEU477  ASN478  MET479  VAL484  VAL487 

> <Gold.Protein.RotatedAtoms>
   37.0680   32.9413   41.6420 H   0  0  0  0  0  0  0  0  0  0  0  0  # atno 496  bound_to 491 

> <Gold.Score>
     Score     S(PLP)   S(hbond)     S(cho)   S(metal)  DE(clash)   DE(tors)     intcor
     42.42     -42.92       0.00       0.00       0.00       0.00       0.60       0.69

> <Gold.PLP.Fitness>
42.4225

> <Gold.PLP.PLP>
-42.9248

> <Gold.PLP.part.hbond>
0.0000

> <Gold.PLP.part.metal>
0.0000

> <Gold.PLP.part.buried>
-4.5427

> <Gold.PLP.part.nonpolar>
-38.5992

> <Gold.PLP.part.repulsive>
0.0909

> <Gold.PLP.ligand.clash>
0.0000

> <Gold.PLP.ligand.torsion>
0.5975

> <Gold.PLP.Chemscore.Hbond>
0.0000

> <Gold.PLP.Chemscore.CHOScore>
0.0000

> <Gold.PLP.Chemscore.Metal>
0.0000

> <Gold.PLP.Chemscore.Internal.Correction>
0.6927

