#       Name:                EN300-102549_i001
#       Creating user name   aseyller
#       Creation time:       Fri Apr 21 18:14:40 2023


#       File generated by GOLD software.
#

@<TRIPOS>MOLECULE
EN300-102549_i001|benzaldehydes|mol2|475|dock5
    25    25     1
SMALL
USER_CHARGES


@<TRIPOS>ATOM
      1 C1          28.6505  36.4125  41.8005 C.3            1 <1>                0.0000
      2 O2          29.3638  36.9771  40.6986 O.3            1 <1>                0.0000
      3 C3          29.0576  36.3763  39.4387 C.3            1 <1>                0.0000
      4 C4          29.6138  37.2467  38.3100 C.3            1 <1>                0.0000
      5 O5          30.9329  36.8095  37.9772 O.3            1 <1>                0.0000
      6 C6          31.4142  37.1739  36.7630 C.ar           1 <1>                0.0000
      7 C7          30.9043  38.2906  36.1176 C.ar           1 <1>                0.0000
      8 C8          31.3953  38.6604  34.8814 C.ar           1 <1>                0.0000
      9 C9          32.3998  37.9223  34.2748 C.ar           1 <1>                0.0000
     10 C10         32.9194  36.8105  34.8988 C.ar           1 <1>                0.0000
     11 C11         32.4357  36.4257  36.1552 C.ar           1 <1>                0.0000
     12 C12         32.9843  35.2417  36.8272 C.2            1 <1>                0.0000
     13 O13         32.3082  34.6309  37.6279 O.2            1 <1>                0.0000
     14 H14         27.5791  36.5316  41.6393 H              1 <1>                0.0000
     15 H15         28.8897  35.3522  41.8833 H              1 <1>                0.0000
     16 H16         28.9385  36.9226  42.7196 H              1 <1>                0.0000
     17 H17         29.5088  35.3854  39.3895 H              1 <1>                0.0000
     18 H18         27.9764  36.2889  39.3310 H              1 <1>                0.0000
     19 H19         28.9707  37.1605  37.4341 H              1 <1>                0.0000
     20 H20         29.6469  38.2864  38.6355 H              1 <1>                0.0000
     21 H21         30.1217  38.8715  36.5826 H              1 <1>                0.0000
     22 H22         30.9938  39.5305  34.3834 H              1 <1>                0.0000
     23 H23         32.7764  38.2208  33.3076 H              1 <1>                0.0000
     24 H24         33.7017  36.2387  34.4219 H              1 <1>                0.0000
     25 H25         33.9900  34.9144  36.6088 H              1 <1>                0.0000
@<TRIPOS>BOND
    1    1    2 1     
    2    1   14 1     
    3    1   15 1     
    4    1   16 1     
    5    2    3 1     
    6    3    4 1     
    7    3   17 1     
    8    3   18 1     
    9    4    5 1     
   10    4   19 1     
   11    4   20 1     
   12    5    6 1     
   13    6    7 ar    
   14    6   11 ar    
   15    7    8 ar    
   16    7   21 1     
   17    8    9 ar    
   18    8   22 1     
   19    9   10 ar    
   20    9   23 1     
   21   10   11 ar    
   22   10   24 1     
   23   11   12 1     
   24   12   13 2     
   25   12   25 1     
@<TRIPOS>SUBSTRUCTURE
      1 ****           1
@<TRIPOS>COMMENT
> <Gold.Version>
2022.2.0

> <Gold.Id.Protein>
1qkm|1qkm_protein|mol2

> <Gold.Protein.RotatedTorsions>
[  496  491  490  487 ] final -104.48 input  -89.99 | X-H torsion

> <Gold.Protein.ActiveResidues>
 MET295  LEU298  THR299  LEU301  ALA302  GLU305  TRP335  MET336  LEU339  MET340 
 GLY342  LEU343  ARG346  PHE356  ILE373  ILE376  PHE377  LEU380  LYS471  GLY472 
 MET473  HIS475  LEU476  LEU477  ASN478  MET479  VAL484  VAL487 

> <Gold.Protein.RotatedAtoms>
   36.8906   34.5334   40.9232 H   0  0  0  0  0  0  0  0  0  0  0  0  # atno 496  bound_to 491 

> <Gold.Score>
     Score     S(PLP)   S(hbond)     S(cho)   S(metal)  DE(clash)   DE(tors)     intcor
     42.53     -43.46       0.00       0.00       0.00       0.00       0.81       0.69

> <Gold.PLP.Fitness>
42.5318

> <Gold.PLP.PLP>
-43.4639

> <Gold.PLP.part.hbond>
0.0000

> <Gold.PLP.part.metal>
0.0000

> <Gold.PLP.part.buried>
-4.5916

> <Gold.PLP.part.nonpolar>
-39.2690

> <Gold.PLP.part.repulsive>
0.1358

> <Gold.PLP.ligand.clash>
0.0042

> <Gold.PLP.ligand.torsion>
0.8103

> <Gold.PLP.Chemscore.Hbond>
0.0000

> <Gold.PLP.Chemscore.CHOScore>
0.0000

> <Gold.PLP.Chemscore.Metal>
0.0000

> <Gold.PLP.Chemscore.Internal.Correction>
0.6927

