#       Name:                EN300-102549_i001
#       Creating user name   aseyller
#       Creation time:       Fri Apr 21 18:14:51 2023


#       File generated by GOLD software.
#

@<TRIPOS>MOLECULE
EN300-102549_i001|benzaldehydes|mol2|475|dock15
    25    25     1
SMALL
USER_CHARGES


@<TRIPOS>ATOM
      1 C1          32.6058  37.1443  35.0800 C.3            1 <1>                0.0000
      2 O2          31.3936  37.5837  35.6961 O.3            1 <1>                0.0000
      3 C3          31.1217  36.9611  36.9532 C.3            1 <1>                0.0000
      4 C4          29.8054  37.5014  37.5158 C.3            1 <1>                0.0000
      5 O5          29.3628  36.6606  38.5831 O.3            1 <1>                0.0000
      6 C6          28.1083  36.8711  39.0528 C.ar           1 <1>                0.0000
      7 C7          27.1265  37.3793  38.2153 C.ar           1 <1>                0.0000
      8 C8          25.8497  37.5931  38.6948 C.ar           1 <1>                0.0000
      9 C9          25.5367  37.3026  40.0137 C.ar           1 <1>                0.0000
     10 C10         26.4968  36.7975  40.8613 C.ar           1 <1>                0.0000
     11 C11         27.7950  36.5700  40.3883 C.ar           1 <1>                0.0000
     12 C12         28.8244  36.0317  41.2855 C.2            1 <1>                0.0000
     13 O13         28.5033  35.5003  42.3275 O.2            1 <1>                0.0000
     14 H14         33.4476  37.3641  35.7365 H              1 <1>                0.0000
     15 H15         32.5544  36.0700  34.9024 H              1 <1>                0.0000
     16 H16         32.7400  37.6633  34.1310 H              1 <1>                0.0000
     17 H17         31.0425  35.8828  36.8151 H              1 <1>                0.0000
     18 H18         31.9314  37.1796  37.6496 H              1 <1>                0.0000
     19 H19         29.9587  38.5136  37.8903 H              1 <1>                0.0000
     20 H20         29.0523  37.5157  36.7281 H              1 <1>                0.0000
     21 H21         27.3614  37.6085  37.1864 H              1 <1>                0.0000
     22 H22         25.0897  37.9897  38.0381 H              1 <1>                0.0000
     23 H23         24.5346  37.4738  40.3781 H              1 <1>                0.0000
     24 H24         26.2480  36.5730  41.8880 H              1 <1>                0.0000
     25 H25         29.8679  36.1087  41.0178 H              1 <1>                0.0000
@<TRIPOS>BOND
    1    1    2 1     
    2    1   14 1     
    3    1   15 1     
    4    1   16 1     
    5    2    3 1     
    6    3    4 1     
    7    3   17 1     
    8    3   18 1     
    9    4    5 1     
   10    4   19 1     
   11    4   20 1     
   12    5    6 1     
   13    6    7 ar    
   14    6   11 ar    
   15    7    8 ar    
   16    7   21 1     
   17    8    9 ar    
   18    8   22 1     
   19    9   10 ar    
   20    9   23 1     
   21   10   11 ar    
   22   10   24 1     
   23   11   12 1     
   24   12   13 2     
   25   12   25 1     
@<TRIPOS>SUBSTRUCTURE
      1 ****           1
@<TRIPOS>COMMENT
> <Gold.Version>
2022.2.0

> <Gold.Id.Protein>
1qkm|1qkm_protein|mol2

> <Gold.Protein.RotatedTorsions>
[  496  491  490  487 ] final  127.97 input  -89.99 | X-H torsion

> <Gold.Protein.ActiveResidues>
 MET295  LEU298  THR299  LEU301  ALA302  GLU305  TRP335  MET336  LEU339  MET340 
 GLY342  LEU343  ARG346  PHE356  ILE373  ILE376  PHE377  LEU380  LYS471  GLY472 
 MET473  HIS475  LEU476  LEU477  ASN478  MET479  VAL484  VAL487 

> <Gold.Protein.RotatedAtoms>
   37.1391   32.9633   41.5032 H   0  0  0  0  0  0  0  0  0  0  0  0  # atno 496  bound_to 491 

> <Gold.Score>
     Score     S(PLP)   S(hbond)     S(cho)   S(metal)  DE(clash)   DE(tors)     intcor
     41.72     -42.06       0.00       0.00       0.00       0.00       0.51       0.68

> <Gold.PLP.Fitness>
41.7191

> <Gold.PLP.PLP>
-42.0559

> <Gold.PLP.part.hbond>
-0.7815

> <Gold.PLP.part.metal>
0.0000

> <Gold.PLP.part.buried>
-2.4722

> <Gold.PLP.part.nonpolar>
-39.9242

> <Gold.PLP.part.repulsive>
1.2461

> <Gold.PLP.ligand.clash>
0.0000

> <Gold.PLP.ligand.torsion>
0.5104

> <Gold.PLP.Chemscore.Hbond>
0.0000

> <Gold.PLP.Chemscore.CHOScore>
0.0000

> <Gold.PLP.Chemscore.Metal>
0.0000

> <Gold.PLP.Chemscore.Internal.Correction>
0.6840

