#       Name:                EN300-102549_i001
#       Creating user name   aseyller
#       Creation time:       Fri Apr 21 18:14:50 2023


#       File generated by GOLD software.
#

@<TRIPOS>MOLECULE
EN300-102549_i001|benzaldehydes|mol2|475|dock14
    25    25     1
SMALL
USER_CHARGES


@<TRIPOS>ATOM
      1 C1          26.5399  36.8565  38.8189 C.3            1 <1>                0.0000
      2 O2          27.8313  37.0138  38.2276 O.3            1 <1>                0.0000
      3 C3          27.9566  38.1760  37.4057 C.3            1 <1>                0.0000
      4 C4          29.4221  38.3641  37.0085 C.3            1 <1>                0.0000
      5 O5          30.1054  37.1125  37.1019 O.3            1 <1>                0.0000
      6 C6          31.2486  36.9803  36.3849 C.ar           1 <1>                0.0000
      7 C7          31.4564  37.7569  35.2546 C.ar           1 <1>                0.0000
      8 C8          32.6208  37.6214  34.5256 C.ar           1 <1>                0.0000
      9 C9          33.5914  36.7111  34.9146 C.ar           1 <1>                0.0000
     10 C10         33.4045  35.9308  36.0334 C.ar           1 <1>                0.0000
     11 C11         32.2311  36.0605  36.7863 C.ar           1 <1>                0.0000
     12 C12         32.0241  35.2324  37.9804 C.2            1 <1>                0.0000
     13 O13         30.9780  35.2987  38.5906 O.2            1 <1>                0.0000
     14 H14         26.3202  37.7198  39.4470 H              1 <1>                0.0000
     15 H15         25.7879  36.7777  38.0337 H              1 <1>                0.0000
     16 H16         26.5263  35.9520  39.4269 H              1 <1>                0.0000
     17 H17         27.3498  38.0537  36.5086 H              1 <1>                0.0000
     18 H18         27.6149  39.0509  37.9589 H              1 <1>                0.0000
     19 H19         29.4765  38.7323  35.9839 H              1 <1>                0.0000
     20 H20         29.8906  39.0847  37.6788 H              1 <1>                0.0000
     21 H21         30.7058  38.4686  34.9442 H              1 <1>                0.0000
     22 H22         32.7766  38.2283  33.6461 H              1 <1>                0.0000
     23 H23         34.4986  36.6134  34.3368 H              1 <1>                0.0000
     24 H24         34.1635  35.2229  36.3320 H              1 <1>                0.0000
     25 H25         32.8033  34.5639  38.3156 H              1 <1>                0.0000
@<TRIPOS>BOND
    1    1    2 1     
    2    1   14 1     
    3    1   15 1     
    4    1   16 1     
    5    2    3 1     
    6    3    4 1     
    7    3   17 1     
    8    3   18 1     
    9    4    5 1     
   10    4   19 1     
   11    4   20 1     
   12    5    6 1     
   13    6    7 ar    
   14    6   11 ar    
   15    7    8 ar    
   16    7   21 1     
   17    8    9 ar    
   18    8   22 1     
   19    9   10 ar    
   20    9   23 1     
   21   10   11 ar    
   22   10   24 1     
   23   11   12 1     
   24   12   13 2     
   25   12   25 1     
@<TRIPOS>SUBSTRUCTURE
      1 ****           1
@<TRIPOS>COMMENT
> <Gold.Version>
2022.2.0

> <Gold.Id.Protein>
1qkm|1qkm_protein|mol2

> <Gold.Protein.RotatedTorsions>
[  496  491  490  487 ] final -174.69 input  -89.99 | X-H torsion

> <Gold.Protein.ActiveResidues>
 MET295  LEU298  THR299  LEU301  ALA302  GLU305  TRP335  MET336  LEU339  MET340 
 GLY342  LEU343  ARG346  PHE356  ILE373  ILE376  PHE377  LEU380  LYS471  GLY472 
 MET473  HIS475  LEU476  LEU477  ASN478  MET479  VAL484  VAL487 

> <Gold.Protein.RotatedAtoms>
   37.3127   33.5387   40.8266 H   0  0  0  0  0  0  0  0  0  0  0  0  # atno 496  bound_to 491 

> <Gold.Score>
     Score     S(PLP)   S(hbond)     S(cho)   S(metal)  DE(clash)   DE(tors)     intcor
     41.65     -42.43       0.00       0.00       0.00       0.00       0.73       0.68

> <Gold.PLP.Fitness>
41.6511

> <Gold.PLP.PLP>
-42.4330

> <Gold.PLP.part.hbond>
0.0000

> <Gold.PLP.part.metal>
0.0000

> <Gold.PLP.part.buried>
-3.9400

> <Gold.PLP.part.nonpolar>
-38.5394

> <Gold.PLP.part.repulsive>
0.0751

> <Gold.PLP.ligand.clash>
0.0000

> <Gold.PLP.ligand.torsion>
0.7330

> <Gold.PLP.Chemscore.Hbond>
0.0000

> <Gold.PLP.Chemscore.CHOScore>
0.0000

> <Gold.PLP.Chemscore.Metal>
0.0000

> <Gold.PLP.Chemscore.Internal.Correction>
0.6840

