#       Name:                EN300-623952_i001
#       Creating user name   aseyller
#       Creation time:       Fri Apr 21 16:35:35 2023


#       File generated by GOLD software.
#

@<TRIPOS>MOLECULE
EN300-623952_i001|aminophenols|mol2|66|dock18
    19    19     1
SMALL
USER_CHARGES


@<TRIPOS>ATOM
      1 C1          26.2715  36.9305  40.0215 C.3            1 <1>                0.0000
      2 C2          27.6084  36.2583  40.2007 C.2            1 <1>                0.0000
      3 O3          27.7703  35.4601  41.0995 O.2            1 <1>                0.0000
      4 C4          28.7152  36.5700  39.2871 C.ar           1 <1>                0.0000
      5 C5          28.5810  37.5995  38.3473 C.ar           1 <1>                0.0000
      6 C6          29.6259  37.8890  37.4903 C.ar           1 <1>                0.0000
      7 N7          29.4953  38.9178  36.5499 N.pl3          1 <1>                0.0000
      8 C8          30.8116  37.1561  37.5624 C.ar           1 <1>                0.0000
      9 O9          31.8374  37.4425  36.7195 O.co2          1 <1>               -1.0000
     10 C10         30.9456  36.1340  38.4951 C.ar           1 <1>                0.0000
     11 F11         32.0955  35.4278  38.5604 F              1 <1>                0.0000
     12 C12         29.9092  35.8427  39.3574 C.ar           1 <1>                0.0000
     13 H13         25.5811  36.5761  40.7870 H              1 <1>                0.0000
     14 H14         26.3923  38.0098  40.1127 H              1 <1>                0.0000
     15 H15         25.8740  36.6914  39.0350 H              1 <1>                0.0000
     16 H16         27.6630  38.1657  38.2921 H              1 <1>                0.0000
     17 H17         30.0158  35.0480  40.0810 H              1 <1>                0.0000
     18 H18         28.6714  39.4274  36.4999 H              1 <1>                0.0000
     19 H19         30.2286  39.1210  35.9485 H              1 <1>                0.0000
@<TRIPOS>BOND
    1    1    2 1     
    2    1   13 1     
    3    1   14 1     
    4    1   15 1     
    5    2    3 2     
    6    2    4 1     
    7    4    5 ar    
    8    4   12 ar    
    9    5    6 ar    
   10    5   16 1     
   11    6    7 1     
   12    6    8 ar    
   13    7   18 1     
   14    7   19 1     
   15    8    9 ar    
   16    8   10 ar    
   17   10   11 1     
   18   10   12 ar    
   19   12   17 1     
@<TRIPOS>SUBSTRUCTURE
      1 ****           1
@<TRIPOS>SET
DONOR_HYDROGENS      STATIC     ATOMS    <user>   **** ""
2 18 19
ATOM$RED        STATIC     ATOMS    COLORGROUP SYSTEM
2 18 19
@<TRIPOS>COMMENT
> <Gold.Version>
2022.2.0

> <Gold.Id.Protein>
1qkm|1qkm_protein|mol2

> <Gold.Protein.RotatedTorsions>
[  496  491  490  487 ] final -149.95 input  -89.99 | X-H torsion

> <Gold.Protein.ActiveResidues>
 MET295  LEU298  THR299  LEU301  ALA302  GLU305  TRP335  MET336  LEU339  MET340 
 GLY342  LEU343  ARG346  PHE356  ILE373  ILE376  PHE377  LEU380  LYS471  GLY472 
 MET473  HIS475  LEU476  LEU477  ASN478  MET479  VAL484  VAL487 

> <Gold.Protein.RotatedAtoms>
   37.2310   33.9206   40.7228 H   0  0  0  0  0  0  0  0  0  0  0  0  # atno 496  bound_to 491 

> <Gold.Score>
     Score     S(PLP)   S(hbond)     S(cho)   S(metal)  DE(clash)   DE(tors)     intcor
     35.35     -35.40       0.00       0.00       0.00       0.00       0.02       0.00

> <Gold.PLP.Fitness>
35.3550

> <Gold.PLP.PLP>
-35.4029

> <Gold.PLP.part.hbond>
0.0000

> <Gold.PLP.part.metal>
0.0000

> <Gold.PLP.part.buried>
-3.8607

> <Gold.PLP.part.nonpolar>
-31.3410

> <Gold.PLP.part.repulsive>
0.1327

> <Gold.PLP.ligand.clash>
0.0000

> <Gold.PLP.ligand.torsion>
0.0240

> <Gold.PLP.Chemscore.Hbond>
0.0000

> <Gold.PLP.Chemscore.CHOScore>
0.0000

> <Gold.PLP.Chemscore.Metal>
0.0000

> <Gold.PLP.Chemscore.Internal.Correction>
0.0000

