#       Name:                EN300-623952_i001
#       Creating user name   aseyller
#       Creation time:       Fri Apr 21 16:35:30 2023


#       File generated by GOLD software.
#

@<TRIPOS>MOLECULE
EN300-623952_i001|aminophenols|mol2|66|dock1
    19    19     1
SMALL
USER_CHARGES


@<TRIPOS>ATOM
      1 C1          31.5184  36.7987  37.6814 C.3            1 <1>                0.0000
      2 C2          30.0780  37.1846  37.4636 C.2            1 <1>                0.0000
      3 O3          29.7280  37.6452  36.3975 O.2            1 <1>                0.0000
      4 C4          29.0980  37.0031  38.5424 C.ar           1 <1>                0.0000
      5 C5          29.5206  36.5926  39.8128 C.ar           1 <1>                0.0000
      6 C6          28.5943  36.4240  40.8245 C.ar           1 <1>                0.0000
      7 N7          29.0133  36.0141  42.0959 N.pl3          1 <1>                0.0000
      8 C8          27.2411  36.6625  40.5792 C.ar           1 <1>                0.0000
      9 O9          26.3325  36.4965  41.5750 O.co2          1 <1>               -1.0000
     10 C10         26.8209  37.0701  39.3183 C.ar           1 <1>                0.0000
     11 F11         25.5099  37.2995  39.0864 F              1 <1>                0.0000
     12 C12         27.7400  37.2458  38.3049 C.ar           1 <1>                0.0000
     13 H13         32.0904  37.0041  36.7766 H              1 <1>                0.0000
     14 H14         31.9282  37.3768  38.5096 H              1 <1>                0.0000
     15 H15         31.5783  35.7357  37.9155 H              1 <1>                0.0000
     16 H16         30.5679  36.4079  40.0014 H              1 <1>                0.0000
     17 H17         27.4110  37.5624  37.3262 H              1 <1>                0.0000
     18 H18         29.9537  35.8485  42.2665 H              1 <1>                0.0000
     19 H19         28.3633  35.8957  42.8060 H              1 <1>                0.0000
@<TRIPOS>BOND
    1    1    2 1     
    2    1   13 1     
    3    1   14 1     
    4    1   15 1     
    5    2    3 2     
    6    2    4 1     
    7    4    5 ar    
    8    4   12 ar    
    9    5    6 ar    
   10    5   16 1     
   11    6    7 1     
   12    6    8 ar    
   13    7   18 1     
   14    7   19 1     
   15    8    9 ar    
   16    8   10 ar    
   17   10   11 1     
   18   10   12 ar    
   19   12   17 1     
@<TRIPOS>SUBSTRUCTURE
      1 ****           1
@<TRIPOS>SET
DONOR_HYDROGENS      STATIC     ATOMS    <user>   **** ""
2 18 19
ATOM$RED        STATIC     ATOMS    COLORGROUP SYSTEM
2 18 19
@<TRIPOS>COMMENT
> <Gold.Version>
2022.2.0

> <Gold.Id.Protein>
1qkm|1qkm_protein|mol2

> <Gold.Protein.RotatedTorsions>
[  496  491  490  487 ] final  -76.59 input  -89.99 | X-H torsion

> <Gold.Protein.ActiveResidues>
 MET295  LEU298  THR299  LEU301  ALA302  GLU305  TRP335  MET336  LEU339  MET340 
 GLY342  LEU343  ARG346  PHE356  ILE373  ILE376  PHE377  LEU380  LYS471  GLY472 
 MET473  HIS475  LEU476  LEU477  ASN478  MET479  VAL484  VAL487 

> <Gold.Protein.RotatedAtoms>
   36.6355   34.7183   41.2508 H   0  0  0  0  0  0  0  0  0  0  0  0  # atno 496  bound_to 491 

> <Gold.Score>
     Score     S(PLP)   S(hbond)     S(cho)   S(metal)  DE(clash)   DE(tors)     intcor
     41.12     -38.16       1.00       0.00       0.00       0.00       0.02       0.00

> <Gold.PLP.Fitness>
41.1233

> <Gold.PLP.PLP>
-38.1556

> <Gold.PLP.part.hbond>
-1.0000

> <Gold.PLP.part.metal>
0.0000

> <Gold.PLP.part.buried>
-4.1054

> <Gold.PLP.part.nonpolar>
-34.6043

> <Gold.PLP.part.repulsive>
1.3890

> <Gold.PLP.ligand.clash>
0.0000

> <Gold.PLP.ligand.torsion>
0.0162

> <Gold.PLP.Chemscore.Hbond>
1.0000

> <Gold.PLP.Chemscore.CHOScore>
0.0000

> <Gold.PLP.Chemscore.Metal>
0.0000

> <Gold.Chemscore.Hbonds>
donor molecule, donor type, donor heavy atom, donor atom, acceptor molecule, acceptor atom, score
      L1  H     7    18       P1   470  1.00

> <Gold.PLP.Chemscore.Internal.Correction>
0.0000

