#       Name:                EN300-623952_i001
#       Creating user name   aseyller
#       Creation time:       Fri Apr 21 16:35:31 2023


#       File generated by GOLD software.
#

@<TRIPOS>MOLECULE
EN300-623952_i001|aminophenols|mol2|66|dock5
    19    19     1
SMALL
USER_CHARGES


@<TRIPOS>ATOM
      1 C1          31.3025  37.8987  36.7414 C.3            1 <1>                0.0000
      2 C2          29.8531  38.2929  36.8635 C.2            1 <1>                0.0000
      3 O3          29.3750  39.0936  36.0879 O.2            1 <1>                0.0000
      4 C4          29.0197  37.7078  37.9217 C.ar           1 <1>                0.0000
      5 C5          29.6170  37.0282  38.9905 C.ar           1 <1>                0.0000
      6 C6          28.8280  36.4799  39.9840 C.ar           1 <1>                0.0000
      7 N7          29.4218  35.8002  41.0542 N.pl3          1 <1>                0.0000
      8 C8          27.4391  36.6039  39.9208 C.ar           1 <1>                0.0000
      9 O9          26.6657  36.0647  40.8984 O.co2          1 <1>               -1.0000
     10 C10         26.8455  37.2785  38.8601 C.ar           1 <1>                0.0000
     11 F11         25.5008  37.3956  38.8040 F              1 <1>                0.0000
     12 C12         27.6265  37.8330  37.8676 C.ar           1 <1>                0.0000
     13 H13         31.7549  38.4316  35.9050 H              1 <1>                0.0000
     14 H14         31.8275  38.1543  37.6618 H              1 <1>                0.0000
     15 H15         31.3736  36.8246  36.5689 H              1 <1>                0.0000
     16 H16         30.6917  36.9324  39.0382 H              1 <1>                0.0000
     17 H17         27.1628  38.3565  37.0446 H              1 <1>                0.0000
     18 H18         30.3870  35.7141  41.0983 H              1 <1>                0.0000
     19 H19         28.8682  35.4154  41.7514 H              1 <1>                0.0000
@<TRIPOS>BOND
    1    1    2 1     
    2    1   13 1     
    3    1   14 1     
    4    1   15 1     
    5    2    3 2     
    6    2    4 1     
    7    4    5 ar    
    8    4   12 ar    
    9    5    6 ar    
   10    5   16 1     
   11    6    7 1     
   12    6    8 ar    
   13    7   18 1     
   14    7   19 1     
   15    8    9 ar    
   16    8   10 ar    
   17   10   11 1     
   18   10   12 ar    
   19   12   17 1     
@<TRIPOS>SUBSTRUCTURE
      1 ****           1
@<TRIPOS>SET
DONOR_HYDROGENS      STATIC     ATOMS    <user>   **** ""
2 18 19
ATOM$RED        STATIC     ATOMS    COLORGROUP SYSTEM
2 18 19
@<TRIPOS>COMMENT
> <Gold.Version>
2022.2.0

> <Gold.Id.Protein>
1qkm|1qkm_protein|mol2

> <Gold.Protein.RotatedTorsions>
[  496  491  490  487 ] final  179.27 input  -89.99 | X-H torsion

> <Gold.Protein.ActiveResidues>
 MET295  LEU298  THR299  LEU301  ALA302  GLU305  TRP335  MET336  LEU339  MET340 
 GLY342  LEU343  ARG346  PHE356  ILE373  ILE376  PHE377  LEU380  LYS471  GLY472 
 MET473  HIS475  LEU476  LEU477  ASN478  MET479  VAL484  VAL487 

> <Gold.Protein.RotatedAtoms>
   37.3182   33.4513   40.8735 H   0  0  0  0  0  0  0  0  0  0  0  0  # atno 496  bound_to 491 

> <Gold.Score>
     Score     S(PLP)   S(hbond)     S(cho)   S(metal)  DE(clash)   DE(tors)     intcor
     38.99     -36.39       0.93       0.00       0.00       0.00       0.09       0.00

> <Gold.PLP.Fitness>
38.9936

> <Gold.PLP.PLP>
-36.3916

> <Gold.PLP.part.hbond>
-1.0000

> <Gold.PLP.part.metal>
0.0000

> <Gold.PLP.part.buried>
-4.3176

> <Gold.PLP.part.nonpolar>
-31.8473

> <Gold.PLP.part.repulsive>
0.2180

> <Gold.PLP.ligand.clash>
0.0000

> <Gold.PLP.ligand.torsion>
0.0910

> <Gold.PLP.Chemscore.Hbond>
0.9280

> <Gold.PLP.Chemscore.CHOScore>
0.0000

> <Gold.PLP.Chemscore.Metal>
0.0000

> <Gold.Chemscore.Hbonds>
donor molecule, donor type, donor heavy atom, donor atom, acceptor molecule, acceptor atom, score
      L1  H     7    18       P1   470  0.93

> <Gold.PLP.Chemscore.Internal.Correction>
0.0000

