#       Name:                EN300-623952_i001
#       Creating user name   aseyller
#       Creation time:       Fri Apr 21 16:35:34 2023


#       File generated by GOLD software.
#

@<TRIPOS>MOLECULE
EN300-623952_i001|aminophenols|mol2|66|dock15
    19    19     1
SMALL
USER_CHARGES


@<TRIPOS>ATOM
      1 C1          30.6879  38.2807  35.4207 C.3            1 <1>                0.0000
      2 C2          30.9574  37.5224  36.6950 C.2            1 <1>                0.0000
      3 O3          32.0719  37.1041  36.9277 O.2            1 <1>                0.0000
      4 C4          29.8704  37.2900  37.6549 C.ar           1 <1>                0.0000
      5 C5          30.1348  36.6534  38.8739 C.ar           1 <1>                0.0000
      6 C6          29.1083  36.4377  39.7739 C.ar           1 <1>                0.0000
      7 N7          29.3690  35.8020  40.9937 N.pl3          1 <1>                0.0000
      8 C8          27.8117  36.8537  39.4671 C.ar           1 <1>                0.0000
      9 O9          26.8046  36.6411  40.3532 O.co2          1 <1>               -1.0000
     10 C10         27.5486  37.4858  38.2573 C.ar           1 <1>                0.0000
     11 F11         26.2919  37.8863  37.9655 F              1 <1>                0.0000
     12 C12         28.5688  37.7094  37.3562 C.ar           1 <1>                0.0000
     13 H13         31.6073  38.3528  34.8395 H              1 <1>                0.0000
     14 H14         29.9304  37.7558  34.8388 H              1 <1>                0.0000
     15 H15         30.3313  39.2820  35.6623 H              1 <1>                0.0000
     16 H16         31.1383  36.3315  39.1101 H              1 <1>                0.0000
     17 H17         28.3617  38.2005  36.4169 H              1 <1>                0.0000
     18 H18         30.2701  35.5130  41.2070 H              1 <1>                0.0000
     19 H19         28.6487  35.6505  41.6253 H              1 <1>                0.0000
@<TRIPOS>BOND
    1    1    2 1     
    2    1   13 1     
    3    1   14 1     
    4    1   15 1     
    5    2    3 2     
    6    2    4 1     
    7    4    5 ar    
    8    4   12 ar    
    9    5    6 ar    
   10    5   16 1     
   11    6    7 1     
   12    6    8 ar    
   13    7   18 1     
   14    7   19 1     
   15    8    9 ar    
   16    8   10 ar    
   17   10   11 1     
   18   10   12 ar    
   19   12   17 1     
@<TRIPOS>SUBSTRUCTURE
      1 ****           1
@<TRIPOS>SET
DONOR_HYDROGENS      STATIC     ATOMS    <user>   **** ""
2 18 19
ATOM$RED        STATIC     ATOMS    COLORGROUP SYSTEM
2 18 19
@<TRIPOS>COMMENT
> <Gold.Version>
2022.2.0

> <Gold.Id.Protein>
1qkm|1qkm_protein|mol2

> <Gold.Protein.RotatedTorsions>
[  496  491  490  487 ] final  -67.42 input  -89.99 | X-H torsion

> <Gold.Protein.ActiveResidues>
 MET295  LEU298  THR299  LEU301  ALA302  GLU305  TRP335  MET336  LEU339  MET340 
 GLY342  LEU343  ARG346  PHE356  ILE373  ILE376  PHE377  LEU380  LYS471  GLY472 
 MET473  HIS475  LEU476  LEU477  ASN478  MET479  VAL484  VAL487 

> <Gold.Protein.RotatedAtoms>
   36.5566   34.7352   41.3782 H   0  0  0  0  0  0  0  0  0  0  0  0  # atno 496  bound_to 491 

> <Gold.Score>
     Score     S(PLP)   S(hbond)     S(cho)   S(metal)  DE(clash)   DE(tors)     intcor
     35.74     -32.75       1.00       0.00       0.00       0.00       0.01       0.00

> <Gold.PLP.Fitness>
35.7390

> <Gold.PLP.PLP>
-32.7505

> <Gold.PLP.part.hbond>
-1.0000

> <Gold.PLP.part.metal>
0.0000

> <Gold.PLP.part.buried>
-3.6284

> <Gold.PLP.part.nonpolar>
-28.5835

> <Gold.PLP.part.repulsive>
0.1555

> <Gold.PLP.ligand.clash>
0.0000

> <Gold.PLP.ligand.torsion>
0.0058

> <Gold.PLP.Chemscore.Hbond>
1.0000

> <Gold.PLP.Chemscore.CHOScore>
0.0000

> <Gold.PLP.Chemscore.Metal>
0.0000

> <Gold.Chemscore.Hbonds>
donor molecule, donor type, donor heavy atom, donor atom, acceptor molecule, acceptor atom, score
      L1  H     7    18       P1   470  1.00

> <Gold.PLP.Chemscore.Internal.Correction>
0.0000

