#       Name:                EN300-623952_i001
#       Creating user name   aseyller
#       Creation time:       Fri Apr 21 16:35:35 2023


#       File generated by GOLD software.
#

@<TRIPOS>MOLECULE
EN300-623952_i001|aminophenols|mol2|66|dock19
    19    19     1
SMALL
USER_CHARGES


@<TRIPOS>ATOM
      1 C1          28.5043  35.7059  41.3612 C.3            1 <1>                0.0000
      2 C2          28.2585  36.5074  40.1088 C.2            1 <1>                0.0000
      3 O3          27.1652  36.9906  39.9029 O.2            1 <1>                0.0000
      4 C4          29.3427  36.7031  39.1377 C.ar           1 <1>                0.0000
      5 C5          29.3215  37.8058  38.2749 C.ar           1 <1>                0.0000
      6 C6          30.3447  37.9855  37.3633 C.ar           1 <1>                0.0000
      7 N7          30.3270  39.0870  36.4994 N.pl3          1 <1>                0.0000
      8 C8          31.3959  37.0692  37.3039 C.ar           1 <1>                0.0000
      9 O9          32.4006  37.2479  36.4076 O.co2          1 <1>               -1.0000
     10 C10         31.4176  35.9743  38.1602 C.ar           1 <1>                0.0000
     11 F11         32.4375  35.0905  38.0984 F              1 <1>                0.0000
     12 C12         30.4029  35.7911  39.0763 C.ar           1 <1>                0.0000
     13 H13         27.5907  35.6701  41.9548 H              1 <1>                0.0000
     14 H14         28.8025  34.6928  41.0916 H              1 <1>                0.0000
     15 H15         29.2975  36.1755  41.9432 H              1 <1>                0.0000
     16 H16         28.5075  38.5140  38.3214 H              1 <1>                0.0000
     17 H17         30.4220  34.9396  39.7404 H              1 <1>                0.0000
     18 H18         29.5966  39.7240  36.5407 H              1 <1>                0.0000
     19 H19         31.0450  39.2132  35.8596 H              1 <1>                0.0000
@<TRIPOS>BOND
    1    1    2 1     
    2    1   13 1     
    3    1   14 1     
    4    1   15 1     
    5    2    3 2     
    6    2    4 1     
    7    4    5 ar    
    8    4   12 ar    
    9    5    6 ar    
   10    5   16 1     
   11    6    7 1     
   12    6    8 ar    
   13    7   18 1     
   14    7   19 1     
   15    8    9 ar    
   16    8   10 ar    
   17   10   11 1     
   18   10   12 ar    
   19   12   17 1     
@<TRIPOS>SUBSTRUCTURE
      1 ****           1
@<TRIPOS>SET
DONOR_HYDROGENS      STATIC     ATOMS    <user>   **** ""
2 18 19
ATOM$RED        STATIC     ATOMS    COLORGROUP SYSTEM
2 18 19
@<TRIPOS>COMMENT
> <Gold.Version>
2022.2.0

> <Gold.Id.Protein>
1qkm|1qkm_protein|mol2

> <Gold.Protein.RotatedTorsions>
[  496  491  490  487 ] final   18.21 input  -89.99 | X-H torsion

> <Gold.Protein.ActiveResidues>
 MET295  LEU298  THR299  LEU301  ALA302  GLU305  TRP335  MET336  LEU339  MET340 
 GLY342  LEU343  ARG346  PHE356  ILE373  ILE376  PHE377  LEU380  LYS471  GLY472 
 MET473  HIS475  LEU476  LEU477  ASN478  MET479  VAL484  VAL487 

> <Gold.Protein.RotatedAtoms>
   36.2960   33.9399   42.3494 H   0  0  0  0  0  0  0  0  0  0  0  0  # atno 496  bound_to 491 

> <Gold.Score>
     Score     S(PLP)   S(hbond)     S(cho)   S(metal)  DE(clash)   DE(tors)     intcor
     35.03     -35.53       0.00       0.00       0.00       0.00       0.25       0.00

> <Gold.PLP.Fitness>
35.0256

> <Gold.PLP.PLP>
-35.5320

> <Gold.PLP.part.hbond>
0.0000

> <Gold.PLP.part.metal>
0.0000

> <Gold.PLP.part.buried>
-2.8869

> <Gold.PLP.part.nonpolar>
-32.6219

> <Gold.PLP.part.repulsive>
0.0249

> <Gold.PLP.ligand.clash>
0.0000

> <Gold.PLP.ligand.torsion>
0.2532

> <Gold.PLP.Chemscore.Hbond>
0.0000

> <Gold.PLP.Chemscore.CHOScore>
0.0000

> <Gold.PLP.Chemscore.Metal>
0.0000

> <Gold.PLP.Chemscore.Internal.Correction>
0.0000

