#       Name:                EN300-623952_i001
#       Creating user name   aseyller
#       Creation time:       Fri Apr 21 16:35:34 2023


#       File generated by GOLD software.
#

@<TRIPOS>MOLECULE
EN300-623952_i001|aminophenols|mol2|66|dock16
    19    19     1
SMALL
USER_CHARGES


@<TRIPOS>ATOM
      1 C1          26.1917  37.5639  38.8019 C.3            1 <1>                0.0000
      2 C2          27.3714  36.6360  38.9384 C.2            1 <1>                0.0000
      3 O3          27.2521  35.5873  39.5362 O.2            1 <1>                0.0000
      4 C4          28.6653  37.0016  38.3478 C.ar           1 <1>                0.0000
      5 C5          28.7752  38.1500  37.5541 C.ar           1 <1>                0.0000
      6 C6          29.9954  38.4898  37.0011 C.ar           1 <1>                0.0000
      7 N7          30.1089  39.6374  36.2074 N.pl3          1 <1>                0.0000
      8 C8          31.1148  37.6891  37.2341 C.ar           1 <1>                0.0000
      9 O9          32.3131  38.0251  36.6901 O.co2          1 <1>               -1.0000
     10 C10         31.0065  36.5490  38.0220 C.ar           1 <1>                0.0000
     11 F11         32.0931  35.7777  38.2442 F              1 <1>                0.0000
     12 C12         29.7933  36.2063  38.5817 C.ar           1 <1>                0.0000
     13 H13         25.3262  37.1269  39.2999 H              1 <1>                0.0000
     14 H14         26.4292  38.5235  39.2611 H              1 <1>                0.0000
     15 H15         25.9666  37.7123  37.7457 H              1 <1>                0.0000
     16 H16         27.9084  38.7686  37.3741 H              1 <1>                0.0000
     17 H17         29.7118  35.3199  39.1933 H              1 <1>                0.0000
     18 H18         29.3311  40.1940  36.0457 H              1 <1>                0.0000
     19 H19         30.9653  39.8760  35.8194 H              1 <1>                0.0000
@<TRIPOS>BOND
    1    1    2 1     
    2    1   13 1     
    3    1   14 1     
    4    1   15 1     
    5    2    3 2     
    6    2    4 1     
    7    4    5 ar    
    8    4   12 ar    
    9    5    6 ar    
   10    5   16 1     
   11    6    7 1     
   12    6    8 ar    
   13    7   18 1     
   14    7   19 1     
   15    8    9 ar    
   16    8   10 ar    
   17   10   11 1     
   18   10   12 ar    
   19   12   17 1     
@<TRIPOS>SUBSTRUCTURE
      1 ****           1
@<TRIPOS>SET
DONOR_HYDROGENS      STATIC     ATOMS    <user>   **** ""
2 18 19
ATOM$RED        STATIC     ATOMS    COLORGROUP SYSTEM
2 18 19
@<TRIPOS>COMMENT
> <Gold.Version>
2022.2.0

> <Gold.Id.Protein>
1qkm|1qkm_protein|mol2

> <Gold.Protein.RotatedTorsions>
[  496  491  490  487 ] final    4.07 input  -89.99 | X-H torsion

> <Gold.Protein.ActiveResidues>
 MET295  LEU298  THR299  LEU301  ALA302  GLU305  TRP335  MET336  LEU339  MET340 
 GLY342  LEU343  ARG346  PHE356  ILE373  ILE376  PHE377  LEU380  LYS471  GLY472 
 MET473  HIS475  LEU476  LEU477  ASN478  MET479  VAL484  VAL487 

> <Gold.Protein.RotatedAtoms>
   36.2633   34.1548   42.2679 H   0  0  0  0  0  0  0  0  0  0  0  0  # atno 496  bound_to 491 

> <Gold.Score>
     Score     S(PLP)   S(hbond)     S(cho)   S(metal)  DE(clash)   DE(tors)     intcor
     34.92     -34.96       0.00       0.00       0.00       0.00       0.02       0.00

> <Gold.PLP.Fitness>
34.9232

> <Gold.PLP.PLP>
-34.9553

> <Gold.PLP.part.hbond>
0.0000

> <Gold.PLP.part.metal>
0.0000

> <Gold.PLP.part.buried>
-2.9774

> <Gold.PLP.part.nonpolar>
-31.9754

> <Gold.PLP.part.repulsive>
0.0348

> <Gold.PLP.ligand.clash>
0.0000

> <Gold.PLP.ligand.torsion>
0.0161

> <Gold.PLP.Chemscore.Hbond>
0.0000

> <Gold.PLP.Chemscore.CHOScore>
0.0000

> <Gold.PLP.Chemscore.Metal>
0.0000

> <Gold.PLP.Chemscore.Internal.Correction>
0.0000

