#       Name:                EN300-623952_i001
#       Creating user name   aseyller
#       Creation time:       Fri Apr 21 16:35:32 2023


#       File generated by GOLD software.
#

@<TRIPOS>MOLECULE
EN300-623952_i001|aminophenols|mol2|66|dock9
    19    19     1
SMALL
USER_CHARGES


@<TRIPOS>ATOM
      1 C1          30.7487  37.8811  37.4349 C.3            1 <1>                0.0000
      2 C2          30.5049  36.7547  38.4060 C.2            1 <1>                0.0000
      3 O3          31.3779  35.9409  38.6224 O.2            1 <1>                0.0000
      4 C4          29.2101  36.6423  39.0900 C.ar           1 <1>                0.0000
      5 C5          29.1194  35.9692  40.3146 C.ar           1 <1>                0.0000
      6 C6          27.8986  35.8668  40.9544 C.ar           1 <1>                0.0000
      7 N7          27.8043  35.1950  42.1789 N.pl3          1 <1>                0.0000
      8 C8          26.7596  36.4335  40.3800 C.ar           1 <1>                0.0000
      9 O9          25.5610  36.3321  41.0106 O.co2          1 <1>               -1.0000
     10 C10         26.8489  37.1020  39.1644 C.ar           1 <1>                0.0000
     11 F11         25.7434  37.6485  38.6130 F              1 <1>                0.0000
     12 C12         28.0648  37.2129  38.5225 C.ar           1 <1>                0.0000
     13 H13         31.7577  37.8001  37.0304 H              1 <1>                0.0000
     14 H14         30.0253  37.8228  36.6217 H              1 <1>                0.0000
     15 H15         30.6396  38.8353  37.9506 H              1 <1>                0.0000
     16 H16         30.0012  35.5308  40.7579 H              1 <1>                0.0000
     17 H17         28.1315  37.7326  37.5781 H              1 <1>                0.0000
     18 H18         28.5958  34.8013  42.5783 H              1 <1>                0.0000
     19 H19         26.9476  35.1231  42.6280 H              1 <1>                0.0000
@<TRIPOS>BOND
    1    1    2 1     
    2    1   13 1     
    3    1   14 1     
    4    1   15 1     
    5    2    3 2     
    6    2    4 1     
    7    4    5 ar    
    8    4   12 ar    
    9    5    6 ar    
   10    5   16 1     
   11    6    7 1     
   12    6    8 ar    
   13    7   18 1     
   14    7   19 1     
   15    8    9 ar    
   16    8   10 ar    
   17   10   11 1     
   18   10   12 ar    
   19   12   17 1     
@<TRIPOS>SUBSTRUCTURE
      1 ****           1
@<TRIPOS>SET
DONOR_HYDROGENS      STATIC     ATOMS    <user>   **** ""
2 18 19
ATOM$RED        STATIC     ATOMS    COLORGROUP SYSTEM
2 18 19
@<TRIPOS>COMMENT
> <Gold.Version>
2022.2.0

> <Gold.Id.Protein>
1qkm|1qkm_protein|mol2

> <Gold.Protein.RotatedTorsions>
[  496  491  490  487 ] final  -53.78 input  -89.99 | X-H torsion

> <Gold.Protein.ActiveResidues>
 MET295  LEU298  THR299  LEU301  ALA302  GLU305  TRP335  MET336  LEU339  MET340 
 GLY342  LEU343  ARG346  PHE356  ILE373  ILE376  PHE377  LEU380  LYS471  GLY472 
 MET473  HIS475  LEU476  LEU477  ASN478  MET479  VAL484  VAL487 

> <Gold.Protein.RotatedAtoms>
   36.4508   34.7178   41.5749 H   0  0  0  0  0  0  0  0  0  0  0  0  # atno 496  bound_to 491 

> <Gold.Score>
     Score     S(PLP)   S(hbond)     S(cho)   S(metal)  DE(clash)   DE(tors)     intcor
     40.37     -37.90       0.99       0.00       0.00       0.00       0.25       0.00

> <Gold.PLP.Fitness>
40.3667

> <Gold.PLP.PLP>
-37.8971

> <Gold.PLP.part.hbond>
-0.6876

> <Gold.PLP.part.metal>
0.0000

> <Gold.PLP.part.buried>
-4.7160

> <Gold.PLP.part.nonpolar>
-33.4687

> <Gold.PLP.part.repulsive>
0.3771

> <Gold.PLP.ligand.clash>
0.0000

> <Gold.PLP.ligand.torsion>
0.2532

> <Gold.PLP.Chemscore.Hbond>
0.9920

> <Gold.PLP.Chemscore.CHOScore>
0.0000

> <Gold.PLP.Chemscore.Metal>
0.0000

> <Gold.Chemscore.Hbonds>
donor molecule, donor type, donor heavy atom, donor atom, acceptor molecule, acceptor atom, score
      L1  H     7    19       P1   582  0.99

> <Gold.PLP.Chemscore.Internal.Correction>
0.0000

