#       Name:                EN300-623952_i001
#       Creating user name   aseyller
#       Creation time:       Fri Apr 21 16:35:31 2023


#       File generated by GOLD software.
#

@<TRIPOS>MOLECULE
EN300-623952_i001|aminophenols|mol2|66|dock6
    19    19     1
SMALL
USER_CHARGES


@<TRIPOS>ATOM
      1 C1          28.4946  36.2965  41.8079 C.3            1 <1>                0.0000
      2 C2          28.3063  36.4766  40.3236 C.2            1 <1>                0.0000
      3 O3          27.2220  36.7967  39.8842 O.2            1 <1>                0.0000
      4 C4          29.4357  36.2642  39.4091 C.ar           1 <1>                0.0000
      5 C5          29.8505  37.2936  38.5551 C.ar           1 <1>                0.0000
      6 C6          30.9143  37.0887  37.6969 C.ar           1 <1>                0.0000
      7 N7          31.3319  38.1157  36.8421 N.pl3          1 <1>                0.0000
      8 C8          31.5727  35.8579  37.6825 C.ar           1 <1>                0.0000
      9 O9          32.6181  35.6588  36.8386 O.co2          1 <1>               -1.0000
     10 C10         31.1615  34.8357  38.5300 C.ar           1 <1>                0.0000
     11 F11         31.8023  33.6465  38.5119 F              1 <1>                0.0000
     12 C12         30.1041  35.0344  39.3931 C.ar           1 <1>                0.0000
     13 H13         27.5533  36.4955  42.3204 H              1 <1>                0.0000
     14 H14         28.8106  35.2736  42.0127 H              1 <1>                0.0000
     15 H15         29.2560  36.9903  42.1644 H              1 <1>                0.0000
     16 H16         29.3401  38.2453  38.5668 H              1 <1>                0.0000
     17 H17         29.7865  34.2385  40.0505 H              1 <1>                0.0000
     18 H18         30.8745  38.9711  36.8522 H              1 <1>                0.0000
     19 H19         32.0784  37.9719  36.2398 H              1 <1>                0.0000
@<TRIPOS>BOND
    1    1    2 1     
    2    1   13 1     
    3    1   14 1     
    4    1   15 1     
    5    2    3 2     
    6    2    4 1     
    7    4    5 ar    
    8    4   12 ar    
    9    5    6 ar    
   10    5   16 1     
   11    6    7 1     
   12    6    8 ar    
   13    7   18 1     
   14    7   19 1     
   15    8    9 ar    
   16    8   10 ar    
   17   10   11 1     
   18   10   12 ar    
   19   12   17 1     
@<TRIPOS>SUBSTRUCTURE
      1 ****           1
@<TRIPOS>SET
DONOR_HYDROGENS      STATIC     ATOMS    <user>   **** ""
2 18 19
ATOM$RED        STATIC     ATOMS    COLORGROUP SYSTEM
2 18 19
@<TRIPOS>COMMENT
> <Gold.Version>
2022.2.0

> <Gold.Id.Protein>
1qkm|1qkm_protein|mol2

> <Gold.Protein.RotatedTorsions>
[  496  491  490  487 ] final -164.16 input  -89.99 | X-H torsion

> <Gold.Protein.ActiveResidues>
 MET295  LEU298  THR299  LEU301  ALA302  GLU305  TRP335  MET336  LEU339  MET340 
 GLY342  LEU343  ARG346  PHE356  ILE373  ILE376  PHE377  LEU380  LYS471  GLY472 
 MET473  HIS475  LEU476  LEU477  ASN478  MET479  VAL484  VAL487 

> <Gold.Protein.RotatedAtoms>
   37.2892   33.6985   40.7644 H   0  0  0  0  0  0  0  0  0  0  0  0  # atno 496  bound_to 491 

> <Gold.Score>
     Score     S(PLP)   S(hbond)     S(cho)   S(metal)  DE(clash)   DE(tors)     intcor
     37.20     -39.33       0.00       0.00       0.00       0.00       1.07       0.00

> <Gold.PLP.Fitness>
37.1954

> <Gold.PLP.PLP>
-39.3321

> <Gold.PLP.part.hbond>
0.0000

> <Gold.PLP.part.metal>
0.0000

> <Gold.PLP.part.buried>
-3.0761

> <Gold.PLP.part.nonpolar>
-36.5956

> <Gold.PLP.part.repulsive>
0.0256

> <Gold.PLP.ligand.clash>
0.0000

> <Gold.PLP.ligand.torsion>
1.0684

> <Gold.PLP.Chemscore.Hbond>
0.0000

> <Gold.PLP.Chemscore.CHOScore>
0.0000

> <Gold.PLP.Chemscore.Metal>
0.0000

> <Gold.PLP.Chemscore.Internal.Correction>
0.0000

