#       Name:                EN300-623952_i001
#       Creating user name   aseyller
#       Creation time:       Fri Apr 21 16:35:31 2023


#       File generated by GOLD software.
#

@<TRIPOS>MOLECULE
EN300-623952_i001|aminophenols|mol2|66|dock7
    19    19     1
SMALL
USER_CHARGES


@<TRIPOS>ATOM
      1 C1          32.5440  36.8424  36.7598 C.3            1 <1>                0.0000
      2 C2          31.2060  37.5110  36.5757 C.2            1 <1>                0.0000
      3 O3          31.0124  38.2263  35.6154 O.2            1 <1>                0.0000
      4 C4          30.1365  37.2966  37.5591 C.ar           1 <1>                0.0000
      5 C5          30.4145  36.6462  38.7677 C.ar           1 <1>                0.0000
      6 C6          29.4045  36.4476  39.6900 C.ar           1 <1>                0.0000
      7 N7          29.6789  35.7981  40.8995 N.pl3          1 <1>                0.0000
      8 C8          28.1108  36.8945  39.4160 C.ar           1 <1>                0.0000
      9 O9          27.1199  36.6986  40.3238 O.co2          1 <1>               -1.0000
     10 C10         27.8342  37.5403  38.2164 C.ar           1 <1>                0.0000
     11 F11         26.5804  37.9708  37.9563 F              1 <1>                0.0000
     12 C12         28.8381  37.7470  37.2933 C.ar           1 <1>                0.0000
     13 H13         33.2040  37.1177  35.9370 H              1 <1>                0.0000
     14 H14         32.9848  37.1653  37.7029 H              1 <1>                0.0000
     15 H15         32.4109  35.7606  36.7724 H              1 <1>                0.0000
     16 H16         31.4156  36.3004  38.9786 H              1 <1>                0.0000
     17 H17         28.6205  38.2488  36.3620 H              1 <1>                0.0000
     18 H18         30.5779  35.4877  41.0901 H              1 <1>                0.0000
     19 H19         28.9701  35.6587  41.5467 H              1 <1>                0.0000
@<TRIPOS>BOND
    1    1    2 1     
    2    1   13 1     
    3    1   14 1     
    4    1   15 1     
    5    2    3 2     
    6    2    4 1     
    7    4    5 ar    
    8    4   12 ar    
    9    5    6 ar    
   10    5   16 1     
   11    6    7 1     
   12    6    8 ar    
   13    7   18 1     
   14    7   19 1     
   15    8    9 ar    
   16    8   10 ar    
   17   10   11 1     
   18   10   12 ar    
   19   12   17 1     
@<TRIPOS>SUBSTRUCTURE
      1 ****           1
@<TRIPOS>SET
DONOR_HYDROGENS      STATIC     ATOMS    <user>   **** ""
2 18 19
ATOM$RED        STATIC     ATOMS    COLORGROUP SYSTEM
2 18 19
@<TRIPOS>COMMENT
> <Gold.Version>
2022.2.0

> <Gold.Id.Protein>
1qkm|1qkm_protein|mol2

> <Gold.Protein.RotatedTorsions>
[  496  491  490  487 ] final  114.04 input  -89.99 | X-H torsion

> <Gold.Protein.ActiveResidues>
 MET295  LEU298  THR299  LEU301  ALA302  GLU305  TRP335  MET336  LEU339  MET340 
 GLY342  LEU343  ARG346  PHE356  ILE373  ILE376  PHE377  LEU380  LYS471  GLY472 
 MET473  HIS475  LEU476  LEU477  ASN478  MET479  VAL484  VAL487 

> <Gold.Protein.RotatedAtoms>
   37.0330   32.9395   41.7045 H   0  0  0  0  0  0  0  0  0  0  0  0  # atno 496  bound_to 491 

> <Gold.Score>
     Score     S(PLP)   S(hbond)     S(cho)   S(metal)  DE(clash)   DE(tors)     intcor
     35.30     -32.39       1.00       0.00       0.00       0.00       0.04       0.00

> <Gold.PLP.Fitness>
35.2991

> <Gold.PLP.PLP>
-32.3853

> <Gold.PLP.part.hbond>
-1.0000

> <Gold.PLP.part.metal>
0.0000

> <Gold.PLP.part.buried>
-3.3740

> <Gold.PLP.part.nonpolar>
-27.8211

> <Gold.PLP.part.repulsive>
0.1527

> <Gold.PLP.ligand.clash>
0.0000

> <Gold.PLP.ligand.torsion>
0.0431

> <Gold.PLP.Chemscore.Hbond>
1.0000

> <Gold.PLP.Chemscore.CHOScore>
0.0000

> <Gold.PLP.Chemscore.Metal>
0.0000

> <Gold.Chemscore.Hbonds>
donor molecule, donor type, donor heavy atom, donor atom, acceptor molecule, acceptor atom, score
      L1  H     7    18       P1   470  1.00

> <Gold.PLP.Chemscore.Internal.Correction>
0.0000

