#       Name:                EN300-623952_i001
#       Creating user name   aseyller
#       Creation time:       Fri Apr 21 16:35:30 2023


#       File generated by GOLD software.
#

@<TRIPOS>MOLECULE
EN300-623952_i001|aminophenols|mol2|66|dock3
    19    19     1
SMALL
USER_CHARGES


@<TRIPOS>ATOM
      1 C1          31.5929  35.5084  38.7502 C.3            1 <1>                0.0000
      2 C2          30.4394  36.3596  38.2854 C.2            1 <1>                0.0000
      3 O3          30.5465  37.0296  37.2799 O.2            1 <1>                0.0000
      4 C4          29.1857  36.3781  39.0500 C.ar           1 <1>                0.0000
      5 C5          29.1270  35.7831  40.3163 C.ar           1 <1>                0.0000
      6 C6          27.9448  35.8037  41.0319 C.ar           1 <1>                0.0000
      7 N7          27.8826  35.2102  42.2983 N.pl3          1 <1>                0.0000
      8 C8          26.8126  36.4166  40.4923 C.ar           1 <1>                0.0000
      9 O9          25.6520  36.4361  41.1973 O.co2          1 <1>               -1.0000
     10 C10         26.8702  37.0075  39.2353 C.ar           1 <1>                0.0000
     11 F11         25.7714  37.5992  38.7179 F              1 <1>                0.0000
     12 C12         28.0479  36.9956  38.5174 C.ar           1 <1>                0.0000
     13 H13         32.4300  35.6234  38.0614 H              1 <1>                0.0000
     14 H14         31.8977  35.8230  39.7482 H              1 <1>                0.0000
     15 H15         31.2853  34.4630  38.7768 H              1 <1>                0.0000
     16 H16         30.0034  35.3088  40.7327 H              1 <1>                0.0000
     17 H17         28.0899  37.4553  37.5410 H              1 <1>                0.0000
     18 H18         28.6694  34.7845  42.6734 H              1 <1>                0.0000
     19 H19         27.0530  35.2247  42.8005 H              1 <1>                0.0000
@<TRIPOS>BOND
    1    1    2 1     
    2    1   13 1     
    3    1   14 1     
    4    1   15 1     
    5    2    3 2     
    6    2    4 1     
    7    4    5 ar    
    8    4   12 ar    
    9    5    6 ar    
   10    5   16 1     
   11    6    7 1     
   12    6    8 ar    
   13    7   18 1     
   14    7   19 1     
   15    8    9 ar    
   16    8   10 ar    
   17   10   11 1     
   18   10   12 ar    
   19   12   17 1     
@<TRIPOS>SUBSTRUCTURE
      1 ****           1
@<TRIPOS>SET
DONOR_HYDROGENS      STATIC     ATOMS    <user>   **** ""
2 18 19
ATOM$RED        STATIC     ATOMS    COLORGROUP SYSTEM
2 18 19
@<TRIPOS>COMMENT
> <Gold.Version>
2022.2.0

> <Gold.Id.Protein>
1qkm|1qkm_protein|mol2

> <Gold.Protein.RotatedTorsions>
[  496  491  490  487 ] final -120.67 input  -89.99 | X-H torsion

> <Gold.Protein.ActiveResidues>
 MET295  LEU298  THR299  LEU301  ALA302  GLU305  TRP335  MET336  LEU339  MET340 
 GLY342  LEU343  ARG346  PHE356  ILE373  ILE376  PHE377  LEU380  LYS471  GLY472 
 MET473  HIS475  LEU476  LEU477  ASN478  MET479  VAL484  VAL487 

> <Gold.Protein.RotatedAtoms>
   37.0316   34.3474   40.7963 H   0  0  0  0  0  0  0  0  0  0  0  0  # atno 496  bound_to 491 

> <Gold.Score>
     Score     S(PLP)   S(hbond)     S(cho)   S(metal)  DE(clash)   DE(tors)     intcor
     42.62     -39.74       0.99       0.00       0.00       0.00       0.05       0.00

> <Gold.PLP.Fitness>
42.6247

> <Gold.PLP.PLP>
-39.7420

> <Gold.PLP.part.hbond>
-0.6353

> <Gold.PLP.part.metal>
0.0000

> <Gold.PLP.part.buried>
-4.6327

> <Gold.PLP.part.nonpolar>
-35.4602

> <Gold.PLP.part.repulsive>
0.3079

> <Gold.PLP.ligand.clash>
0.0000

> <Gold.PLP.ligand.torsion>
0.0467

> <Gold.PLP.Chemscore.Hbond>
0.9920

> <Gold.PLP.Chemscore.CHOScore>
0.0000

> <Gold.PLP.Chemscore.Metal>
0.0000

> <Gold.Chemscore.Hbonds>
donor molecule, donor type, donor heavy atom, donor atom, acceptor molecule, acceptor atom, score
      L1  H     7    19       P1   582  0.99

> <Gold.PLP.Chemscore.Internal.Correction>
0.0000

