#       Name:                EN300-623952_i001
#       Creating user name   aseyller
#       Creation time:       Fri Apr 21 16:35:32 2023


#       File generated by GOLD software.
#

@<TRIPOS>MOLECULE
EN300-623952_i001|aminophenols|mol2|66|dock10
    19    19     1
SMALL
USER_CHARGES


@<TRIPOS>ATOM
      1 C1          32.0454  33.6802  38.2518 C.3            1 <1>                0.0000
      2 C2          31.2883  34.9833  38.2418 C.2            1 <1>                0.0000
      3 O3          30.4686  35.2151  39.1052 O.2            1 <1>                0.0000
      4 C4          31.5430  35.9723  37.1864 C.ar           1 <1>                0.0000
      5 C5          32.6909  35.8700  36.3909 C.ar           1 <1>                0.0000
      6 C6          32.9254  36.8032  35.3987 C.ar           1 <1>                0.0000
      7 N7          34.0718  36.7038  34.6012 N.pl3          1 <1>                0.0000
      8 C8          32.0194  37.8446  35.1913 C.ar           1 <1>                0.0000
      9 O9          32.2517  38.7603  34.2155 O.co2          1 <1>               -1.0000
     10 C10         30.8797  37.9467  35.9806 C.ar           1 <1>                0.0000
     11 F11         30.0062  38.9566  35.7756 F              1 <1>                0.0000
     12 C12         30.6360  37.0162  36.9693 C.ar           1 <1>                0.0000
     13 H13         31.7241  33.0798  39.1030 H              1 <1>                0.0000
     14 H14         31.8460  33.1370  37.3281 H              1 <1>                0.0000
     15 H15         33.1138  33.8813  38.3316 H              1 <1>                0.0000
     16 H16         33.3915  35.0641  36.5524 H              1 <1>                0.0000
     17 H17         29.7499  37.0978  37.5812 H              1 <1>                0.0000
     18 H18         34.7013  35.9800  34.7451 H              1 <1>                0.0000
     19 H19         34.2364  37.3586  33.9049 H              1 <1>                0.0000
@<TRIPOS>BOND
    1    1    2 1     
    2    1   13 1     
    3    1   14 1     
    4    1   15 1     
    5    2    3 2     
    6    2    4 1     
    7    4    5 ar    
    8    4   12 ar    
    9    5    6 ar    
   10    5   16 1     
   11    6    7 1     
   12    6    8 ar    
   13    7   18 1     
   14    7   19 1     
   15    8    9 ar    
   16    8   10 ar    
   17   10   11 1     
   18   10   12 ar    
   19   12   17 1     
@<TRIPOS>SUBSTRUCTURE
      1 ****           1
@<TRIPOS>SET
DONOR_HYDROGENS      STATIC     ATOMS    <user>   **** ""
2 18 19
ATOM$RED        STATIC     ATOMS    COLORGROUP SYSTEM
2 18 19
@<TRIPOS>COMMENT
> <Gold.Version>
2022.2.0

> <Gold.Id.Protein>
1qkm|1qkm_protein|mol2

> <Gold.Protein.RotatedTorsions>
[  496  491  490  487 ] final  -78.46 input  -89.99 | X-H torsion

> <Gold.Protein.ActiveResidues>
 MET295  LEU298  THR299  LEU301  ALA302  GLU305  TRP335  MET336  LEU339  MET340 
 GLY342  LEU343  ARG346  PHE356  ILE373  ILE376  PHE377  LEU380  LYS471  GLY472 
 MET473  HIS475  LEU476  LEU477  ASN478  MET479  VAL484  VAL487 

> <Gold.Protein.RotatedAtoms>
   36.6521   34.7120   41.2256 H   0  0  0  0  0  0  0  0  0  0  0  0  # atno 496  bound_to 491 

> <Gold.Score>
     Score     S(PLP)   S(hbond)     S(cho)   S(metal)  DE(clash)   DE(tors)     intcor
     37.74     -34.96       1.00       0.00       0.00       0.00       0.11       0.00

> <Gold.PLP.Fitness>
37.7377

> <Gold.PLP.PLP>
-34.9585

> <Gold.PLP.part.hbond>
-1.0000

> <Gold.PLP.part.metal>
0.0000

> <Gold.PLP.part.buried>
-2.4545

> <Gold.PLP.part.nonpolar>
-31.5437

> <Gold.PLP.part.repulsive>
0.2993

> <Gold.PLP.ligand.clash>
0.0000

> <Gold.PLP.ligand.torsion>
0.1104

> <Gold.PLP.Chemscore.Hbond>
1.0000

> <Gold.PLP.Chemscore.CHOScore>
0.0000

> <Gold.PLP.Chemscore.Metal>
0.0000

> <Gold.Chemscore.Hbonds>
donor molecule, donor type, donor heavy atom, donor atom, acceptor molecule, acceptor atom, score
      L1  H     7    19       P1  3229  1.00

> <Gold.PLP.Chemscore.Internal.Correction>
0.0000

