#       Name:                EN300-623952_i001
#       Creating user name   aseyller
#       Creation time:       Fri Apr 21 16:35:32 2023


#       File generated by GOLD software.
#

@<TRIPOS>MOLECULE
EN300-623952_i001|aminophenols|mol2|66|dock8
    19    19     1
SMALL
USER_CHARGES


@<TRIPOS>ATOM
      1 C1          30.3644  35.1104  39.1101 C.3            1 <1>                0.0000
      2 C2          31.4410  34.8505  38.0881 C.2            1 <1>                0.0000
      3 O3          32.1042  33.8368  38.1501 O.2            1 <1>                0.0000
      4 C4          31.6872  35.8247  37.0170 C.ar           1 <1>                0.0000
      5 C5          32.8977  35.8031  36.3132 C.ar           1 <1>                0.0000
      6 C6          33.1240  36.7219  35.3058 C.ar           1 <1>                0.0000
      7 N7          34.3328  36.7030  34.5999 N.pl3          1 <1>                0.0000
      8 C8          32.1474  37.6686  34.9918 C.ar           1 <1>                0.0000
      9 O9          32.3717  38.5702  34.0012 O.co2          1 <1>               -1.0000
     10 C10         30.9456  37.6905  35.6900 C.ar           1 <1>                0.0000
     11 F11         30.0039  38.6089  35.3820 F              1 <1>                0.0000
     12 C12         30.7102  36.7734  36.6931 C.ar           1 <1>                0.0000
     13 H13         30.3297  34.2835  39.8196 H              1 <1>                0.0000
     14 H14         30.5839  36.0363  39.6416 H              1 <1>                0.0000
     15 H15         29.4008  35.1991  38.6083 H              1 <1>                0.0000
     16 H16         33.6527  35.0706  36.5573 H              1 <1>                0.0000
     17 H17         29.7757  36.7926  37.2341 H              1 <1>                0.0000
     18 H18         35.0114  36.0450  34.8179 H              1 <1>                0.0000
     19 H19         34.4916  37.3477  33.8929 H              1 <1>                0.0000
@<TRIPOS>BOND
    1    1    2 1     
    2    1   13 1     
    3    1   14 1     
    4    1   15 1     
    5    2    3 2     
    6    2    4 1     
    7    4    5 ar    
    8    4   12 ar    
    9    5    6 ar    
   10    5   16 1     
   11    6    7 1     
   12    6    8 ar    
   13    7   18 1     
   14    7   19 1     
   15    8    9 ar    
   16    8   10 ar    
   17   10   11 1     
   18   10   12 ar    
   19   12   17 1     
@<TRIPOS>SUBSTRUCTURE
      1 ****           1
@<TRIPOS>SET
DONOR_HYDROGENS      STATIC     ATOMS    <user>   **** ""
2 18 19
ATOM$RED        STATIC     ATOMS    COLORGROUP SYSTEM
2 18 19
@<TRIPOS>COMMENT
> <Gold.Version>
2022.2.0

> <Gold.Id.Protein>
1qkm|1qkm_protein|mol2

> <Gold.Protein.RotatedTorsions>
[  496  491  490  487 ] final  172.24 input  -89.99 | X-H torsion

> <Gold.Protein.ActiveResidues>
 MET295  LEU298  THR299  LEU301  ALA302  GLU305  TRP335  MET336  LEU339  MET340 
 GLY342  LEU343  ARG346  PHE356  ILE373  ILE376  PHE377  LEU380  LYS471  GLY472 
 MET473  HIS475  LEU476  LEU477  ASN478  MET479  VAL484  VAL487 

> <Gold.Protein.RotatedAtoms>
   37.3173   33.3550   40.9374 H   0  0  0  0  0  0  0  0  0  0  0  0  # atno 496  bound_to 491 

> <Gold.Score>
     Score     S(PLP)   S(hbond)     S(cho)   S(metal)  DE(clash)   DE(tors)     intcor
     36.66     -33.97       1.00       0.00       0.00       0.00       0.15       0.00

> <Gold.PLP.Fitness>
36.6642

> <Gold.PLP.PLP>
-33.9706

> <Gold.PLP.part.hbond>
-1.0000

> <Gold.PLP.part.metal>
0.0000

> <Gold.PLP.part.buried>
-2.1064

> <Gold.PLP.part.nonpolar>
-30.7756

> <Gold.PLP.part.repulsive>
0.2855

> <Gold.PLP.ligand.clash>
0.0000

> <Gold.PLP.ligand.torsion>
0.1533

> <Gold.PLP.Chemscore.Hbond>
1.0000

> <Gold.PLP.Chemscore.CHOScore>
0.0000

> <Gold.PLP.Chemscore.Metal>
0.0000

> <Gold.Chemscore.Hbonds>
donor molecule, donor type, donor heavy atom, donor atom, acceptor molecule, acceptor atom, score
      L1  H     7    19       P1  3229  1.00

> <Gold.PLP.Chemscore.Internal.Correction>
0.0000

