#       Name:                EN300-623952_i001
#       Creating user name   aseyller
#       Creation time:       Fri Apr 21 16:35:32 2023


#       File generated by GOLD software.
#

@<TRIPOS>MOLECULE
EN300-623952_i001|aminophenols|mol2|66|dock11
    19    19     1
SMALL
USER_CHARGES


@<TRIPOS>ATOM
      1 C1          26.0435  37.2674  39.2405 C.3            1 <1>                0.0000
      2 C2          27.1775  36.3817  39.6888 C.2            1 <1>                0.0000
      3 O3          26.9903  35.5436  40.5454 O.2            1 <1>                0.0000
      4 C4          28.5092  36.5336  39.0885 C.ar           1 <1>                0.0000
      5 C5          29.5195  35.6083  39.3786 C.ar           1 <1>                0.0000
      6 C6          30.7708  35.7556  38.8106 C.ar           1 <1>                0.0000
      7 N7          31.7831  34.8322  39.0980 N.pl3          1 <1>                0.0000
      8 C8          31.0255  36.8247  37.9500 C.ar           1 <1>                0.0000
      9 O9          32.2558  36.9674  37.3926 O.co2          1 <1>               -1.0000
     10 C10         30.0231  37.7436  37.6616 C.ar           1 <1>                0.0000
     11 F11         30.2751  38.7764  36.8281 F              1 <1>                0.0000
     12 C12         28.7701  37.6003  38.2204 C.ar           1 <1>                0.0000
     13 H13         25.1405  37.0095  39.7939 H              1 <1>                0.0000
     14 H14         26.3001  38.3098  39.4292 H              1 <1>                0.0000
     15 H15         25.8697  37.1232  38.1741 H              1 <1>                0.0000
     16 H16         29.3215  34.7817  40.0449 H              1 <1>                0.0000
     17 H17         27.9931  38.3156  37.9948 H              1 <1>                0.0000
     18 H18         31.6061  34.0891  39.6958 H              1 <1>                0.0000
     19 H19         32.6612  34.9356  38.6993 H              1 <1>                0.0000
@<TRIPOS>BOND
    1    1    2 1     
    2    1   13 1     
    3    1   14 1     
    4    1   15 1     
    5    2    3 2     
    6    2    4 1     
    7    4    5 ar    
    8    4   12 ar    
    9    5    6 ar    
   10    5   16 1     
   11    6    7 1     
   12    6    8 ar    
   13    7   18 1     
   14    7   19 1     
   15    8    9 ar    
   16    8   10 ar    
   17   10   11 1     
   18   10   12 ar    
   19   12   17 1     
@<TRIPOS>SUBSTRUCTURE
      1 ****           1
@<TRIPOS>SET
DONOR_HYDROGENS      STATIC     ATOMS    <user>   **** ""
2 18 19
ATOM$RED        STATIC     ATOMS    COLORGROUP SYSTEM
2 18 19
@<TRIPOS>COMMENT
> <Gold.Version>
2022.2.0

> <Gold.Id.Protein>
1qkm|1qkm_protein|mol2

> <Gold.Protein.RotatedTorsions>
[  496  491  490  487 ] final  118.81 input  -89.99 | X-H torsion

> <Gold.Protein.ActiveResidues>
 MET295  LEU298  THR299  LEU301  ALA302  GLU305  TRP335  MET336  LEU339  MET340 
 GLY342  LEU343  ARG346  PHE356  ILE373  ILE376  PHE377  LEU380  LYS471  GLY472 
 MET473  HIS475  LEU476  LEU477  ASN478  MET479  VAL484  VAL487 

> <Gold.Protein.RotatedAtoms>
   37.0713   32.9417   41.6359 H   0  0  0  0  0  0  0  0  0  0  0  0  # atno 496  bound_to 491 

> <Gold.Score>
     Score     S(PLP)   S(hbond)     S(cho)   S(metal)  DE(clash)   DE(tors)     intcor
     36.42     -36.48       0.00       0.00       0.00       0.00       0.03       0.00

> <Gold.PLP.Fitness>
36.4196

> <Gold.PLP.PLP>
-36.4757

> <Gold.PLP.part.hbond>
-1.0000

> <Gold.PLP.part.metal>
0.0000

> <Gold.PLP.part.buried>
-3.0650

> <Gold.PLP.part.nonpolar>
-32.5779

> <Gold.PLP.part.repulsive>
0.1836

> <Gold.PLP.ligand.clash>
0.0000

> <Gold.PLP.ligand.torsion>
0.0281

> <Gold.PLP.Chemscore.Hbond>
0.0000

> <Gold.PLP.Chemscore.CHOScore>
0.0000

> <Gold.PLP.Chemscore.Metal>
0.0000

> <Gold.PLP.Chemscore.Internal.Correction>
0.0000

