#       Name:                EN300-623952_i001
#       Creating user name   aseyller
#       Creation time:       Fri Apr 21 16:35:33 2023


#       File generated by GOLD software.
#

@<TRIPOS>MOLECULE
EN300-623952_i001|aminophenols|mol2|66|dock14
    19    19     1
SMALL
USER_CHARGES


@<TRIPOS>ATOM
      1 C1          33.7465  36.4708  34.9924 C.3            1 <1>                0.0000
      2 C2          32.4130  37.1485  35.1755 C.2            1 <1>                0.0000
      3 O3          32.0006  37.9141  34.3298 O.2            1 <1>                0.0000
      4 C4          31.6130  36.8822  36.3779 C.ar           1 <1>                0.0000
      5 C5          32.0548  35.9471  37.3220 C.ar           1 <1>                0.0000
      6 C6          31.2983  35.7007  38.4522 C.ar           1 <1>                0.0000
      7 N7          31.7371  34.7668  39.3983 N.pl3          1 <1>                0.0000
      8 C8          30.0969  36.3831  38.6506 C.ar           1 <1>                0.0000
      9 O9          29.3552  36.1397  39.7621 O.co2          1 <1>               -1.0000
     10 C10         29.6577  37.3115  37.7139 C.ar           1 <1>                0.0000
     11 F11         28.4941  37.9690  37.9110 F              1 <1>                0.0000
     12 C12         30.4098  37.5668  36.5861 C.ar           1 <1>                0.0000
     13 H13         34.1895  36.7893  34.0487 H              1 <1>                0.0000
     14 H14         34.4083  36.7427  35.8146 H              1 <1>                0.0000
     15 H15         33.6061  35.3898  34.9812 H              1 <1>                0.0000
     16 H16         32.9843  35.4194  37.1673 H              1 <1>                0.0000
     17 H17         30.0664  38.2885  35.8598 H              1 <1>                0.0000
     18 H18         32.5721  34.2928  39.2605 H              1 <1>                0.0000
     19 H19         31.2063  34.5939  40.1914 H              1 <1>                0.0000
@<TRIPOS>BOND
    1    1    2 1     
    2    1   13 1     
    3    1   14 1     
    4    1   15 1     
    5    2    3 2     
    6    2    4 1     
    7    4    5 ar    
    8    4   12 ar    
    9    5    6 ar    
   10    5   16 1     
   11    6    7 1     
   12    6    8 ar    
   13    7   18 1     
   14    7   19 1     
   15    8    9 ar    
   16    8   10 ar    
   17   10   11 1     
   18   10   12 ar    
   19   12   17 1     
@<TRIPOS>SUBSTRUCTURE
      1 ****           1
@<TRIPOS>SET
DONOR_HYDROGENS      STATIC     ATOMS    <user>   **** ""
2 18 19
ATOM$RED        STATIC     ATOMS    COLORGROUP SYSTEM
2 18 19
@<TRIPOS>COMMENT
> <Gold.Version>
2022.2.0

> <Gold.Id.Protein>
1qkm|1qkm_protein|mol2

> <Gold.Protein.RotatedTorsions>
[  496  491  490  487 ] final -143.28 input  -89.99 | X-H torsion

> <Gold.Protein.ActiveResidues>
 MET295  LEU298  THR299  LEU301  ALA302  GLU305  TRP335  MET336  LEU339  MET340 
 GLY342  LEU343  ARG346  PHE356  ILE373  ILE376  PHE377  LEU380  LYS471  GLY472 
 MET473  HIS475  LEU476  LEU477  ASN478  MET479  VAL484  VAL487 

> <Gold.Protein.RotatedAtoms>
   37.1941   34.0239   40.7207 H   0  0  0  0  0  0  0  0  0  0  0  0  # atno 496  bound_to 491 

> <Gold.Score>
     Score     S(PLP)   S(hbond)     S(cho)   S(metal)  DE(clash)   DE(tors)     intcor
     35.13     -33.83       0.44       0.00       0.00       0.00       0.01       0.00

> <Gold.PLP.Fitness>
35.1264

> <Gold.PLP.PLP>
-33.8262

> <Gold.PLP.part.hbond>
-1.0000

> <Gold.PLP.part.metal>
0.0000

> <Gold.PLP.part.buried>
-1.8244

> <Gold.PLP.part.nonpolar>
-30.9664

> <Gold.PLP.part.repulsive>
0.3214

> <Gold.PLP.ligand.clash>
0.0000

> <Gold.PLP.ligand.torsion>
0.0051

> <Gold.PLP.Chemscore.Hbond>
0.4368

> <Gold.PLP.Chemscore.CHOScore>
0.0000

> <Gold.PLP.Chemscore.Metal>
0.0000

> <Gold.Chemscore.Hbonds>
donor molecule, donor type, donor heavy atom, donor atom, acceptor molecule, acceptor atom, score
      L1  H     7    19       P1   470  0.44

> <Gold.PLP.Chemscore.Internal.Correction>
0.0000

