#       Name:                EN300-623952_i001
#       Creating user name   aseyller
#       Creation time:       Fri Apr 21 16:35:33 2023


#       File generated by GOLD software.
#

@<TRIPOS>MOLECULE
EN300-623952_i001|aminophenols|mol2|66|dock12
    19    19     1
SMALL
USER_CHARGES


@<TRIPOS>ATOM
      1 C1          33.2991  35.8924  37.2978 C.3            1 <1>                0.0000
      2 C2          32.2655  36.9368  36.9628 C.2            1 <1>                0.0000
      3 O3          32.4949  37.7642  36.1060 O.2            1 <1>                0.0000
      4 C4          30.9807  36.9529  37.6740 C.ar           1 <1>                0.0000
      5 C5          30.8402  36.2641  38.8852 C.ar           1 <1>                0.0000
      6 C6          29.6290  36.2830  39.5506 C.ar           1 <1>                0.0000
      7 N7          29.4851  35.5959  40.7618 N.pl3          1 <1>                0.0000
      8 C8          28.5492  36.9873  39.0154 C.ar           1 <1>                0.0000
      9 O9          27.3599  37.0048  39.6712 O.co2          1 <1>               -1.0000
     10 C10         28.6880  37.6713  37.8132 C.ar           1 <1>                0.0000
     11 F11         27.6396  38.3513  37.2998 F              1 <1>                0.0000
     12 C12         29.8952  37.6615  37.1459 C.ar           1 <1>                0.0000
     13 H13         34.1796  36.0387  36.6720 H              1 <1>                0.0000
     14 H14         33.5799  35.9825  38.3471 H              1 <1>                0.0000
     15 H15         32.8852  34.9004  37.1163 H              1 <1>                0.0000
     16 H16         31.6762  35.7192  39.2981 H              1 <1>                0.0000
     17 H17         30.0003  38.1936  36.2120 H              1 <1>                0.0000
     18 H18         30.2355  35.1067  41.1339 H              1 <1>                0.0000
     19 H19         28.6351  35.6092  41.2289 H              1 <1>                0.0000
@<TRIPOS>BOND
    1    1    2 1     
    2    1   13 1     
    3    1   14 1     
    4    1   15 1     
    5    2    3 2     
    6    2    4 1     
    7    4    5 ar    
    8    4   12 ar    
    9    5    6 ar    
   10    5   16 1     
   11    6    7 1     
   12    6    8 ar    
   13    7   18 1     
   14    7   19 1     
   15    8    9 ar    
   16    8   10 ar    
   17   10   11 1     
   18   10   12 ar    
   19   12   17 1     
@<TRIPOS>SUBSTRUCTURE
      1 ****           1
@<TRIPOS>SET
DONOR_HYDROGENS      STATIC     ATOMS    <user>   **** ""
2 18 19
ATOM$RED        STATIC     ATOMS    COLORGROUP SYSTEM
2 18 19
@<TRIPOS>COMMENT
> <Gold.Version>
2022.2.0

> <Gold.Id.Protein>
1qkm|1qkm_protein|mol2

> <Gold.Protein.RotatedTorsions>
[  496  491  490  487 ] final -114.61 input  -89.99 | X-H torsion

> <Gold.Protein.ActiveResidues>
 MET295  LEU298  THR299  LEU301  ALA302  GLU305  TRP335  MET336  LEU339  MET340 
 GLY342  LEU343  ARG346  PHE356  ILE373  ILE376  PHE377  LEU380  LYS471  GLY472 
 MET473  HIS475  LEU476  LEU477  ASN478  MET479  VAL484  VAL487 

> <Gold.Protein.RotatedAtoms>
   36.9805   34.4226   40.8372 H   0  0  0  0  0  0  0  0  0  0  0  0  # atno 496  bound_to 491 

> <Gold.Score>
     Score     S(PLP)   S(hbond)     S(cho)   S(metal)  DE(clash)   DE(tors)     intcor
     35.43     -32.72       0.99       0.00       0.00       0.00       0.13       0.00

> <Gold.PLP.Fitness>
35.4256

> <Gold.PLP.PLP>
-32.7166

> <Gold.PLP.part.hbond>
-1.0000

> <Gold.PLP.part.metal>
0.0000

> <Gold.PLP.part.buried>
-2.3997

> <Gold.PLP.part.nonpolar>
-29.7364

> <Gold.PLP.part.repulsive>
0.1070

> <Gold.PLP.ligand.clash>
0.0000

> <Gold.PLP.ligand.torsion>
0.1335

> <Gold.PLP.Chemscore.Hbond>
0.9920

> <Gold.PLP.Chemscore.CHOScore>
0.0000

> <Gold.PLP.Chemscore.Metal>
0.0000

> <Gold.Chemscore.Hbonds>
donor molecule, donor type, donor heavy atom, donor atom, acceptor molecule, acceptor atom, score
      L1  H     7    18       P1   470  0.99

> <Gold.PLP.Chemscore.Internal.Correction>
0.0000

