#       Name:                EN300-623952_i001
#       Creating user name   aseyller
#       Creation time:       Fri Apr 21 16:35:30 2023


#       File generated by GOLD software.
#

@<TRIPOS>MOLECULE
EN300-623952_i001|aminophenols|mol2|66|dock2
    19    19     1
SMALL
USER_CHARGES


@<TRIPOS>ATOM
      1 C1          30.0191  38.0142  36.1424 C.3            1 <1>                0.0000
      2 C2          30.3878  37.3365  37.4370 C.2            1 <1>                0.0000
      3 O3          31.5372  37.0088  37.6441 O.2            1 <1>                0.0000
      4 C4          29.3555  37.0729  38.4478 C.ar           1 <1>                0.0000
      5 C5          29.7145  36.5604  39.7006 C.ar           1 <1>                0.0000
      6 C6          28.7390  36.3146  40.6483 C.ar           1 <1>                0.0000
      7 N7          29.0944  35.8026  41.9019 N.pl3          1 <1>                0.0000
      8 C8          27.3996  36.5769  40.3560 C.ar           1 <1>                0.0000
      9 O9          26.4427  36.3351  41.2890 O.co2          1 <1>               -1.0000
     10 C10         27.0425  37.0858  39.1126 C.ar           1 <1>                0.0000
     11 F11         25.7447  37.3379  38.8350 F              1 <1>                0.0000
     12 C12         28.0109  37.3387  38.1634 C.ar           1 <1>                0.0000
     13 H13         30.9095  38.1239  35.5232 H              1 <1>                0.0000
     14 H14         29.2810  37.4109  35.6139 H              1 <1>                0.0000
     15 H15         29.6001  38.9981  36.3538 H              1 <1>                0.0000
     16 H16         30.7511  36.3573  39.9255 H              1 <1>                0.0000
     17 H17         27.7309  37.7339  37.1982 H              1 <1>                0.0000
     18 H18         30.0252  35.6205  42.1052 H              1 <1>                0.0000
     19 H19         28.4098  35.6302  42.5671 H              1 <1>                0.0000
@<TRIPOS>BOND
    1    1    2 1     
    2    1   13 1     
    3    1   14 1     
    4    1   15 1     
    5    2    3 2     
    6    2    4 1     
    7    4    5 ar    
    8    4   12 ar    
    9    5    6 ar    
   10    5   16 1     
   11    6    7 1     
   12    6    8 ar    
   13    7   18 1     
   14    7   19 1     
   15    8    9 ar    
   16    8   10 ar    
   17   10   11 1     
   18   10   12 ar    
   19   12   17 1     
@<TRIPOS>SUBSTRUCTURE
      1 ****           1
@<TRIPOS>SET
DONOR_HYDROGENS      STATIC     ATOMS    <user>   **** ""
2 18 19
ATOM$RED        STATIC     ATOMS    COLORGROUP SYSTEM
2 18 19
@<TRIPOS>COMMENT
> <Gold.Version>
2022.2.0

> <Gold.Id.Protein>
1qkm|1qkm_protein|mol2

> <Gold.Protein.RotatedTorsions>
[  496  491  490  487 ] final  -37.40 input  -89.99 | X-H torsion

> <Gold.Protein.ActiveResidues>
 MET295  LEU298  THR299  LEU301  ALA302  GLU305  TRP335  MET336  LEU339  MET340 
 GLY342  LEU343  ARG346  PHE356  ILE373  ILE376  PHE377  LEU380  LYS471  GLY472 
 MET473  HIS475  LEU476  LEU477  ASN478  MET479  VAL484  VAL487 

> <Gold.Protein.RotatedAtoms>
   36.3494   34.6317   41.8084 H   0  0  0  0  0  0  0  0  0  0  0  0  # atno 496  bound_to 491 

> <Gold.Score>
     Score     S(PLP)   S(hbond)     S(cho)   S(metal)  DE(clash)   DE(tors)     intcor
     40.26     -37.30       1.00       0.00       0.00       0.00       0.02       0.00

> <Gold.PLP.Fitness>
40.2634

> <Gold.PLP.PLP>
-37.2957

> <Gold.PLP.part.hbond>
-1.0000

> <Gold.PLP.part.metal>
0.0000

> <Gold.PLP.part.buried>
-4.5541

> <Gold.PLP.part.nonpolar>
-33.3341

> <Gold.PLP.part.repulsive>
0.5392

> <Gold.PLP.ligand.clash>
0.0000

> <Gold.PLP.ligand.torsion>
0.0162

> <Gold.PLP.Chemscore.Hbond>
1.0000

> <Gold.PLP.Chemscore.CHOScore>
0.0000

> <Gold.PLP.Chemscore.Metal>
0.0000

> <Gold.Chemscore.Hbonds>
donor molecule, donor type, donor heavy atom, donor atom, acceptor molecule, acceptor atom, score
      L1  H     7    18       P1   470  1.00

> <Gold.PLP.Chemscore.Internal.Correction>
0.0000

