#       Name:                EN300-623952_i001
#       Creating user name   aseyller
#       Creation time:       Fri Apr 21 16:35:33 2023


#       File generated by GOLD software.
#

@<TRIPOS>MOLECULE
EN300-623952_i001|aminophenols|mol2|66|dock13
    19    19     1
SMALL
USER_CHARGES


@<TRIPOS>ATOM
      1 C1          29.5088  39.6729  36.1372 C.3            1 <1>                0.0000
      2 C2          30.0605  38.4939  36.8965 C.2            1 <1>                0.0000
      3 O3          31.1812  38.0927  36.6630 O.2            1 <1>                0.0000
      4 C4          29.2412  37.8305  37.9190 C.ar           1 <1>                0.0000
      5 C5          29.8545  37.1040  38.9471 C.ar           1 <1>                0.0000
      6 C6          29.0787  36.4821  39.9071 C.ar           1 <1>                0.0000
      7 N7          29.6884  35.7553  40.9366 N.pl3          1 <1>                0.0000
      8 C8          27.6873  36.5787  39.8507 C.ar           1 <1>                0.0000
      9 O9          26.9269  35.9672  40.7953 O.co2          1 <1>               -1.0000
     10 C10         27.0779  37.2999  38.8304 C.ar           1 <1>                0.0000
     11 F11         25.7309  37.3901  38.7805 F              1 <1>                0.0000
     12 C12         27.8456  37.9277  37.8717 C.ar           1 <1>                0.0000
     13 H13         30.2550  40.0291  35.4268 H              1 <1>                0.0000
     14 H14         28.6103  39.3706  35.5993 H              1 <1>                0.0000
     15 H15         29.2622  40.4721  36.8363 H              1 <1>                0.0000
     16 H16         30.9310  37.0294  38.9896 H              1 <1>                0.0000
     17 H17         27.3697  38.4873  37.0800 H              1 <1>                0.0000
     18 H18         30.6553  35.6882  40.9760 H              1 <1>                0.0000
     19 H19         29.1440  35.3188  41.6104 H              1 <1>                0.0000
@<TRIPOS>BOND
    1    1    2 1     
    2    1   13 1     
    3    1   14 1     
    4    1   15 1     
    5    2    3 2     
    6    2    4 1     
    7    4    5 ar    
    8    4   12 ar    
    9    5    6 ar    
   10    5   16 1     
   11    6    7 1     
   12    6    8 ar    
   13    7   18 1     
   14    7   19 1     
   15    8    9 ar    
   16    8   10 ar    
   17   10   11 1     
   18   10   12 ar    
   19   12   17 1     
@<TRIPOS>SUBSTRUCTURE
      1 ****           1
@<TRIPOS>SET
DONOR_HYDROGENS      STATIC     ATOMS    <user>   **** ""
2 18 19
ATOM$RED        STATIC     ATOMS    COLORGROUP SYSTEM
2 18 19
@<TRIPOS>COMMENT
> <Gold.Version>
2022.2.0

> <Gold.Id.Protein>
1qkm|1qkm_protein|mol2

> <Gold.Protein.RotatedTorsions>
[  496  491  490  487 ] final  -81.93 input  -89.99 | X-H torsion

> <Gold.Protein.ActiveResidues>
 MET295  LEU298  THR299  LEU301  ALA302  GLU305  TRP335  MET336  LEU339  MET340 
 GLY342  LEU343  ARG346  PHE356  ILE373  ILE376  PHE377  LEU380  LYS471  GLY472 
 MET473  HIS475  LEU476  LEU477  ASN478  MET479  VAL484  VAL487 

> <Gold.Protein.RotatedAtoms>
   36.6834   34.6980   41.1800 H   0  0  0  0  0  0  0  0  0  0  0  0  # atno 496  bound_to 491 

> <Gold.Score>
     Score     S(PLP)   S(hbond)     S(cho)   S(metal)  DE(clash)   DE(tors)     intcor
     38.79     -37.02       0.75       0.00       0.00       0.00       0.24       0.00

> <Gold.PLP.Fitness>
38.7856

> <Gold.PLP.PLP>
-37.0165

> <Gold.PLP.part.hbond>
-0.8970

> <Gold.PLP.part.metal>
0.0000

> <Gold.PLP.part.buried>
-3.7803

> <Gold.PLP.part.nonpolar>
-32.5874

> <Gold.PLP.part.repulsive>
0.2053

> <Gold.PLP.ligand.clash>
0.0000

> <Gold.PLP.ligand.torsion>
0.2435

> <Gold.PLP.Chemscore.Hbond>
0.7520

> <Gold.PLP.Chemscore.CHOScore>
0.0000

> <Gold.PLP.Chemscore.Metal>
0.0000

> <Gold.Chemscore.Hbonds>
donor molecule, donor type, donor heavy atom, donor atom, acceptor molecule, acceptor atom, score
      L1  H     7    18       P1   470  0.75

> <Gold.PLP.Chemscore.Internal.Correction>
0.0000

