#       Name:                EN300-623952_i001
#       Creating user name   aseyller
#       Creation time:       Fri Apr 21 16:35:35 2023


#       File generated by GOLD software.
#

@<TRIPOS>MOLECULE
EN300-623952_i001|aminophenols|mol2|66|dock20
    19    19     1
SMALL
USER_CHARGES


@<TRIPOS>ATOM
      1 C1          28.5113  35.7000  41.3153 C.3            1 <1>                0.0000
      2 C2          28.5966  36.3091  39.9394 C.2            1 <1>                0.0000
      3 O3          27.6902  37.0003  39.5249 O.2            1 <1>                0.0000
      4 C4          29.7772  36.0655  39.1006 C.ar           1 <1>                0.0000
      5 C5          30.3811  34.8021  39.0886 C.ar           1 <1>                0.0000
      6 C6          31.4917  34.5781  38.2969 C.ar           1 <1>                0.0000
      7 N7          32.0977  33.3162  38.2821 N.pl3          1 <1>                0.0000
      8 C8          32.0090  35.6097  37.5117 C.ar           1 <1>                0.0000
      9 O9          33.1001  35.3873  36.7341 O.co2          1 <1>               -1.0000
     10 C10         31.4099  36.8641  37.5231 C.ar           1 <1>                0.0000
     11 F11         31.9148  37.8589  36.7612 F              1 <1>                0.0000
     12 C12         30.2981  37.0939  38.3065 C.ar           1 <1>                0.0000
     13 H13         27.5704  35.9898  41.7832 H              1 <1>                0.0000
     14 H14         28.5581  34.6140  41.2354 H              1 <1>                0.0000
     15 H15         29.3437  36.0560  41.9224 H              1 <1>                0.0000
     16 H16         29.9803  34.0047  39.6968 H              1 <1>                0.0000
     17 H17         29.8347  38.0693  38.3136 H              1 <1>                0.0000
     18 H18         31.7381  32.5992  38.8276 H              1 <1>                0.0000
     19 H19         32.8770  33.1590  37.7265 H              1 <1>                0.0000
@<TRIPOS>BOND
    1    1    2 1     
    2    1   13 1     
    3    1   14 1     
    4    1   15 1     
    5    2    3 2     
    6    2    4 1     
    7    4    5 ar    
    8    4   12 ar    
    9    5    6 ar    
   10    5   16 1     
   11    6    7 1     
   12    6    8 ar    
   13    7   18 1     
   14    7   19 1     
   15    8    9 ar    
   16    8   10 ar    
   17   10   11 1     
   18   10   12 ar    
   19   12   17 1     
@<TRIPOS>SUBSTRUCTURE
      1 ****           1
@<TRIPOS>SET
DONOR_HYDROGENS      STATIC     ATOMS    <user>   **** ""
2 18 19
ATOM$RED        STATIC     ATOMS    COLORGROUP SYSTEM
2 18 19
@<TRIPOS>COMMENT
> <Gold.Version>
2022.2.0

> <Gold.Id.Protein>
1qkm|1qkm_protein|mol2

> <Gold.Protein.RotatedTorsions>
[  496  491  490  487 ] final  -36.40 input  -89.99 | X-H torsion

> <Gold.Protein.ActiveResidues>
 MET295  LEU298  THR299  LEU301  ALA302  GLU305  TRP335  MET336  LEU339  MET340 
 GLY342  LEU343  ARG346  PHE356  ILE373  ILE376  PHE377  LEU380  LYS471  GLY472 
 MET473  HIS475  LEU476  LEU477  ASN478  MET479  VAL484  VAL487 

> <Gold.Protein.RotatedAtoms>
   36.3443   34.6243   41.8221 H   0  0  0  0  0  0  0  0  0  0  0  0  # atno 496  bound_to 491 

> <Gold.Score>
     Score     S(PLP)   S(hbond)     S(cho)   S(metal)  DE(clash)   DE(tors)     intcor
     35.17     -36.35       0.00       0.00       0.00       0.00       0.59       0.00

> <Gold.PLP.Fitness>
35.1681

> <Gold.PLP.PLP>
-36.3490

> <Gold.PLP.part.hbond>
0.0000

> <Gold.PLP.part.metal>
0.0000

> <Gold.PLP.part.buried>
-3.3385

> <Gold.PLP.part.nonpolar>
-33.2957

> <Gold.PLP.part.repulsive>
0.0347

> <Gold.PLP.ligand.clash>
0.0000

> <Gold.PLP.ligand.torsion>
0.5905

> <Gold.PLP.Chemscore.Hbond>
0.0000

> <Gold.PLP.Chemscore.CHOScore>
0.0000

> <Gold.PLP.Chemscore.Metal>
0.0000

> <Gold.PLP.Chemscore.Internal.Correction>
0.0000

