#       Name:                EN300-623952_i001
#       Creating user name   aseyller
#       Creation time:       Fri Apr 21 16:35:34 2023


#       File generated by GOLD software.
#

@<TRIPOS>MOLECULE
EN300-623952_i001|aminophenols|mol2|66|dock17
    19    19     1
SMALL
USER_CHARGES


@<TRIPOS>ATOM
      1 C1          26.3109  37.0715  39.1201 C.3            1 <1>                0.0000
      2 C2          27.4208  36.2267  39.6908 C.2            1 <1>                0.0000
      3 O3          27.2170  35.5366  40.6673 O.2            1 <1>                0.0000
      4 C4          28.7492  36.2392  39.0647 C.ar           1 <1>                0.0000
      5 C5          29.1535  37.3391  38.2981 C.ar           1 <1>                0.0000
      6 C6          30.4050  37.3460  37.7115 C.ar           1 <1>                0.0000
      7 N7          30.8126  38.4441  36.9448 N.pl3          1 <1>                0.0000
      8 C8          31.2628  36.2583  37.8837 C.ar           1 <1>                0.0000
      9 O9          32.4923  36.2673  37.3067 O.co2          1 <1>               -1.0000
     10 C10         30.8621  35.1661  38.6446 C.ar           1 <1>                0.0000
     11 F11         31.6963  34.1161  38.8079 F              1 <1>                0.0000
     12 C12         29.6167  35.1543  39.2376 C.ar           1 <1>                0.0000
     13 H13         25.4069  36.9325  39.7131 H              1 <1>                0.0000
     14 H14         26.6038  38.1210  39.1446 H              1 <1>                0.0000
     15 H15         26.1192  36.7716  38.0898 H              1 <1>                0.0000
     16 H16         28.4889  38.1799  38.1652 H              1 <1>                0.0000
     17 H17         29.3078  34.3045  39.8282 H              1 <1>                0.0000
     18 H18         30.2166  39.2001  36.8253 H              1 <1>                0.0000
     19 H19         31.6908  38.4489  36.5332 H              1 <1>                0.0000
@<TRIPOS>BOND
    1    1    2 1     
    2    1   13 1     
    3    1   14 1     
    4    1   15 1     
    5    2    3 2     
    6    2    4 1     
    7    4    5 ar    
    8    4   12 ar    
    9    5    6 ar    
   10    5   16 1     
   11    6    7 1     
   12    6    8 ar    
   13    7   18 1     
   14    7   19 1     
   15    8    9 ar    
   16    8   10 ar    
   17   10   11 1     
   18   10   12 ar    
   19   12   17 1     
@<TRIPOS>SUBSTRUCTURE
      1 ****           1
@<TRIPOS>SET
DONOR_HYDROGENS      STATIC     ATOMS    <user>   **** ""
2 18 19
ATOM$RED        STATIC     ATOMS    COLORGROUP SYSTEM
2 18 19
@<TRIPOS>COMMENT
> <Gold.Version>
2022.2.0

> <Gold.Id.Protein>
1qkm|1qkm_protein|mol2

> <Gold.Protein.RotatedTorsions>
[  496  491  490  487 ] final  -59.11 input  -89.99 | X-H torsion

> <Gold.Protein.ActiveResidues>
 MET295  LEU298  THR299  LEU301  ALA302  GLU305  TRP335  MET336  LEU339  MET340 
 GLY342  LEU343  ARG346  PHE356  ILE373  ILE376  PHE377  LEU380  LYS471  GLY472 
 MET473  HIS475  LEU476  LEU477  ASN478  MET479  VAL484  VAL487 

> <Gold.Protein.RotatedAtoms>
   36.4902   34.7306   41.4976 H   0  0  0  0  0  0  0  0  0  0  0  0  # atno 496  bound_to 491 

> <Gold.Score>
     Score     S(PLP)   S(hbond)     S(cho)   S(metal)  DE(clash)   DE(tors)     intcor
     36.54     -37.03       0.00       0.00       0.00       0.00       0.24       0.00

> <Gold.PLP.Fitness>
36.5385

> <Gold.PLP.PLP>
-37.0254

> <Gold.PLP.part.hbond>
0.0000

> <Gold.PLP.part.metal>
0.0000

> <Gold.PLP.part.buried>
-4.0214

> <Gold.PLP.part.nonpolar>
-33.9173

> <Gold.PLP.part.repulsive>
0.0972

> <Gold.PLP.ligand.clash>
0.0000

> <Gold.PLP.ligand.torsion>
0.2435

> <Gold.PLP.Chemscore.Hbond>
0.0000

> <Gold.PLP.Chemscore.CHOScore>
0.0000

> <Gold.PLP.Chemscore.Metal>
0.0000

> <Gold.PLP.Chemscore.Internal.Correction>
0.0000

