#       Name:                plp ligand
#       Creating user name   aseyller
#       Creation time:       Fri Apr 21 16:35:29 2023


#       File generated by GOLD software.
#

@<TRIPOS>MOLECULE
plp ligand
    19    19     1
SMALL
USER_CHARGES


@<TRIPOS>ATOM
      1 C1           2.8472   1.2863  -0.0009 NONPOLAR       1 <1>                0.0000
      2 C2           2.0712  -0.0056  -0.0005 NONPOLAR       1 <1>                0.0000
      3 O3           2.6594  -1.0664  -0.0000 ACCEPTOR       1 <1>                0.0000
      4 C4           0.6028   0.0199  -0.0009 NONPOLAR       1 <1>                0.0000
      5 C5          -0.1200  -1.1795  -0.0006 NONPOLAR       1 <1>                0.0000
      6 C6          -1.5018  -1.1498  -0.0004 NONPOLAR       1 <1>                0.0000
      7 N7          -2.2276  -2.3469   0.0003 DONOR          1 <1>                0.0000
      8 C8          -2.1739   0.0736  -0.0006 NONPOLAR       1 <1>                0.0000
      9 O9          -3.5318   0.1005  -0.0000 ACCEPTOR       1 <1>               -1.0000
     10 C10         -1.4570   1.2646  -0.0008 NONPOLAR       1 <1>                0.0000
     11 F11         -2.1126   2.4458  -0.0010 NONPOLAR       1 <1>                0.0000
     12 C12         -0.0778   1.2431   0.0044 NONPOLAR       1 <1>                0.0000
     13 H13          3.9153   1.0686  -0.0005                1 <1>                0.0000
     14 H14          2.5940   1.8620  -0.8911                1 <1>                0.0000
     15 H15          2.5936   1.8627   0.8889                1 <1>                0.0000
     16 H16          0.4010  -2.1255  -0.0009                1 <1>                0.0000
     17 H17          0.4768   2.1698   0.0041                1 <1>                0.0000
     18 H18         -1.7606  -3.1971   0.0006                1 <1>                0.0000
     19 H19         -3.1973  -2.3261   0.0004                1 <1>                0.0000
@<TRIPOS>BOND
    1    1    2 1     
    2    1   13 1     
    3    1   14 1     
    4    1   15 1     
    5    2    3 2     
    6    2    4 1     
    7    4    5 ar    
    8    4   12 ar    
    9    5    6 ar    
   10    5   16 1     
   11    6    7 1     
   12    6    8 ar    
   13    7   18 1     
   14    7   19 1     
   15    8    9 ar    
   16    8   10 ar    
   17   10   11 1     
   18   10   12 ar    
   19   12   17 1     
@<TRIPOS>SUBSTRUCTURE
      1 ****           1
@<TRIPOS>SET
DONOR_HYDROGENS      STATIC     ATOMS    <user>   **** ""
2 18 19
ATOM$RED        STATIC     ATOMS    COLORGROUP SYSTEM
2 18 19
