#       Name:                EN300-281147_i001
#       Creating user name   aseyller
#       Creation time:       Fri Apr 21 17:53:35 2023


#       File generated by GOLD software.
#

@<TRIPOS>MOLECULE
EN300-281147_i001
    18    18     1
SMALL
USER_CHARGES


@<TRIPOS>ATOM
      1 F1          -3.1865  -1.2517   0.8244 F              1 <1>                0.0000
      2 C2          -2.2194  -0.4030   0.4126 C.ar           1 <1>                0.0000
      3 C3          -2.4581   0.9606   0.3892 C.ar           1 <1>                0.0000
      4 C4          -1.4681   1.8280  -0.0317 C.ar           1 <1>                0.0000
      5 C5          -0.2391   1.3350  -0.4296 C.ar           1 <1>                0.0000
      6 C6           0.0011  -0.0259  -0.4074 C.ar           1 <1>                0.0000
      7 C7           1.3411  -0.5616  -0.8413 C.3            1 <1>                0.0000
      8 S8           2.4500  -0.6496   0.5916 S.o2           1 <1>                0.0000
      9 O9           2.7850   0.6553   1.0437 O.2            1 <1>                0.0000
     10 O10          2.0116  -1.6498   1.5007 O.2            1 <1>                0.0000
     11 Cl11         4.1803  -1.3780  -0.1540 Cl             1 <1>                0.0000
     12 C12         -0.9861  -0.8958   0.0188 C.ar           1 <1>                0.0000
     13 Br13        -0.6578  -2.7578   0.0493 Br             1 <1>                0.0000
     14 H14         -3.4180   1.3463   0.6995 H              1 <1>                0.0000
     15 H15         -1.6545   2.8916  -0.0503 H              1 <1>                0.0000
     16 H16          0.5338   2.0139  -0.7583 H              1 <1>                0.0000
     17 H17          1.2144  -1.5582  -1.2644 H              1 <1>                0.0000
     18 H18          1.7708   0.1003  -1.5932 H              1 <1>                0.0000
@<TRIPOS>BOND
    1    1    2 1     
    2    2    3 ar    
    3    2   12 ar    
    4    3    4 ar    
    5    3   14 1     
    6    4    5 ar    
    7    4   15 1     
    8    5    6 ar    
    9    5   16 1     
   10    6    7 1     
   11    6   12 ar    
   12    7    8 1     
   13    7   17 1     
   14    7   18 1     
   15    8    9 2     
   16    8   10 2     
   17    8   11 1     
   18   12   13 1     
@<TRIPOS>SUBSTRUCTURE
      1 ****           1
