#       Name:                EN300-281147_i001
#       Creating user name   aseyller
#       Creation time:       Fri Apr 21 17:53:38 2023


#       File generated by GOLD software.
#

@<TRIPOS>MOLECULE
EN300-281147_i001|Sulfonylchlorides|mol2|386|dock7
    18    18     1
SMALL
USER_CHARGES


@<TRIPOS>ATOM
      1 F1          26.3863  37.4228  38.8103 F              1 <1>                0.0000
      2 C2          27.6677  36.9971  38.8533 C.ar           1 <1>                0.0000
      3 C3          28.0141  35.9217  39.6537 C.ar           1 <1>                0.0000
      4 C4          29.3250  35.4867  39.6966 C.ar           1 <1>                0.0000
      5 C5          30.2912  36.1247  38.9409 C.ar           1 <1>                0.0000
      6 C6          29.9476  37.1987  38.1416 C.ar           1 <1>                0.0000
      7 C7          31.0018  37.8929  37.3184 C.3            1 <1>                0.0000
      8 S8          31.5134  36.8117  35.9547 S.o2           1 <1>                0.0000
      9 O9          32.1702  35.6551  36.4548 O.2            1 <1>                0.0000
     10 O10         30.4781  36.7055  34.9872 O.2            1 <1>                0.0000
     11 Cl11        32.9716  37.8444  35.0124 Cl             1 <1>                0.0000
     12 C12         28.6353  37.6325  38.0924 C.ar           1 <1>                0.0000
     13 Br13        28.1649  39.1019  36.9990 Br             1 <1>                0.0000
     14 H14         27.2600  35.4232  40.2446 H              1 <1>                0.0000
     15 H15         29.5952  34.6481  40.3212 H              1 <1>                0.0000
     16 H16         31.3154  35.7837  38.9753 H              1 <1>                0.0000
     17 H17         30.5952  38.8200  36.9142 H              1 <1>                0.0000
     18 H18         31.8637  38.1178  37.9468 H              1 <1>                0.0000
@<TRIPOS>BOND
    1    1    2 1     
    2    2    3 ar    
    3    2   12 ar    
    4    3    4 ar    
    5    3   14 1     
    6    4    5 ar    
    7    4   15 1     
    8    5    6 ar    
    9    5   16 1     
   10    6    7 1     
   11    6   12 ar    
   12    7    8 1     
   13    7   17 1     
   14    7   18 1     
   15    8    9 2     
   16    8   10 2     
   17    8   11 1     
   18   12   13 1     
@<TRIPOS>SUBSTRUCTURE
      1 ****           1
@<TRIPOS>COMMENT
> <Gold.Version>
2022.2.0

> <Gold.Id.Protein>
1qkm|1qkm_protein|mol2

> <Gold.Protein.RotatedTorsions>
[  496  491  490  487 ] final   21.92 input  -89.99 | X-H torsion

> <Gold.Protein.ActiveResidues>
 MET295  LEU298  THR299  LEU301  ALA302  GLU305  TRP335  MET336  LEU339  MET340 
 GLY342  LEU343  ARG346  PHE356  ILE373  ILE376  PHE377  LEU380  LYS471  GLY472 
 MET473  HIS475  LEU476  LEU477  ASN478  MET479  VAL484  VAL487 

> <Gold.Protein.RotatedAtoms>
   36.3097   33.8820   42.3629 H   0  0  0  0  0  0  0  0  0  0  0  0  # atno 496  bound_to 491 

> <Gold.Score>
     Score     S(PLP)   S(hbond)     S(cho)   S(metal)  DE(clash)   DE(tors)     intcor
     40.60     -40.84       0.00       0.00       0.00       0.00       0.19       0.14

> <Gold.PLP.Fitness>
40.5954

> <Gold.PLP.PLP>
-40.8366

> <Gold.PLP.part.hbond>
0.0000

> <Gold.PLP.part.metal>
0.0000

> <Gold.PLP.part.buried>
-2.6196

> <Gold.PLP.part.nonpolar>
-38.2172

> <Gold.PLP.part.repulsive>
0.0955

> <Gold.PLP.ligand.clash>
0.0000

> <Gold.PLP.ligand.torsion>
0.1883

> <Gold.PLP.Chemscore.Hbond>
0.0000

> <Gold.PLP.Chemscore.CHOScore>
0.0000

> <Gold.PLP.Chemscore.Metal>
0.0000

> <Gold.PLP.Chemscore.Internal.Correction>
0.1353

