#       Name:                EN300-281147_i001
#       Creating user name   aseyller
#       Creation time:       Fri Apr 21 17:53:40 2023


#       File generated by GOLD software.
#

@<TRIPOS>MOLECULE
EN300-281147_i001|Sulfonylchlorides|mol2|386|dock13
    18    18     1
SMALL
USER_CHARGES


@<TRIPOS>ATOM
      1 F1          31.4346  38.0211  35.5244 F              1 <1>                0.0000
      2 C2          31.2621  37.2231  36.6009 C.ar           1 <1>                0.0000
      3 C3          32.0646  36.1080  36.7725 C.ar           1 <1>                0.0000
      4 C4          31.8878  35.2927  37.8741 C.ar           1 <1>                0.0000
      5 C5          30.9098  35.5897  38.8053 C.ar           1 <1>                0.0000
      6 C6          30.1073  36.7022  38.6357 C.ar           1 <1>                0.0000
      7 C7          29.0420  37.0246  39.6515 C.3            1 <1>                0.0000
      8 S8          27.4119  36.6150  38.9690 S.o2           1 <1>                0.0000
      9 O9          27.0822  37.4949  37.9030 O.2            1 <1>                0.0000
     10 O10         27.2693  35.2082  38.8285 O.2            1 <1>                0.0000
     11 Cl11        26.1135  37.1030  40.4375 Cl             1 <1>                0.0000
     12 C12         30.2860  37.5231  37.5369 C.ar           1 <1>                0.0000
     13 Br13        29.1883  39.0451  37.3046 Br             1 <1>                0.0000
     14 H14         32.8284  35.8752  36.0453 H              1 <1>                0.0000
     15 H15         32.5135  34.4227  38.0077 H              1 <1>                0.0000
     16 H16         30.7726  34.9518  39.6658 H              1 <1>                0.0000
     17 H17         29.2141  36.4414  40.5562 H              1 <1>                0.0000
     18 H18         29.0787  38.0872  39.8917 H              1 <1>                0.0000
@<TRIPOS>BOND
    1    1    2 1     
    2    2    3 ar    
    3    2   12 ar    
    4    3    4 ar    
    5    3   14 1     
    6    4    5 ar    
    7    4   15 1     
    8    5    6 ar    
    9    5   16 1     
   10    6    7 1     
   11    6   12 ar    
   12    7    8 1     
   13    7   17 1     
   14    7   18 1     
   15    8    9 2     
   16    8   10 2     
   17    8   11 1     
   18   12   13 1     
@<TRIPOS>SUBSTRUCTURE
      1 ****           1
@<TRIPOS>COMMENT
> <Gold.Version>
2022.2.0

> <Gold.Id.Protein>
1qkm|1qkm_protein|mol2

> <Gold.Protein.RotatedTorsions>
[  496  491  490  487 ] final   48.21 input  -89.99 | X-H torsion

> <Gold.Protein.ActiveResidues>
 MET295  LEU298  THR299  LEU301  ALA302  GLU305  TRP335  MET336  LEU339  MET340 
 GLY342  LEU343  ARG346  PHE356  ILE373  ILE376  PHE377  LEU380  LYS471  GLY472 
 MET473  HIS475  LEU476  LEU477  ASN478  MET479  VAL484  VAL487 

> <Gold.Protein.RotatedAtoms>
   36.4597   33.4800   42.3600 H   0  0  0  0  0  0  0  0  0  0  0  0  # atno 496  bound_to 491 

> <Gold.Score>
     Score     S(PLP)   S(hbond)     S(cho)   S(metal)  DE(clash)   DE(tors)     intcor
     40.17     -40.53       0.00       0.00       0.00       0.00       0.25       0.14

> <Gold.PLP.Fitness>
40.1749

> <Gold.PLP.PLP>
-40.5321

> <Gold.PLP.part.hbond>
0.0000

> <Gold.PLP.part.metal>
0.0000

> <Gold.PLP.part.buried>
-3.1251

> <Gold.PLP.part.nonpolar>
-38.3409

> <Gold.PLP.part.repulsive>
0.0131

> <Gold.PLP.ligand.clash>
0.0000

> <Gold.PLP.ligand.torsion>
0.2463

> <Gold.PLP.Chemscore.Hbond>
0.0000

> <Gold.PLP.Chemscore.CHOScore>
0.0000

> <Gold.PLP.Chemscore.Metal>
0.0000

> <Gold.PLP.Chemscore.Internal.Correction>
0.1353

