#       Name:                EN300-281147_i001
#       Creating user name   aseyller
#       Creation time:       Fri Apr 21 17:53:37 2023


#       File generated by GOLD software.
#

@<TRIPOS>MOLECULE
EN300-281147_i001|Sulfonylchlorides|mol2|386|dock4
    18    18     1
SMALL
USER_CHARGES


@<TRIPOS>ATOM
      1 F1          32.7603  36.5982  35.2047 F              1 <1>                0.0000
      2 C2          32.1557  36.3620  36.3896 C.ar           1 <1>                0.0000
      3 C3          32.7158  35.4692  37.2874 C.ar           1 <1>                0.0000
      4 C4          32.0969  35.2285  38.4993 C.ar           1 <1>                0.0000
      5 C5          30.9185  35.8788  38.8160 C.ar           1 <1>                0.0000
      6 C6          30.3575  36.7701  37.9209 C.ar           1 <1>                0.0000
      7 C7          29.0732  37.4781  38.2676 C.3            1 <1>                0.0000
      8 S8          28.0921  36.4386  39.3846 S.o2           1 <1>                0.0000
      9 O9          26.7786  36.9617  39.5273 O.2            1 <1>                0.0000
     10 O10         28.3060  35.0626  39.1017 O.2            1 <1>                0.0000
     11 Cl11        28.9369  36.7114  41.1991 Cl             1 <1>                0.0000
     12 C12         30.9778  37.0171  36.7097 C.ar           1 <1>                0.0000
     13 Br13        30.2105  38.2365  35.4849 Br             1 <1>                0.0000
     14 H14         33.6361  34.9606  37.0405 H              1 <1>                0.0000
     15 H15         32.5337  34.5318  39.1994 H              1 <1>                0.0000
     16 H16         30.4358  35.6899  39.7634 H              1 <1>                0.0000
     17 H17         29.3009  38.4245  38.7583 H              1 <1>                0.0000
     18 H18         28.5060  37.6685  37.3565 H              1 <1>                0.0000
@<TRIPOS>BOND
    1    1    2 1     
    2    2    3 ar    
    3    2   12 ar    
    4    3    4 ar    
    5    3   14 1     
    6    4    5 ar    
    7    4   15 1     
    8    5    6 ar    
    9    5   16 1     
   10    6    7 1     
   11    6   12 ar    
   12    7    8 1     
   13    7   17 1     
   14    7   18 1     
   15    8    9 2     
   16    8   10 2     
   17    8   11 1     
   18   12   13 1     
@<TRIPOS>SUBSTRUCTURE
      1 ****           1
@<TRIPOS>COMMENT
> <Gold.Version>
2022.2.0

> <Gold.Id.Protein>
1qkm|1qkm_protein|mol2

> <Gold.Protein.RotatedTorsions>
[  496  491  490  487 ] final -155.01 input  -89.99 | X-H torsion

> <Gold.Protein.ActiveResidues>
 MET295  LEU298  THR299  LEU301  ALA302  GLU305  TRP335  MET336  LEU339  MET340 
 GLY342  LEU343  ARG346  PHE356  ILE373  ILE376  PHE377  LEU380  LYS471  GLY472 
 MET473  HIS475  LEU476  LEU477  ASN478  MET479  VAL484  VAL487 

> <Gold.Protein.RotatedAtoms>
   37.2551   33.8414   40.7319 H   0  0  0  0  0  0  0  0  0  0  0  0  # atno 496  bound_to 491 

> <Gold.Score>
     Score     S(PLP)   S(hbond)     S(cho)   S(metal)  DE(clash)   DE(tors)     intcor
     41.60     -42.95       0.00       0.00       0.00       0.00       0.75       0.14

> <Gold.PLP.Fitness>
41.5953

> <Gold.PLP.PLP>
-42.9513

> <Gold.PLP.part.hbond>
0.0000

> <Gold.PLP.part.metal>
0.0000

> <Gold.PLP.part.buried>
-3.2271

> <Gold.PLP.part.nonpolar>
-39.8182

> <Gold.PLP.part.repulsive>
0.0490

> <Gold.PLP.ligand.clash>
0.0000

> <Gold.PLP.ligand.torsion>
0.7456

> <Gold.PLP.Chemscore.Hbond>
0.0000

> <Gold.PLP.Chemscore.CHOScore>
0.0000

> <Gold.PLP.Chemscore.Metal>
0.0000

> <Gold.PLP.Chemscore.Internal.Correction>
0.1353

