#       Name:                EN300-281147_i001
#       Creating user name   aseyller
#       Creation time:       Fri Apr 21 17:53:41 2023


#       File generated by GOLD software.
#

@<TRIPOS>MOLECULE
EN300-281147_i001|Sulfonylchlorides|mol2|386|dock15
    18    18     1
SMALL
USER_CHARGES


@<TRIPOS>ATOM
      1 F1          25.8012  37.0323  39.1000 F              1 <1>                0.0000
      2 C2          27.0908  36.7608  39.3973 C.ar           1 <1>                0.0000
      3 C3          27.3970  35.9495  40.4766 C.ar           1 <1>                0.0000
      4 C4          28.7164  35.6720  40.7796 C.ar           1 <1>                0.0000
      5 C5          29.7311  36.2041  40.0057 C.ar           1 <1>                0.0000
      6 C6          29.4276  37.0146  38.9281 C.ar           1 <1>                0.0000
      7 C7          30.5346  37.5937  38.0855 C.3            1 <1>                0.0000
      8 S8          31.6620  36.2679  37.5739 S.o2           1 <1>                0.0000
      9 O9          33.0036  36.5984  37.9057 O.2            1 <1>                0.0000
     10 O10         31.1181  34.9967  37.9017 O.2            1 <1>                0.0000
     11 Cl11        31.6204  36.3219  35.5550 Cl             1 <1>                0.0000
     12 C12         28.1077  37.2894  38.6192 C.ar           1 <1>                0.0000
     13 Br13        27.6920  38.3982  37.1449 Br             1 <1>                0.0000
     14 H14         26.6049  35.5339  41.0818 H              1 <1>                0.0000
     15 H15         28.9552  35.0394  41.6218 H              1 <1>                0.0000
     16 H16         30.7618  35.9865  40.2435 H              1 <1>                0.0000
     17 H17         30.1082  38.0692  37.2021 H              1 <1>                0.0000
     18 H18         31.0843  38.3340  38.6668 H              1 <1>                0.0000
@<TRIPOS>BOND
    1    1    2 1     
    2    2    3 ar    
    3    2   12 ar    
    4    3    4 ar    
    5    3   14 1     
    6    4    5 ar    
    7    4   15 1     
    8    5    6 ar    
    9    5   16 1     
   10    6    7 1     
   11    6   12 ar    
   12    7    8 1     
   13    7   17 1     
   14    7   18 1     
   15    8    9 2     
   16    8   10 2     
   17    8   11 1     
   18   12   13 1     
@<TRIPOS>SUBSTRUCTURE
      1 ****           1
@<TRIPOS>COMMENT
> <Gold.Version>
2022.2.0

> <Gold.Id.Protein>
1qkm|1qkm_protein|mol2

> <Gold.Protein.RotatedTorsions>
[  496  491  490  487 ] final  155.95 input  -89.99 | X-H torsion

> <Gold.Protein.ActiveResidues>
 MET295  LEU298  THR299  LEU301  ALA302  GLU305  TRP335  MET336  LEU339  MET340 
 GLY342  LEU343  ARG346  PHE356  ILE373  ILE376  PHE377  LEU380  LYS471  GLY472 
 MET473  HIS475  LEU476  LEU477  ASN478  MET479  VAL484  VAL487 

> <Gold.Protein.RotatedAtoms>
   37.2848   33.1619   41.1193 H   0  0  0  0  0  0  0  0  0  0  0  0  # atno 496  bound_to 491 

> <Gold.Score>
     Score     S(PLP)   S(hbond)     S(cho)   S(metal)  DE(clash)   DE(tors)     intcor
     41.39     -41.54       0.00       0.00       0.00       0.00       0.14       0.14

> <Gold.PLP.Fitness>
41.3865

> <Gold.PLP.PLP>
-41.5355

> <Gold.PLP.part.hbond>
0.0000

> <Gold.PLP.part.metal>
0.0000

> <Gold.PLP.part.buried>
-1.2123

> <Gold.PLP.part.nonpolar>
-40.6159

> <Gold.PLP.part.repulsive>
0.0693

> <Gold.PLP.ligand.clash>
0.0000

> <Gold.PLP.ligand.torsion>
0.1422

> <Gold.PLP.Chemscore.Hbond>
0.0000

> <Gold.PLP.Chemscore.CHOScore>
0.0000

> <Gold.PLP.Chemscore.Metal>
0.0000

> <Gold.PLP.Chemscore.Internal.Correction>
0.1353

