#       Name:                EN300-281147_i001
#       Creating user name   aseyller
#       Creation time:       Fri Apr 21 17:53:41 2023


#       File generated by GOLD software.
#

@<TRIPOS>MOLECULE
EN300-281147_i001|Sulfonylchlorides|mol2|386|dock16
    18    18     1
SMALL
USER_CHARGES


@<TRIPOS>ATOM
      1 F1          32.5569  35.7660  36.0500 F              1 <1>                0.0000
      2 C2          31.6015  36.6039  36.5082 C.ar           1 <1>                0.0000
      3 C3          31.1992  37.6828  35.7394 C.ar           1 <1>                0.0000
      4 C4          30.2214  38.5392  36.2088 C.ar           1 <1>                0.0000
      5 C5          29.6444  38.3193  37.4459 C.ar           1 <1>                0.0000
      6 C6          30.0448  37.2431  38.2152 C.ar           1 <1>                0.0000
      7 C7          29.4149  37.0048  39.5632 C.3            1 <1>                0.0000
      8 S8          27.6741  36.5440  39.3444 S.o2           1 <1>                0.0000
      9 O9          26.9890  37.5304  38.5847 O.2            1 <1>                0.0000
     10 O10         27.5598  35.1640  39.0261 O.2            1 <1>                0.0000
     11 Cl11        26.8760  36.6965  41.1938 Cl             1 <1>                0.0000
     12 C12         31.0192  36.3813  37.7453 C.ar           1 <1>                0.0000
     13 Br13        31.5673  34.9088  38.7976 Br             1 <1>                0.0000
     14 H14         31.6498  37.8554  34.7731 H              1 <1>                0.0000
     15 H15         29.9080  39.3809  35.6092 H              1 <1>                0.0000
     16 H16         28.8803  38.9892  37.8116 H              1 <1>                0.0000
     17 H17         29.9426  36.1990  40.0736 H              1 <1>                0.0000
     18 H18         29.4777  37.9150  40.1596 H              1 <1>                0.0000
@<TRIPOS>BOND
    1    1    2 1     
    2    2    3 ar    
    3    2   12 ar    
    4    3    4 ar    
    5    3   14 1     
    6    4    5 ar    
    7    4   15 1     
    8    5    6 ar    
    9    5   16 1     
   10    6    7 1     
   11    6   12 ar    
   12    7    8 1     
   13    7   17 1     
   14    7   18 1     
   15    8    9 2     
   16    8   10 2     
   17    8   11 1     
   18   12   13 1     
@<TRIPOS>SUBSTRUCTURE
      1 ****           1
@<TRIPOS>COMMENT
> <Gold.Version>
2022.2.0

> <Gold.Id.Protein>
1qkm|1qkm_protein|mol2

> <Gold.Protein.RotatedTorsions>
[  496  491  490  487 ] final  108.54 input  -89.99 | X-H torsion

> <Gold.Protein.ActiveResidues>
 MET295  LEU298  THR299  LEU301  ALA302  GLU305  TRP335  MET336  LEU339  MET340 
 GLY342  LEU343  ARG346  PHE356  ILE373  ILE376  PHE377  LEU380  LYS471  GLY472 
 MET473  HIS475  LEU476  LEU477  ASN478  MET479  VAL484  VAL487 

> <Gold.Protein.RotatedAtoms>
   36.9869   32.9447   41.7821 H   0  0  0  0  0  0  0  0  0  0  0  0  # atno 496  bound_to 491 

> <Gold.Score>
     Score     S(PLP)   S(hbond)     S(cho)   S(metal)  DE(clash)   DE(tors)     intcor
     38.70     -39.15       0.00       0.00       0.00       0.00       0.29       0.14

> <Gold.PLP.Fitness>
38.6953

> <Gold.PLP.PLP>
-39.1466

> <Gold.PLP.part.hbond>
0.0000

> <Gold.PLP.part.metal>
0.0000

> <Gold.PLP.part.buried>
-2.0068

> <Gold.PLP.part.nonpolar>
-36.7826

> <Gold.PLP.part.repulsive>
0.0029

> <Gold.PLP.ligand.clash>
0.0000

> <Gold.PLP.ligand.torsion>
0.2933

> <Gold.PLP.Chemscore.Hbond>
0.0000

> <Gold.PLP.Chemscore.CHOScore>
0.0000

> <Gold.PLP.Chemscore.Metal>
0.0000

> <Gold.PLP.Chemscore.Internal.Correction>
0.1353

