#       Name:                EN300-281147_i001
#       Creating user name   aseyller
#       Creation time:       Fri Apr 21 17:53:41 2023


#       File generated by GOLD software.
#

@<TRIPOS>MOLECULE
EN300-281147_i001|Sulfonylchlorides|mol2|386|dock14
    18    18     1
SMALL
USER_CHARGES


@<TRIPOS>ATOM
      1 F1          32.2128  36.3193  35.6796 F              1 <1>                0.0000
      2 C2          31.2076  36.9440  36.3310 C.ar           1 <1>                0.0000
      3 C3          30.4062  37.8523  35.6603 C.ar           1 <1>                0.0000
      4 C4          29.3779  38.4905  36.3274 C.ar           1 <1>                0.0000
      5 C5          29.1487  38.2226  37.6643 C.ar           1 <1>                0.0000
      6 C6          29.9477  37.3166  38.3358 C.ar           1 <1>                0.0000
      7 C7          29.6965  37.0257  39.7929 C.3            1 <1>                0.0000
      8 S8          28.2548  35.9364  39.9523 S.o2           1 <1>                0.0000
      9 O9          28.3862  34.8073  39.0995 O.2            1 <1>                0.0000
     10 O10         27.8930  35.7847  41.3180 O.2            1 <1>                0.0000
     11 Cl11        26.7329  36.9935  39.1483 Cl             1 <1>                0.0000
     12 C12         30.9740  36.6722  37.6691 C.ar           1 <1>                0.0000
     13 Br13        32.0674  35.4325  38.5875 Br             1 <1>                0.0000
     14 H14         30.5850  38.0623  34.6161 H              1 <1>                0.0000
     15 H15         28.7531  39.1993  35.8042 H              1 <1>                0.0000
     16 H16         28.3447  38.7220  38.1845 H              1 <1>                0.0000
     17 H17         30.5710  36.5361  40.2218 H              1 <1>                0.0000
     18 H18         29.5068  37.9594  40.3223 H              1 <1>                0.0000
@<TRIPOS>BOND
    1    1    2 1     
    2    2    3 ar    
    3    2   12 ar    
    4    3    4 ar    
    5    3   14 1     
    6    4    5 ar    
    7    4   15 1     
    8    5    6 ar    
    9    5   16 1     
   10    6    7 1     
   11    6   12 ar    
   12    7    8 1     
   13    7   17 1     
   14    7   18 1     
   15    8    9 2     
   16    8   10 2     
   17    8   11 1     
   18   12   13 1     
@<TRIPOS>SUBSTRUCTURE
      1 ****           1
@<TRIPOS>COMMENT
> <Gold.Version>
2022.2.0

> <Gold.Id.Protein>
1qkm|1qkm_protein|mol2

> <Gold.Protein.RotatedTorsions>
[  496  491  490  487 ] final -106.43 input  -89.99 | X-H torsion

> <Gold.Protein.ActiveResidues>
 MET295  LEU298  THR299  LEU301  ALA302  GLU305  TRP335  MET336  LEU339  MET340 
 GLY342  LEU343  ARG346  PHE356  ILE373  ILE376  PHE377  LEU380  LYS471  GLY472 
 MET473  HIS475  LEU476  LEU477  ASN478  MET479  VAL484  VAL487 

> <Gold.Protein.RotatedAtoms>
   36.9083   34.5137   40.9050 H   0  0  0  0  0  0  0  0  0  0  0  0  # atno 496  bound_to 491 

> <Gold.Score>
     Score     S(PLP)   S(hbond)     S(cho)   S(metal)  DE(clash)   DE(tors)     intcor
     39.45     -39.89       0.00       0.00       0.00       0.00       0.29       0.14

> <Gold.PLP.Fitness>
39.4473

> <Gold.PLP.PLP>
-39.8889

> <Gold.PLP.part.hbond>
0.0000

> <Gold.PLP.part.metal>
0.0000

> <Gold.PLP.part.buried>
-3.2012

> <Gold.PLP.part.nonpolar>
-37.1192

> <Gold.PLP.part.repulsive>
0.1604

> <Gold.PLP.ligand.clash>
0.0000

> <Gold.PLP.ligand.torsion>
0.2885

> <Gold.PLP.Chemscore.Hbond>
0.0000

> <Gold.PLP.Chemscore.CHOScore>
0.0000

> <Gold.PLP.Chemscore.Metal>
0.0000

> <Gold.PLP.Chemscore.Internal.Correction>
0.1353

