#       Name:                EN300-281147_i001
#       Creating user name   aseyller
#       Creation time:       Fri Apr 21 17:53:40 2023


#       File generated by GOLD software.
#

@<TRIPOS>MOLECULE
EN300-281147_i001|Sulfonylchlorides|mol2|386|dock12
    18    18     1
SMALL
USER_CHARGES


@<TRIPOS>ATOM
      1 F1          26.4421  36.1483  39.9944 F              1 <1>                0.0000
      2 C2          27.0817  36.9388  39.1050 C.ar           1 <1>                0.0000
      3 C3          26.3773  37.9002  38.4005 C.ar           1 <1>                0.0000
      4 C4          27.0325  38.7087  37.4912 C.ar           1 <1>                0.0000
      5 C5          28.3914  38.5582  37.2846 C.ar           1 <1>                0.0000
      6 C6          29.0964  37.5988  37.9865 C.ar           1 <1>                0.0000
      7 C7          30.5773  37.4361  37.7602 C.3            1 <1>                0.0000
      8 S8          30.9635  37.7718  36.0198 S.o2           1 <1>                0.0000
      9 O9          30.1450  36.9837  35.1664 O.2            1 <1>                0.0000
     10 O10         31.1169  39.1677  35.8034 O.2            1 <1>                0.0000
     11 Cl11        32.8208  37.0206  35.7617 Cl             1 <1>                0.0000
     12 C12         28.4441  36.7921  38.9012 C.ar           1 <1>                0.0000
     13 Br13        29.4083  35.4794  39.8618 Br             1 <1>                0.0000
     14 H14         25.3158  38.0180  38.5612 H              1 <1>                0.0000
     15 H15         26.4829  39.4583  36.9414 H              1 <1>                0.0000
     16 H16         28.9023  39.1907  36.5737 H              1 <1>                0.0000
     17 H17         31.1210  38.1362  38.3946 H              1 <1>                0.0000
     18 H18         30.8728  36.4165  38.0078 H              1 <1>                0.0000
@<TRIPOS>BOND
    1    1    2 1     
    2    2    3 ar    
    3    2   12 ar    
    4    3    4 ar    
    5    3   14 1     
    6    4    5 ar    
    7    4   15 1     
    8    5    6 ar    
    9    5   16 1     
   10    6    7 1     
   11    6   12 ar    
   12    7    8 1     
   13    7   17 1     
   14    7   18 1     
   15    8    9 2     
   16    8   10 2     
   17    8   11 1     
   18   12   13 1     
@<TRIPOS>SUBSTRUCTURE
      1 ****           1
@<TRIPOS>COMMENT
> <Gold.Version>
2022.2.0

> <Gold.Id.Protein>
1qkm|1qkm_protein|mol2

> <Gold.Protein.RotatedTorsions>
[  496  491  490  487 ] final -118.60 input  -89.99 | X-H torsion

> <Gold.Protein.ActiveResidues>
 MET295  LEU298  THR299  LEU301  ALA302  GLU305  TRP335  MET336  LEU339  MET340 
 GLY342  LEU343  ARG346  PHE356  ILE373  ILE376  PHE377  LEU380  LYS471  GLY472 
 MET473  HIS475  LEU476  LEU477  ASN478  MET479  VAL484  VAL487 

> <Gold.Protein.RotatedAtoms>
   37.0144   34.3738   40.8093 H   0  0  0  0  0  0  0  0  0  0  0  0  # atno 496  bound_to 491 

> <Gold.Score>
     Score     S(PLP)   S(hbond)     S(cho)   S(metal)  DE(clash)   DE(tors)     intcor
     39.63     -40.80       0.00       0.00       0.00       0.00       0.65       0.14

> <Gold.PLP.Fitness>
39.6344

> <Gold.PLP.PLP>
-40.7974

> <Gold.PLP.part.hbond>
0.0000

> <Gold.PLP.part.metal>
0.0000

> <Gold.PLP.part.buried>
-2.4139

> <Gold.PLP.part.nonpolar>
-38.5350

> <Gold.PLP.part.repulsive>
0.0492

> <Gold.PLP.ligand.clash>
0.0000

> <Gold.PLP.ligand.torsion>
0.6492

> <Gold.PLP.Chemscore.Hbond>
0.0000

> <Gold.PLP.Chemscore.CHOScore>
0.0000

> <Gold.PLP.Chemscore.Metal>
0.0000

> <Gold.PLP.Chemscore.Internal.Correction>
0.1353

