#       Name:                EN300-281147_i001
#       Creating user name   aseyller
#       Creation time:       Fri Apr 21 17:53:43 2023


#       File generated by GOLD software.
#

@<TRIPOS>MOLECULE
EN300-281147_i001|Sulfonylchlorides|mol2|386|dock20
    18    18     1
SMALL
USER_CHARGES


@<TRIPOS>ATOM
      1 F1          32.0850  37.4969  36.1524 F              1 <1>                0.0000
      2 C2          31.6111  36.8036  37.2107 C.ar           1 <1>                0.0000
      3 C3          32.1561  35.5723  37.5327 C.ar           1 <1>                0.0000
      4 C4          31.6711  34.8641  38.6156 C.ar           1 <1>                0.0000
      5 C5          30.6416  35.3845  39.3780 C.ar           1 <1>                0.0000
      6 C6          30.0958  36.6133  39.0580 C.ar           1 <1>                0.0000
      7 C7          28.9739  37.1790  39.8900 C.3            1 <1>                0.0000
      8 S8          27.4080  36.4054  39.3998 S.o2           1 <1>                0.0000
      9 O9          27.6198  35.4745  38.3472 O.2            1 <1>                0.0000
     10 O10         26.6451  36.0543  40.5459 O.2            1 <1>                0.0000
     11 Cl11        26.3554  37.8994  38.5392 Cl             1 <1>                0.0000
     12 C12         30.5833  37.3267  37.9781 C.ar           1 <1>                0.0000
     13 Br13        29.8368  39.0079  37.5400 Br             1 <1>                0.0000
     14 H14         32.9600  35.1651  36.9373 H              1 <1>                0.0000
     15 H15         32.0960  33.9035  38.8665 H              1 <1>                0.0000
     16 H16         30.2634  34.8301  40.2242 H              1 <1>                0.0000
     17 H17         29.1650  36.9763  40.9439 H              1 <1>                0.0000
     18 H18         28.9122  38.2558  39.7326 H              1 <1>                0.0000
@<TRIPOS>BOND
    1    1    2 1     
    2    2    3 ar    
    3    2   12 ar    
    4    3    4 ar    
    5    3   14 1     
    6    4    5 ar    
    7    4   15 1     
    8    5    6 ar    
    9    5   16 1     
   10    6    7 1     
   11    6   12 ar    
   12    7    8 1     
   13    7   17 1     
   14    7   18 1     
   15    8    9 2     
   16    8   10 2     
   17    8   11 1     
   18   12   13 1     
@<TRIPOS>SUBSTRUCTURE
      1 ****           1
@<TRIPOS>COMMENT
> <Gold.Version>
2022.2.0

> <Gold.Id.Protein>
1qkm|1qkm_protein|mol2

> <Gold.Protein.RotatedTorsions>
[  496  491  490  487 ] final  167.83 input  -89.99 | X-H torsion

> <Gold.Protein.ActiveResidues>
 MET295  LEU298  THR299  LEU301  ALA302  GLU305  TRP335  MET336  LEU339  MET340 
 GLY342  LEU343  ARG346  PHE356  ILE373  ILE376  PHE377  LEU380  LYS471  GLY472 
 MET473  HIS475  LEU476  LEU477  ASN478  MET479  VAL484  VAL487 

> <Gold.Protein.RotatedAtoms>
   37.3126   33.2981   40.9824 H   0  0  0  0  0  0  0  0  0  0  0  0  # atno 496  bound_to 491 

> <Gold.Score>
     Score     S(PLP)   S(hbond)     S(cho)   S(metal)  DE(clash)   DE(tors)     intcor
     36.03     -36.72       0.00       0.00       0.00       0.00       0.41       0.14

> <Gold.PLP.Fitness>
36.0306

> <Gold.PLP.PLP>
-36.7163

> <Gold.PLP.part.hbond>
0.0000

> <Gold.PLP.part.metal>
0.0000

> <Gold.PLP.part.buried>
1.1397

> <Gold.PLP.part.nonpolar>
-36.8503

> <Gold.PLP.part.repulsive>
0.1208

> <Gold.PLP.ligand.clash>
0.0000

> <Gold.PLP.ligand.torsion>
0.4105

> <Gold.PLP.Chemscore.Hbond>
0.0000

> <Gold.PLP.Chemscore.CHOScore>
0.0000

> <Gold.PLP.Chemscore.Metal>
0.0000

> <Gold.PLP.Chemscore.Internal.Correction>
0.1353

