#       Name:                EN300-281147_i001
#       Creating user name   aseyller
#       Creation time:       Fri Apr 21 17:53:38 2023


#       File generated by GOLD software.
#

@<TRIPOS>MOLECULE
EN300-281147_i001|Sulfonylchlorides|mol2|386|dock6
    18    18     1
SMALL
USER_CHARGES


@<TRIPOS>ATOM
      1 F1          28.3630  35.5542  41.9579 F              1 <1>                0.0000
      2 C2          27.7138  36.1308  40.9229 C.ar           1 <1>                0.0000
      3 C3          26.4650  36.6963  41.1168 C.ar           1 <1>                0.0000
      4 C4          25.8019  37.2864  40.0576 C.ar           1 <1>                0.0000
      5 C5          26.3848  37.3123  38.8041 C.ar           1 <1>                0.0000
      6 C6          27.6311  36.7480  38.6083 C.ar           1 <1>                0.0000
      7 C7          28.2650  36.7772  37.2414 C.3            1 <1>                0.0000
      8 S8          29.2152  38.3103  37.0481 S.o2           1 <1>                0.0000
      9 O9          28.3455  39.4330  36.9986 O.2            1 <1>                0.0000
     10 O10         30.3533  38.3022  37.8988 O.2            1 <1>                0.0000
     11 Cl11        29.9855  38.1943  35.1843 Cl             1 <1>                0.0000
     12 C12         28.2994  36.1618  39.6679 C.ar           1 <1>                0.0000
     13 Br13        30.0047  35.3896  39.4003 Br             1 <1>                0.0000
     14 H14         26.0090  36.6761  42.0956 H              1 <1>                0.0000
     15 H15         24.8276  37.7271  40.2089 H              1 <1>                0.0000
     16 H16         25.8656  37.7737  37.9771 H              1 <1>                0.0000
     17 H17         28.9306  35.9209  37.1311 H              1 <1>                0.0000
     18 H18         27.4871  36.7332  36.4792 H              1 <1>                0.0000
@<TRIPOS>BOND
    1    1    2 1     
    2    2    3 ar    
    3    2   12 ar    
    4    3    4 ar    
    5    3   14 1     
    6    4    5 ar    
    7    4   15 1     
    8    5    6 ar    
    9    5   16 1     
   10    6    7 1     
   11    6   12 ar    
   12    7    8 1     
   13    7   17 1     
   14    7   18 1     
   15    8    9 2     
   16    8   10 2     
   17    8   11 1     
   18   12   13 1     
@<TRIPOS>SUBSTRUCTURE
      1 ****           1
@<TRIPOS>COMMENT
> <Gold.Version>
2022.2.0

> <Gold.Id.Protein>
1qkm|1qkm_protein|mol2

> <Gold.Protein.RotatedTorsions>
[  496  491  490  487 ] final  -71.98 input  -89.99 | X-H torsion

> <Gold.Protein.ActiveResidues>
 MET295  LEU298  THR299  LEU301  ALA302  GLU305  TRP335  MET336  LEU339  MET340 
 GLY342  LEU343  ARG346  PHE356  ILE373  ILE376  PHE377  LEU380  LYS471  GLY472 
 MET473  HIS475  LEU476  LEU477  ASN478  MET479  VAL484  VAL487 

> <Gold.Protein.RotatedAtoms>
   36.5952   34.7296   41.3141 H   0  0  0  0  0  0  0  0  0  0  0  0  # atno 496  bound_to 491 

> <Gold.Score>
     Score     S(PLP)   S(hbond)     S(cho)   S(metal)  DE(clash)   DE(tors)     intcor
     41.40     -42.14       0.00       0.00       0.00       0.00       0.44       0.14

> <Gold.PLP.Fitness>
41.3957

> <Gold.PLP.PLP>
-42.1400

> <Gold.PLP.part.hbond>
0.0000

> <Gold.PLP.part.metal>
0.0000

> <Gold.PLP.part.buried>
0.2597

> <Gold.PLP.part.nonpolar>
-42.6752

> <Gold.PLP.part.repulsive>
0.0000

> <Gold.PLP.ligand.clash>
0.0000

> <Gold.PLP.ligand.torsion>
0.4398

> <Gold.PLP.Chemscore.Hbond>
0.0000

> <Gold.PLP.Chemscore.CHOScore>
0.0000

> <Gold.PLP.Chemscore.Metal>
0.0000

> <Gold.PLP.Chemscore.Internal.Correction>
0.1353

