#       Name:                EN300-281147_i001
#       Creating user name   aseyller
#       Creation time:       Fri Apr 21 17:53:37 2023


#       File generated by GOLD software.
#

@<TRIPOS>MOLECULE
EN300-281147_i001|Sulfonylchlorides|mol2|386|dock5
    18    18     1
SMALL
USER_CHARGES


@<TRIPOS>ATOM
      1 F1          25.8036  37.0013  41.4829 F              1 <1>                0.0000
      2 C2          26.9811  36.7200  40.8832 C.ar           1 <1>                0.0000
      3 C3          28.0154  36.1617  41.6149 C.ar           1 <1>                0.0000
      4 C4          29.2193  35.8738  41.0005 C.ar           1 <1>                0.0000
      5 C5          29.3916  36.1430  39.6552 C.ar           1 <1>                0.0000
      6 C6          28.3605  36.7006  38.9231 C.ar           1 <1>                0.0000
      7 C7          28.5500  36.9933  37.4570 C.3            1 <1>                0.0000
      8 S8          30.0464  37.9927  37.2283 S.o2           1 <1>                0.0000
      9 O9          29.8065  39.3425  37.6021 O.2            1 <1>                0.0000
     10 O10         31.1898  37.2939  37.7008 O.2            1 <1>                0.0000
     11 Cl11        30.3010  38.0681  35.2258 Cl             1 <1>                0.0000
     12 C12         27.1527  36.9845  39.5343 C.ar           1 <1>                0.0000
     13 Br13        25.7418  37.7474  38.5328 Br             1 <1>                0.0000
     14 H14         27.8815  35.9516  42.6658 H              1 <1>                0.0000
     15 H15         30.0262  35.4388  41.5714 H              1 <1>                0.0000
     16 H16         30.3329  35.9175  39.1762 H              1 <1>                0.0000
     17 H17         28.6517  36.0562  36.9095 H              1 <1>                0.0000
     18 H18         27.6859  37.5414  37.0814 H              1 <1>                0.0000
@<TRIPOS>BOND
    1    1    2 1     
    2    2    3 ar    
    3    2   12 ar    
    4    3    4 ar    
    5    3   14 1     
    6    4    5 ar    
    7    4   15 1     
    8    5    6 ar    
    9    5   16 1     
   10    6    7 1     
   11    6   12 ar    
   12    7    8 1     
   13    7   17 1     
   14    7   18 1     
   15    8    9 2     
   16    8   10 2     
   17    8   11 1     
   18   12   13 1     
@<TRIPOS>SUBSTRUCTURE
      1 ****           1
@<TRIPOS>COMMENT
> <Gold.Version>
2022.2.0

> <Gold.Id.Protein>
1qkm|1qkm_protein|mol2

> <Gold.Protein.RotatedTorsions>
[  496  491  490  487 ] final  -51.03 input  -89.99 | X-H torsion

> <Gold.Protein.ActiveResidues>
 MET295  LEU298  THR299  LEU301  ALA302  GLU305  TRP335  MET336  LEU339  MET340 
 GLY342  LEU343  ARG346  PHE356  ILE373  ILE376  PHE377  LEU380  LYS471  GLY472 
 MET473  HIS475  LEU476  LEU477  ASN478  MET479  VAL484  VAL487 

> <Gold.Protein.RotatedAtoms>
   36.4316   34.7083   41.6148 H   0  0  0  0  0  0  0  0  0  0  0  0  # atno 496  bound_to 491 

> <Gold.Score>
     Score     S(PLP)   S(hbond)     S(cho)   S(metal)  DE(clash)   DE(tors)     intcor
     41.95     -42.19       0.00       0.00       0.00       0.00       0.19       0.14

> <Gold.PLP.Fitness>
41.9460

> <Gold.PLP.PLP>
-42.1870

> <Gold.PLP.part.hbond>
0.0000

> <Gold.PLP.part.metal>
0.0000

> <Gold.PLP.part.buried>
0.3529

> <Gold.PLP.part.nonpolar>
-42.4402

> <Gold.PLP.part.repulsive>
0.0012

> <Gold.PLP.ligand.clash>
0.0000

> <Gold.PLP.ligand.torsion>
0.1881

> <Gold.PLP.Chemscore.Hbond>
0.0000

> <Gold.PLP.Chemscore.CHOScore>
0.0000

> <Gold.PLP.Chemscore.Metal>
0.0000

> <Gold.PLP.Chemscore.Internal.Correction>
0.1353

