#       Name:                EN300-281147_i001
#       Creating user name   aseyller
#       Creation time:       Fri Apr 21 17:53:39 2023


#       File generated by GOLD software.
#

@<TRIPOS>MOLECULE
EN300-281147_i001|Sulfonylchlorides|mol2|386|dock9
    18    18     1
SMALL
USER_CHARGES


@<TRIPOS>ATOM
      1 F1          32.5329  36.4783  35.4565 F              1 <1>                0.0000
      2 C2          31.5877  37.2349  36.0561 C.ar           1 <1>                0.0000
      3 C3          31.0512  38.3262  35.3944 C.ar           1 <1>                0.0000
      4 C4          30.0841  39.0992  36.0083 C.ar           1 <1>                0.0000
      5 C5          29.6519  38.7835  37.2832 C.ar           1 <1>                0.0000
      6 C6          30.1865  37.6947  37.9456 C.ar           1 <1>                0.0000
      7 C7          29.7143  37.3518  39.3350 C.3            1 <1>                0.0000
      8 S8          28.6489  35.8853  39.2670 S.o2           1 <1>                0.0000
      9 O9          27.3972  36.2053  38.6751 O.2            1 <1>                0.0000
     10 O10         29.3904  34.7495  38.8436 O.2            1 <1>                0.0000
     11 Cl11        28.2020  35.4968  41.1982 Cl             1 <1>                0.0000
     12 C12         31.1505  36.9160  37.3313 C.ar           1 <1>                0.0000
     13 Br13        31.8822  35.4263  38.2374 Br             1 <1>                0.0000
     14 H14         31.3886  38.5737  34.3987 H              1 <1>                0.0000
     15 H15         29.6659  39.9508  35.4922 H              1 <1>                0.0000
     16 H16         28.8960  39.3883  37.7619 H              1 <1>                0.0000
     17 H17         30.5754  37.1462  39.9711 H              1 <1>                0.0000
     18 H18         29.1520  38.1908  39.7450 H              1 <1>                0.0000
@<TRIPOS>BOND
    1    1    2 1     
    2    2    3 ar    
    3    2   12 ar    
    4    3    4 ar    
    5    3   14 1     
    6    4    5 ar    
    7    4   15 1     
    8    5    6 ar    
    9    5   16 1     
   10    6    7 1     
   11    6   12 ar    
   12    7    8 1     
   13    7   17 1     
   14    7   18 1     
   15    8    9 2     
   16    8   10 2     
   17    8   11 1     
   18   12   13 1     
@<TRIPOS>SUBSTRUCTURE
      1 ****           1
@<TRIPOS>COMMENT
> <Gold.Version>
2022.2.0

> <Gold.Id.Protein>
1qkm|1qkm_protein|mol2

> <Gold.Protein.RotatedTorsions>
[  496  491  490  487 ] final  -61.06 input  -89.99 | X-H torsion

> <Gold.Protein.ActiveResidues>
 MET295  LEU298  THR299  LEU301  ALA302  GLU305  TRP335  MET336  LEU339  MET340 
 GLY342  LEU343  ARG346  PHE356  ILE373  ILE376  PHE377  LEU380  LYS471  GLY472 
 MET473  HIS475  LEU476  LEU477  ASN478  MET479  VAL484  VAL487 

> <Gold.Protein.RotatedAtoms>
   36.5052   34.7334   41.4694 H   0  0  0  0  0  0  0  0  0  0  0  0  # atno 496  bound_to 491 

> <Gold.Score>
     Score     S(PLP)   S(hbond)     S(cho)   S(metal)  DE(clash)   DE(tors)     intcor
     40.66     -41.02       0.00       0.00       0.00       0.00       0.25       0.14

> <Gold.PLP.Fitness>
40.6642

> <Gold.PLP.PLP>
-41.0248

> <Gold.PLP.part.hbond>
0.0000

> <Gold.PLP.part.metal>
0.0000

> <Gold.PLP.part.buried>
-3.0015

> <Gold.PLP.part.nonpolar>
-38.4998

> <Gold.PLP.part.repulsive>
0.0483

> <Gold.PLP.ligand.clash>
0.0000

> <Gold.PLP.ligand.torsion>
0.2479

> <Gold.PLP.Chemscore.Hbond>
0.0000

> <Gold.PLP.Chemscore.CHOScore>
0.0000

> <Gold.PLP.Chemscore.Metal>
0.0000

> <Gold.PLP.Chemscore.Internal.Correction>
0.1353

