#       Name:                EN300-281147_i001
#       Creating user name   aseyller
#       Creation time:       Fri Apr 21 17:53:42 2023


#       File generated by GOLD software.
#

@<TRIPOS>MOLECULE
EN300-281147_i001|Sulfonylchlorides|mol2|386|dock18
    18    18     1
SMALL
USER_CHARGES


@<TRIPOS>ATOM
      1 F1          32.6765  37.6960  36.3314 F              1 <1>                0.0000
      2 C2          31.9606  36.9977  37.2398 C.ar           1 <1>                0.0000
      3 C3          32.4524  35.8042  37.7404 C.ar           1 <1>                0.0000
      4 C4          31.7197  35.0908  38.6699 C.ar           1 <1>                0.0000
      5 C5          30.4956  35.5682  39.1004 C.ar           1 <1>                0.0000
      6 C6          30.0026  36.7592  38.6016 C.ar           1 <1>                0.0000
      7 C7          28.6683  37.2781  39.0718 C.3            1 <1>                0.0000
      8 S8          28.1239  36.3255  40.5163 S.o2           1 <1>                0.0000
      9 O9          27.9374  34.9596  40.1714 O.2            1 <1>                0.0000
     10 O10         28.8704  36.6950  41.6675 O.2            1 <1>                0.0000
     11 Cl11        26.2587  37.0032  40.8934 Cl             1 <1>                0.0000
     12 C12         30.7365  37.4779  37.6754 C.ar           1 <1>                0.0000
     13 Br13        30.0623  39.1075  36.9928 Br             1 <1>                0.0000
     14 H14         33.4084  35.4305  37.4042 H              1 <1>                0.0000
     15 H15         32.1033  34.1597  39.0600 H              1 <1>                0.0000
     16 H16         29.9239  35.0098  39.8268 H              1 <1>                0.0000
     17 H17         28.7627  38.3293  39.3444 H              1 <1>                0.0000
     18 H18         27.9357  37.1749  38.2713 H              1 <1>                0.0000
@<TRIPOS>BOND
    1    1    2 1     
    2    2    3 ar    
    3    2   12 ar    
    4    3    4 ar    
    5    3   14 1     
    6    4    5 ar    
    7    4   15 1     
    8    5    6 ar    
    9    5   16 1     
   10    6    7 1     
   11    6   12 ar    
   12    7    8 1     
   13    7   17 1     
   14    7   18 1     
   15    8    9 2     
   16    8   10 2     
   17    8   11 1     
   18   12   13 1     
@<TRIPOS>SUBSTRUCTURE
      1 ****           1
@<TRIPOS>COMMENT
> <Gold.Version>
2022.2.0

> <Gold.Id.Protein>
1qkm|1qkm_protein|mol2

> <Gold.Protein.RotatedTorsions>
[  496  491  490  487 ] final -125.74 input  -89.99 | X-H torsion

> <Gold.Protein.ActiveResidues>
 MET295  LEU298  THR299  LEU301  ALA302  GLU305  TRP335  MET336  LEU339  MET340 
 GLY342  LEU343  ARG346  PHE356  ILE373  ILE376  PHE377  LEU380  LYS471  GLY472 
 MET473  HIS475  LEU476  LEU477  ASN478  MET479  VAL484  VAL487 

> <Gold.Protein.RotatedAtoms>
   37.0723   34.2801   40.7685 H   0  0  0  0  0  0  0  0  0  0  0  0  # atno 496  bound_to 491 

> <Gold.Score>
     Score     S(PLP)   S(hbond)     S(cho)   S(metal)  DE(clash)   DE(tors)     intcor
     40.13     -40.46       0.00       0.00       0.00       0.00       0.23       0.14

> <Gold.PLP.Fitness>
40.1342

> <Gold.PLP.PLP>
-40.4604

> <Gold.PLP.part.hbond>
0.0000

> <Gold.PLP.part.metal>
0.0000

> <Gold.PLP.part.buried>
-2.4181

> <Gold.PLP.part.nonpolar>
-38.4948

> <Gold.PLP.part.repulsive>
0.2144

> <Gold.PLP.ligand.clash>
0.0000

> <Gold.PLP.ligand.torsion>
0.2307

> <Gold.PLP.Chemscore.Hbond>
0.0000

> <Gold.PLP.Chemscore.CHOScore>
0.0000

> <Gold.PLP.Chemscore.Metal>
0.0000

> <Gold.PLP.Chemscore.Internal.Correction>
0.1353

