#       Name:                EN300-281147_i001
#       Creating user name   aseyller
#       Creation time:       Fri Apr 21 17:53:36 2023


#       File generated by GOLD software.
#

@<TRIPOS>MOLECULE
EN300-281147_i001|Sulfonylchlorides|mol2|386|dock1
    18    18     1
SMALL
USER_CHARGES


@<TRIPOS>ATOM
      1 F1          33.0198  36.9987  34.9580 F              1 <1>                0.0000
      2 C2          32.4133  36.6393  36.1104 C.ar           1 <1>                0.0000
      3 C3          33.0368  35.7562  36.9755 C.ar           1 <1>                0.0000
      4 C4          32.4158  35.3895  38.1543 C.ar           1 <1>                0.0000
      5 C5          31.1720  35.9040  38.4705 C.ar           1 <1>                0.0000
      6 C6          30.5476  36.7853  37.6082 C.ar           1 <1>                0.0000
      7 C7          29.1920  37.3452  37.9543 C.3            1 <1>                0.0000
      8 S8          28.5265  36.4695  39.3968 S.o2           1 <1>                0.0000
      9 O9          28.4822  35.0701  39.1539 O.2            1 <1>                0.0000
     10 O10         29.0853  36.9875  40.5962 O.2            1 <1>                0.0000
     11 Cl11        26.5855  37.0238  39.4717 Cl             1 <1>                0.0000
     12 C12         31.1694  37.1584  36.4304 C.ar           1 <1>                0.0000
     13 Br13        30.3155  38.3642  35.2503 Br             1 <1>                0.0000
     14 H14         34.0082  35.3537  36.7288 H              1 <1>                0.0000
     15 H15         32.9021  34.7004  38.8288 H              1 <1>                0.0000
     16 H16         30.6877  35.6167  39.3921 H              1 <1>                0.0000
     17 H17         29.2852  38.4066  38.1847 H              1 <1>                0.0000
     18 H18         28.5182  37.2151  37.1075 H              1 <1>                0.0000
@<TRIPOS>BOND
    1    1    2 1     
    2    2    3 ar    
    3    2   12 ar    
    4    3    4 ar    
    5    3   14 1     
    6    4    5 ar    
    7    4   15 1     
    8    5    6 ar    
    9    5   16 1     
   10    6    7 1     
   11    6   12 ar    
   12    7    8 1     
   13    7   17 1     
   14    7   18 1     
   15    8    9 2     
   16    8   10 2     
   17    8   11 1     
   18   12   13 1     
@<TRIPOS>SUBSTRUCTURE
      1 ****           1
@<TRIPOS>COMMENT
> <Gold.Version>
2022.2.0

> <Gold.Id.Protein>
1qkm|1qkm_protein|mol2

> <Gold.Protein.RotatedTorsions>
[  496  491  490  487 ] final   15.24 input  -89.99 | X-H torsion

> <Gold.Protein.ActiveResidues>
 MET295  LEU298  THR299  LEU301  ALA302  GLU305  TRP335  MET336  LEU339  MET340 
 GLY342  LEU343  ARG346  PHE356  ILE373  ILE376  PHE377  LEU380  LYS471  GLY472 
 MET473  HIS475  LEU476  LEU477  ASN478  MET479  VAL484  VAL487 

> <Gold.Protein.RotatedAtoms>
   36.2866   33.9859   42.3362 H   0  0  0  0  0  0  0  0  0  0  0  0  # atno 496  bound_to 491 

> <Gold.Score>
     Score     S(PLP)   S(hbond)     S(cho)   S(metal)  DE(clash)   DE(tors)     intcor
     42.42     -42.90       0.00       0.00       0.00       0.00       0.31       0.14

> <Gold.PLP.Fitness>
42.4204

> <Gold.PLP.PLP>
-42.9047

> <Gold.PLP.part.hbond>
0.0000

> <Gold.PLP.part.metal>
0.0000

> <Gold.PLP.part.buried>
-3.3077

> <Gold.PLP.part.nonpolar>
-39.9568

> <Gold.PLP.part.repulsive>
0.1000

> <Gold.PLP.ligand.clash>
0.0000

> <Gold.PLP.ligand.torsion>
0.3101

> <Gold.PLP.Chemscore.Hbond>
0.0000

> <Gold.PLP.Chemscore.CHOScore>
0.0000

> <Gold.PLP.Chemscore.Metal>
0.0000

> <Gold.PLP.Chemscore.Internal.Correction>
0.1359

