#       Name:                EN300-281147_i001
#       Creating user name   aseyller
#       Creation time:       Fri Apr 21 17:53:36 2023


#       File generated by GOLD software.
#

@<TRIPOS>MOLECULE
EN300-281147_i001|Sulfonylchlorides|mol2|386|dock2
    18    18     1
SMALL
USER_CHARGES


@<TRIPOS>ATOM
      1 F1          31.9508  37.3414  35.2080 F              1 <1>                0.0000
      2 C2          31.7137  36.7243  36.3862 C.ar           1 <1>                0.0000
      3 C3          32.3429  35.5265  36.6800 C.ar           1 <1>                0.0000
      4 C4          32.1001  34.8962  37.8856 C.ar           1 <1>                0.0000
      5 C5          31.2291  35.4611  38.7989 C.ar           1 <1>                0.0000
      6 C6          30.5997  36.6565  38.5075 C.ar           1 <1>                0.0000
      7 C7          29.6507  37.2709  39.5039 C.3            1 <1>                0.0000
      8 S8          28.3364  36.0845  39.8983 S.o2           1 <1>                0.0000
      9 O9          28.4641  34.9154  39.1005 O.2            1 <1>                0.0000
     10 O10         28.1505  35.9953  41.3042 O.2            1 <1>                0.0000
     11 Cl11        26.6460  36.9634  39.2270 Cl             1 <1>                0.0000
     12 C12         30.8452  37.2923  37.3039 C.ar           1 <1>                0.0000
     13 Br13        29.9842  38.9278  36.9048 Br             1 <1>                0.0000
     14 H14         33.0230  35.0846  35.9669 H              1 <1>                0.0000
     15 H15         32.5906  33.9617  38.1145 H              1 <1>                0.0000
     16 H16         31.0402  34.9676  39.7408 H              1 <1>                0.0000
     17 H17         30.1943  37.5265  40.4136 H              1 <1>                0.0000
     18 H18         29.2106  38.1726  39.0783 H              1 <1>                0.0000
@<TRIPOS>BOND
    1    1    2 1     
    2    2    3 ar    
    3    2   12 ar    
    4    3    4 ar    
    5    3   14 1     
    6    4    5 ar    
    7    4   15 1     
    8    5    6 ar    
    9    5   16 1     
   10    6    7 1     
   11    6   12 ar    
   12    7    8 1     
   13    7   17 1     
   14    7   18 1     
   15    8    9 2     
   16    8   10 2     
   17    8   11 1     
   18   12   13 1     
@<TRIPOS>SUBSTRUCTURE
      1 ****           1
@<TRIPOS>COMMENT
> <Gold.Version>
2022.2.0

> <Gold.Id.Protein>
1qkm|1qkm_protein|mol2

> <Gold.Protein.RotatedTorsions>
[  496  491  490  487 ] final  173.54 input  -89.99 | X-H torsion

> <Gold.Protein.ActiveResidues>
 MET295  LEU298  THR299  LEU301  ALA302  GLU305  TRP335  MET336  LEU339  MET340 
 GLY342  LEU343  ARG346  PHE356  ILE373  ILE376  PHE377  LEU380  LYS471  GLY472 
 MET473  HIS475  LEU476  LEU477  ASN478  MET479  VAL484  VAL487 

> <Gold.Protein.RotatedAtoms>
   37.3180   33.3722   40.9250 H   0  0  0  0  0  0  0  0  0  0  0  0  # atno 496  bound_to 491 

> <Gold.Score>
     Score     S(PLP)   S(hbond)     S(cho)   S(metal)  DE(clash)   DE(tors)     intcor
     42.45     -42.51       0.00       0.00       0.00       0.00       0.10       0.14

> <Gold.PLP.Fitness>
42.4483

> <Gold.PLP.PLP>
-42.5063

> <Gold.PLP.part.hbond>
0.0000

> <Gold.PLP.part.metal>
0.0000

> <Gold.PLP.part.buried>
-3.4521

> <Gold.PLP.part.nonpolar>
-39.1784

> <Gold.PLP.part.repulsive>
0.1621

> <Gold.PLP.ligand.clash>
0.0000

> <Gold.PLP.ligand.torsion>
0.0966

> <Gold.PLP.Chemscore.Hbond>
0.0000

> <Gold.PLP.Chemscore.CHOScore>
0.0000

> <Gold.PLP.Chemscore.Metal>
0.0000

> <Gold.PLP.Chemscore.Internal.Correction>
0.1353

