#       Name:                EN300-281147_i001
#       Creating user name   aseyller
#       Creation time:       Fri Apr 21 17:53:38 2023


#       File generated by GOLD software.
#

@<TRIPOS>MOLECULE
EN300-281147_i001|Sulfonylchlorides|mol2|386|dock8
    18    18     1
SMALL
USER_CHARGES


@<TRIPOS>ATOM
      1 F1          31.2083  37.8384  34.9270 F              1 <1>                0.0000
      2 C2          31.4348  37.1256  36.0521 C.ar           1 <1>                0.0000
      3 C3          32.4697  36.2068  36.0936 C.ar           1 <1>                0.0000
      4 C4          32.7010  35.4785  37.2450 C.ar           1 <1>                0.0000
      5 C5          31.8994  35.6667  38.3558 C.ar           1 <1>                0.0000
      6 C6          30.8656  36.5831  38.3163 C.ar           1 <1>                0.0000
      7 C7          29.9930  36.7871  39.5279 C.3            1 <1>                0.0000
      8 S8          28.3786  36.0083  39.2485 S.o2           1 <1>                0.0000
      9 O9          27.6111  36.7690  38.3256 O.2            1 <1>                0.0000
     10 O10         28.5224  34.6027  39.0983 O.2            1 <1>                0.0000
     11 Cl11        27.4039  36.2247  41.0045 Cl             1 <1>                0.0000
     12 C12         30.6355  37.3174  37.1671 C.ar           1 <1>                0.0000
     13 Br13        29.2211  38.5713  37.1127 Br             1 <1>                0.0000
     14 H14         33.0959  36.0590  35.2261 H              1 <1>                0.0000
     15 H15         33.5080  34.7615  37.2772 H              1 <1>                0.0000
     16 H16         32.0812  35.0969  39.2551 H              1 <1>                0.0000
     17 H17         30.4685  36.3353  40.3985 H              1 <1>                0.0000
     18 H18         29.8563  37.8545  39.7016 H              1 <1>                0.0000
@<TRIPOS>BOND
    1    1    2 1     
    2    2    3 ar    
    3    2   12 ar    
    4    3    4 ar    
    5    3   14 1     
    6    4    5 ar    
    7    4   15 1     
    8    5    6 ar    
    9    5   16 1     
   10    6    7 1     
   11    6   12 ar    
   12    7    8 1     
   13    7   17 1     
   14    7   18 1     
   15    8    9 2     
   16    8   10 2     
   17    8   11 1     
   18   12   13 1     
@<TRIPOS>SUBSTRUCTURE
      1 ****           1
@<TRIPOS>COMMENT
> <Gold.Version>
2022.2.0

> <Gold.Id.Protein>
1qkm|1qkm_protein|mol2

> <Gold.Protein.RotatedTorsions>
[  496  491  490  487 ] final  138.74 input  -89.99 | X-H torsion

> <Gold.Protein.ActiveResidues>
 MET295  LEU298  THR299  LEU301  ALA302  GLU305  TRP335  MET336  LEU339  MET340 
 GLY342  LEU343  ARG346  PHE356  ILE373  ILE376  PHE377  LEU380  LYS471  GLY472 
 MET473  HIS475  LEU476  LEU477  ASN478  MET479  VAL484  VAL487 

> <Gold.Protein.RotatedAtoms>
   37.2073   33.0171   41.3489 H   0  0  0  0  0  0  0  0  0  0  0  0  # atno 496  bound_to 491 

> <Gold.Score>
     Score     S(PLP)   S(hbond)     S(cho)   S(metal)  DE(clash)   DE(tors)     intcor
     39.83     -40.25       0.00       0.00       0.00       0.00       0.27       0.14

> <Gold.PLP.Fitness>
39.8327

> <Gold.PLP.PLP>
-40.2471

> <Gold.PLP.part.hbond>
0.0000

> <Gold.PLP.part.metal>
0.0000

> <Gold.PLP.part.buried>
-3.0962

> <Gold.PLP.part.nonpolar>
-37.5738

> <Gold.PLP.part.repulsive>
0.0254

> <Gold.PLP.ligand.clash>
0.0000

> <Gold.PLP.ligand.torsion>
0.2749

> <Gold.PLP.Chemscore.Hbond>
0.0000

> <Gold.PLP.Chemscore.CHOScore>
0.0000

> <Gold.PLP.Chemscore.Metal>
0.0000

> <Gold.PLP.Chemscore.Internal.Correction>
0.1353

