#       Name:                EN300-281147_i001
#       Creating user name   aseyller
#       Creation time:       Fri Apr 21 17:53:43 2023


#       File generated by GOLD software.
#

@<TRIPOS>MOLECULE
EN300-281147_i001|Sulfonylchlorides|mol2|386|dock19
    18    18     1
SMALL
USER_CHARGES


@<TRIPOS>ATOM
      1 F1          31.5917  33.3990  38.4738 F              1 <1>                0.0000
      2 C2          31.0963  34.6543  38.5362 C.ar           1 <1>                0.0000
      3 C3          30.0035  34.9287  39.3408 C.ar           1 <1>                0.0000
      4 C4          29.4977  36.2131  39.4045 C.ar           1 <1>                0.0000
      5 C5          30.0823  37.2247  38.6650 C.ar           1 <1>                0.0000
      6 C6          31.1730  36.9529  37.8609 C.ar           1 <1>                0.0000
      7 C7          31.8091  38.0564  37.0556 C.3            1 <1>                0.0000
      8 S8          31.5269  37.7559  35.2891 S.o2           1 <1>                0.0000
      9 O9          30.5990  36.6954  35.1057 O.2            1 <1>                0.0000
     10 O10         31.3819  38.9851  34.5911 O.2            1 <1>                0.0000
     11 Cl11        33.2790  37.0063  34.6191 Cl             1 <1>                0.0000
     12 C12         31.6847  35.6694  37.7997 C.ar           1 <1>                0.0000
     13 Br13        33.1770  35.2971  36.6996 Br             1 <1>                0.0000
     14 H14         29.5461  34.1389  39.9184 H              1 <1>                0.0000
     15 H15         28.6450  36.4270  40.0318 H              1 <1>                0.0000
     16 H16         29.6862  38.2281  38.7156 H              1 <1>                0.0000
     17 H17         31.3671  39.0125  37.3367 H              1 <1>                0.0000
     18 H18         32.8807  38.0794  37.2537 H              1 <1>                0.0000
@<TRIPOS>BOND
    1    1    2 1     
    2    2    3 ar    
    3    2   12 ar    
    4    3    4 ar    
    5    3   14 1     
    6    4    5 ar    
    7    4   15 1     
    8    5    6 ar    
    9    5   16 1     
   10    6    7 1     
   11    6   12 ar    
   12    7    8 1     
   13    7   17 1     
   14    7   18 1     
   15    8    9 2     
   16    8   10 2     
   17    8   11 1     
   18   12   13 1     
@<TRIPOS>SUBSTRUCTURE
      1 ****           1
@<TRIPOS>COMMENT
> <Gold.Version>
2022.2.0

> <Gold.Id.Protein>
1qkm|1qkm_protein|mol2

> <Gold.Protein.RotatedTorsions>
[  496  491  490  487 ] final -167.15 input  -89.99 | X-H torsion

> <Gold.Protein.ActiveResidues>
 MET295  LEU298  THR299  LEU301  ALA302  GLU305  TRP335  MET336  LEU339  MET340 
 GLY342  LEU343  ARG346  PHE356  ILE373  ILE376  PHE377  LEU380  LYS471  GLY472 
 MET473  HIS475  LEU476  LEU477  ASN478  MET479  VAL484  VAL487 

> <Gold.Protein.RotatedAtoms>
   37.2976   33.6524   40.7795 H   0  0  0  0  0  0  0  0  0  0  0  0  # atno 496  bound_to 491 

> <Gold.Score>
     Score     S(PLP)   S(hbond)     S(cho)   S(metal)  DE(clash)   DE(tors)     intcor
     41.33     -42.01       0.00       0.00       0.00       0.00       0.41       0.14

> <Gold.PLP.Fitness>
41.3304

> <Gold.PLP.PLP>
-42.0094

> <Gold.PLP.part.hbond>
0.0000

> <Gold.PLP.part.metal>
0.0000

> <Gold.PLP.part.buried>
-1.9323

> <Gold.PLP.part.nonpolar>
-39.9163

> <Gold.PLP.part.repulsive>
0.1106

> <Gold.PLP.ligand.clash>
0.0000

> <Gold.PLP.ligand.torsion>
0.4072

> <Gold.PLP.Chemscore.Hbond>
0.0000

> <Gold.PLP.Chemscore.CHOScore>
0.0000

> <Gold.PLP.Chemscore.Metal>
0.0000

> <Gold.PLP.Chemscore.Internal.Correction>
0.1353

