#       Name:                EN300-281147_i001
#       Creating user name   aseyller
#       Creation time:       Fri Apr 21 17:53:36 2023


#       File generated by GOLD software.
#

@<TRIPOS>MOLECULE
EN300-281147_i001|Sulfonylchlorides|mol2|386|dock3
    18    18     1
SMALL
USER_CHARGES


@<TRIPOS>ATOM
      1 F1          33.1765  36.1793  36.4229 F              1 <1>                0.0000
      2 C2          32.1743  35.8371  37.2617 C.ar           1 <1>                0.0000
      3 C3          32.2201  34.6313  37.9405 C.ar           1 <1>                0.0000
      4 C4          31.1947  34.2823  38.7987 C.ar           1 <1>                0.0000
      5 C5          30.1227  35.1367  38.9799 C.ar           1 <1>                0.0000
      6 C6          30.0749  36.3407  38.3029 C.ar           1 <1>                0.0000
      7 C7          28.9059  37.2708  38.5016 C.3            1 <1>                0.0000
      8 S8          27.6873  36.4861  39.5924 S.o2           1 <1>                0.0000
      9 O9          27.3252  35.2050  39.0954 O.2            1 <1>                0.0000
     10 O10         28.0473  36.6683  40.9549 O.2            1 <1>                0.0000
     11 Cl11        26.0170  37.5990  39.3653 Cl             1 <1>                0.0000
     12 C12         31.1026  36.6949  37.4478 C.ar           1 <1>                0.0000
     13 Br13        31.0374  38.3421  36.5214 Br             1 <1>                0.0000
     14 H14         33.0569  33.9633  37.7991 H              1 <1>                0.0000
     15 H15         31.2303  33.3416  39.3278 H              1 <1>                0.0000
     16 H16         29.3220  34.8629  39.6508 H              1 <1>                0.0000
     17 H17         29.2534  38.1997  38.9539 H              1 <1>                0.0000
     18 H18         28.4452  37.4862  37.5376 H              1 <1>                0.0000
@<TRIPOS>BOND
    1    1    2 1     
    2    2    3 ar    
    3    2   12 ar    
    4    3    4 ar    
    5    3   14 1     
    6    4    5 ar    
    7    4   15 1     
    8    5    6 ar    
    9    5   16 1     
   10    6    7 1     
   11    6   12 ar    
   12    7    8 1     
   13    7   17 1     
   14    7   18 1     
   15    8    9 2     
   16    8   10 2     
   17    8   11 1     
   18   12   13 1     
@<TRIPOS>SUBSTRUCTURE
      1 ****           1
@<TRIPOS>COMMENT
> <Gold.Version>
2022.2.0

> <Gold.Id.Protein>
1qkm|1qkm_protein|mol2

> <Gold.Protein.RotatedTorsions>
[  496  491  490  487 ] final  -83.66 input  -89.99 | X-H torsion

> <Gold.Protein.ActiveResidues>
 MET295  LEU298  THR299  LEU301  ALA302  GLU305  TRP335  MET336  LEU339  MET340 
 GLY342  LEU343  ARG346  PHE356  ILE373  ILE376  PHE377  LEU380  LYS471  GLY472 
 MET473  HIS475  LEU476  LEU477  ASN478  MET479  VAL484  VAL487 

> <Gold.Protein.RotatedAtoms>
   36.6991   34.6898   41.1576 H   0  0  0  0  0  0  0  0  0  0  0  0  # atno 496  bound_to 491 

> <Gold.Score>
     Score     S(PLP)   S(hbond)     S(cho)   S(metal)  DE(clash)   DE(tors)     intcor
     41.51     -41.94       0.00       0.00       0.00       0.00       0.29       0.14

> <Gold.PLP.Fitness>
41.5059

> <Gold.PLP.PLP>
-41.9425

> <Gold.PLP.part.hbond>
0.0000

> <Gold.PLP.part.metal>
0.0000

> <Gold.PLP.part.buried>
-3.1199

> <Gold.PLP.part.nonpolar>
-39.0732

> <Gold.PLP.part.repulsive>
0.0946

> <Gold.PLP.ligand.clash>
0.0000

> <Gold.PLP.ligand.torsion>
0.2859

> <Gold.PLP.Chemscore.Hbond>
0.0000

> <Gold.PLP.Chemscore.CHOScore>
0.0000

> <Gold.PLP.Chemscore.Metal>
0.0000

> <Gold.PLP.Chemscore.Internal.Correction>
0.1353

