#       Name:                EN300-281147_i001
#       Creating user name   aseyller
#       Creation time:       Fri Apr 21 17:53:40 2023


#       File generated by GOLD software.
#

@<TRIPOS>MOLECULE
EN300-281147_i001|Sulfonylchlorides|mol2|386|dock11
    18    18     1
SMALL
USER_CHARGES


@<TRIPOS>ATOM
      1 F1          32.0855  38.4429  34.9412 F              1 <1>                0.0000
      2 C2          31.7019  37.7245  36.0191 C.ar           1 <1>                0.0000
      3 C3          32.5121  36.7097  36.4995 C.ar           1 <1>                0.0000
      4 C4          32.1191  35.9757  37.6024 C.ar           1 <1>                0.0000
      5 C5          30.9172  36.2540  38.2267 C.ar           1 <1>                0.0000
      6 C6          30.1068  37.2663  37.7485 C.ar           1 <1>                0.0000
      7 C7          28.7972  37.5685  38.4300 C.3            1 <1>                0.0000
      8 S8          28.5646  36.4316  39.8243 S.o2           1 <1>                0.0000
      9 O9          28.5791  35.0832  39.3760 O.2            1 <1>                0.0000
     10 O10         29.3462  36.8418  40.9379 O.2            1 <1>                0.0000
     11 Cl11        26.6573  36.7402  40.4137 Cl             1 <1>                0.0000
     12 C12         30.5003  38.0062  36.6482 C.ar           1 <1>                0.0000
     13 Br13        29.3918  39.3913  35.9937 Br             1 <1>                0.0000
     14 H14         33.4509  36.4916  36.0121 H              1 <1>                0.0000
     15 H15         32.7509  35.1839  37.9768 H              1 <1>                0.0000
     16 H16         30.6112  35.6797  39.0886 H              1 <1>                0.0000
     17 H17         28.8063  38.5952  38.7960 H              1 <1>                0.0000
     18 H18         27.9803  37.4435  37.7192 H              1 <1>                0.0000
@<TRIPOS>BOND
    1    1    2 1     
    2    2    3 ar    
    3    2   12 ar    
    4    3    4 ar    
    5    3   14 1     
    6    4    5 ar    
    7    4   15 1     
    8    5    6 ar    
    9    5   16 1     
   10    6    7 1     
   11    6   12 ar    
   12    7    8 1     
   13    7   17 1     
   14    7   18 1     
   15    8    9 2     
   16    8   10 2     
   17    8   11 1     
   18   12   13 1     
@<TRIPOS>SUBSTRUCTURE
      1 ****           1
@<TRIPOS>COMMENT
> <Gold.Version>
2022.2.0

> <Gold.Id.Protein>
1qkm|1qkm_protein|mol2

> <Gold.Protein.RotatedTorsions>
[  496  491  490  487 ] final  165.11 input  -89.99 | X-H torsion

> <Gold.Protein.ActiveResidues>
 MET295  LEU298  THR299  LEU301  ALA302  GLU305  TRP335  MET336  LEU339  MET340 
 GLY342  LEU343  ARG346  PHE356  ILE373  ILE376  PHE377  LEU380  LYS471  GLY472 
 MET473  HIS475  LEU476  LEU477  ASN478  MET479  VAL484  VAL487 

> <Gold.Protein.RotatedAtoms>
   37.3082   33.2647   41.0118 H   0  0  0  0  0  0  0  0  0  0  0  0  # atno 496  bound_to 491 

> <Gold.Score>
     Score     S(PLP)   S(hbond)     S(cho)   S(metal)  DE(clash)   DE(tors)     intcor
     39.44     -39.64       0.00       0.00       0.00       0.00       0.17       0.14

> <Gold.PLP.Fitness>
39.4444

> <Gold.PLP.PLP>
-39.6431

> <Gold.PLP.part.hbond>
0.0000

> <Gold.PLP.part.metal>
0.0000

> <Gold.PLP.part.buried>
-3.3695

> <Gold.PLP.part.nonpolar>
-36.3208

> <Gold.PLP.part.repulsive>
0.1365

> <Gold.PLP.ligand.clash>
0.0000

> <Gold.PLP.ligand.torsion>
0.1670

> <Gold.PLP.Chemscore.Hbond>
0.0000

> <Gold.PLP.Chemscore.CHOScore>
0.0000

> <Gold.PLP.Chemscore.Metal>
0.0000

> <Gold.PLP.Chemscore.Internal.Correction>
0.1353

