#       Name:                EN300-281147_i001
#       Creating user name   aseyller
#       Creation time:       Fri Apr 21 17:53:42 2023


#       File generated by GOLD software.
#

@<TRIPOS>MOLECULE
EN300-281147_i001|Sulfonylchlorides|mol2|386|dock17
    18    18     1
SMALL
USER_CHARGES


@<TRIPOS>ATOM
      1 F1          27.6167  35.8483  39.3878 F              1 <1>                0.0000
      2 C2          27.9405  36.8832  38.5820 C.ar           1 <1>                0.0000
      3 C3          26.9543  37.7416  38.1264 C.ar           1 <1>                0.0000
      4 C4          27.2865  38.8002  37.3027 C.ar           1 <1>                0.0000
      5 C5          28.6033  39.0029  36.9330 C.ar           1 <1>                0.0000
      6 C6          29.5893  38.1470  37.3864 C.ar           1 <1>                0.0000
      7 C7          31.0240  38.3694  36.9827 C.3            1 <1>                0.0000
      8 S8          31.2831  37.7420  35.3005 S.o2           1 <1>                0.0000
      9 O9          30.2459  36.8402  34.9394 O.2            1 <1>                0.0000
     10 O10         31.6742  38.7950  34.4303 O.2            1 <1>                0.0000
     11 Cl11        32.9277  36.5779  35.4443 Cl             1 <1>                0.0000
     12 C12         29.2603  37.0900  38.2155 C.ar           1 <1>                0.0000
     13 Br13        30.6091  35.9189  38.8360 Br             1 <1>                0.0000
     14 H14         25.9254  37.5835  38.4144 H              1 <1>                0.0000
     15 H15         26.5171  39.4694  36.9470 H              1 <1>                0.0000
     16 H16         28.8617  39.8306  36.2893 H              1 <1>                0.0000
     17 H17         31.2486  39.4357  37.0114 H              1 <1>                0.0000
     18 H18         31.6817  37.8410  37.6729 H              1 <1>                0.0000
@<TRIPOS>BOND
    1    1    2 1     
    2    2    3 ar    
    3    2   12 ar    
    4    3    4 ar    
    5    3   14 1     
    6    4    5 ar    
    7    4   15 1     
    8    5    6 ar    
    9    5   16 1     
   10    6    7 1     
   11    6   12 ar    
   12    7    8 1     
   13    7   17 1     
   14    7   18 1     
   15    8    9 2     
   16    8   10 2     
   17    8   11 1     
   18   12   13 1     
@<TRIPOS>SUBSTRUCTURE
      1 ****           1
@<TRIPOS>COMMENT
> <Gold.Version>
2022.2.0

> <Gold.Id.Protein>
1qkm|1qkm_protein|mol2

> <Gold.Protein.RotatedTorsions>
[  496  491  490  487 ] final  -24.65 input  -89.99 | X-H torsion

> <Gold.Protein.ActiveResidues>
 MET295  LEU298  THR299  LEU301  ALA302  GLU305  TRP335  MET336  LEU339  MET340 
 GLY342  LEU343  ARG346  PHE356  ILE373  ILE376  PHE377  LEU380  LYS471  GLY472 
 MET473  HIS475  LEU476  LEU477  ASN478  MET479  VAL484  VAL487 

> <Gold.Protein.RotatedAtoms>
   36.2948   34.5196   41.9766 H   0  0  0  0  0  0  0  0  0  0  0  0  # atno 496  bound_to 491 

> <Gold.Score>
     Score     S(PLP)   S(hbond)     S(cho)   S(metal)  DE(clash)   DE(tors)     intcor
     39.51     -40.25       0.00       0.00       0.00       0.00       0.44       0.14

> <Gold.PLP.Fitness>
39.5069

> <Gold.PLP.PLP>
-40.2500

> <Gold.PLP.part.hbond>
0.0000

> <Gold.PLP.part.metal>
0.0000

> <Gold.PLP.part.buried>
-2.0305

> <Gold.PLP.part.nonpolar>
-38.4992

> <Gold.PLP.part.repulsive>
0.1414

> <Gold.PLP.ligand.clash>
0.0000

> <Gold.PLP.ligand.torsion>
0.4392

> <Gold.PLP.Chemscore.Hbond>
0.0000

> <Gold.PLP.Chemscore.CHOScore>
0.0000

> <Gold.PLP.Chemscore.Metal>
0.0000

> <Gold.PLP.Chemscore.Internal.Correction>
0.1353

