#       Name:                EN300-281147_i001
#       Creating user name   aseyller
#       Creation time:       Fri Apr 21 17:53:39 2023


#       File generated by GOLD software.
#

@<TRIPOS>MOLECULE
EN300-281147_i001|Sulfonylchlorides|mol2|386|dock10
    18    18     1
SMALL
USER_CHARGES


@<TRIPOS>ATOM
      1 F1          31.7843  33.4165  38.4959 F              1 <1>                0.0000
      2 C2          31.2369  34.6511  38.5319 C.ar           1 <1>                0.0000
      3 C3          30.1798  34.9156  39.3861 C.ar           1 <1>                0.0000
      4 C4          29.6207  36.1788  39.4227 C.ar           1 <1>                0.0000
      5 C5          30.1164  37.1790  38.6067 C.ar           1 <1>                0.0000
      6 C6          31.1713  36.9169  37.7530 C.ar           1 <1>                0.0000
      7 C7          31.7104  38.0081  36.8645 C.3            1 <1>                0.0000
      8 S8          30.3898  38.6089  35.7755 S.o2           1 <1>                0.0000
      9 O9          30.7767  38.4949  34.4129 O.2            1 <1>                0.0000
     10 O10         29.1246  38.1387  36.2197 O.2            1 <1>                0.0000
     11 Cl11        30.3269  40.5999  36.1105 Cl             1 <1>                0.0000
     12 C12         31.7363  35.6550  37.7186 C.ar           1 <1>                0.0000
     13 Br13        33.1796  35.2961  36.5507 Br             1 <1>                0.0000
     14 H14         29.7919  34.1346  40.0234 H              1 <1>                0.0000
     15 H15         28.7959  36.3849  40.0886 H              1 <1>                0.0000
     16 H16         29.6787  38.1658  38.6362 H              1 <1>                0.0000
     17 H17         32.0762  38.8303  37.4797 H              1 <1>                0.0000
     18 H18         32.5281  37.6143  36.2609 H              1 <1>                0.0000
@<TRIPOS>BOND
    1    1    2 1     
    2    2    3 ar    
    3    2   12 ar    
    4    3    4 ar    
    5    3   14 1     
    6    4    5 ar    
    7    4   15 1     
    8    5    6 ar    
    9    5   16 1     
   10    6    7 1     
   11    6   12 ar    
   12    7    8 1     
   13    7   17 1     
   14    7   18 1     
   15    8    9 2     
   16    8   10 2     
   17    8   11 1     
   18   12   13 1     
@<TRIPOS>SUBSTRUCTURE
      1 ****           1
@<TRIPOS>COMMENT
> <Gold.Version>
2022.2.0

> <Gold.Id.Protein>
1qkm|1qkm_protein|mol2

> <Gold.Protein.RotatedTorsions>
[  496  491  490  487 ] final  -45.02 input  -89.99 | X-H torsion

> <Gold.Protein.ActiveResidues>
 MET295  LEU298  THR299  LEU301  ALA302  GLU305  TRP335  MET336  LEU339  MET340 
 GLY342  LEU343  ARG346  PHE356  ILE373  ILE376  PHE377  LEU380  LYS471  GLY472 
 MET473  HIS475  LEU476  LEU477  ASN478  MET479  VAL484  VAL487 

> <Gold.Protein.RotatedAtoms>
   36.3926   34.6804   41.7012 H   0  0  0  0  0  0  0  0  0  0  0  0  # atno 496  bound_to 491 

> <Gold.Score>
     Score     S(PLP)   S(hbond)     S(cho)   S(metal)  DE(clash)   DE(tors)     intcor
     39.81     -39.86       0.00       0.00       0.00       0.00       0.09       0.14

> <Gold.PLP.Fitness>
39.8092

> <Gold.PLP.PLP>
-39.8626

> <Gold.PLP.part.hbond>
0.0000

> <Gold.PLP.part.metal>
0.0000

> <Gold.PLP.part.buried>
-0.9113

> <Gold.PLP.part.nonpolar>
-39.0886

> <Gold.PLP.part.repulsive>
0.0376

> <Gold.PLP.ligand.clash>
0.0000

> <Gold.PLP.ligand.torsion>
0.0944

> <Gold.PLP.Chemscore.Hbond>
0.0000

> <Gold.PLP.Chemscore.CHOScore>
0.0000

> <Gold.PLP.Chemscore.Metal>
0.0000

> <Gold.PLP.Chemscore.Internal.Correction>
0.1353

