#       Name:                EN300-67628_i001
#       Creating user name   fsindt
#       Creation time:       Mon Feb 27 21:55:00 2023


#       File generated by GOLD software.
#

@<TRIPOS>MOLECULE
EN300-67628_i001|amine_3|mol2|937|dock18
    38    39     1
SMALL
USER_CHARGES


@<TRIPOS>ATOM
      1 C1          -0.7006  -9.3895  10.8001 C.3            1 <1>                0.0000
      2 C2          -1.6093 -10.3987  10.0954 C.3            1 <1>                0.0000
      3 C3          -2.2802 -11.2956  11.1378 C.3            1 <1>                0.0000
      4 C4          -2.6813  -9.6512   9.2999 C.3            1 <1>                0.0000
      5 O5          -0.8176 -11.2150   9.1925 O.3            1 <1>                0.0000
      6 C6           0.0580 -12.0715   9.7515 C.2            1 <1>                0.0000
      7 O7           0.4416 -11.8912  10.8903 O.2            1 <1>                0.0000
      8 N8           0.5089 -13.1290   9.0480 N.am           1 <1>                0.0000
      9 C9           0.0396 -13.3373   7.6749 C.3            1 <1>                0.0000
     10 C10         -0.7832 -14.6076   7.5618 C.3            1 <1>                0.0000
     11 N11          0.0352 -15.7680   7.9478 N.pl3          1 <1>                0.0000
     12 C12          0.0924 -16.1149   9.2947 C.ar           1 <1>                0.0000
     13 C13         -0.4737 -17.2976   9.7508 C.ar           1 <1>                0.0000
     14 C14         -0.4523 -17.5940  11.1001 C.ar           1 <1>                0.0000
     15 C15          0.1263 -16.7168  11.9988 C.ar           1 <1>                0.0000
     16 C16          0.7114 -15.5457  11.5464 C.ar           1 <1>                0.0000
     17 C17          0.7148 -15.2609  10.2008 C.ar           1 <1>                0.0000
     18 C18          1.4648 -14.0504   9.6629 C.3            1 <1>                0.0000
     19 H19          0.0631  -9.9221  11.3668 H              1 <1>                0.0000
     20 H20         -0.2225  -8.7507  10.0575 H              1 <1>                0.0000
     21 H21         -1.2949  -8.7768  11.4780 H              1 <1>                0.0000
     22 H22         -2.8746 -10.6828  11.8156 H              1 <1>                0.0000
     23 H23         -2.9277 -12.0145  10.6358 H              1 <1>                0.0000
     24 H24         -1.5165 -11.8281  11.7045 H              1 <1>                0.0000
     25 H25         -2.2033  -9.0124   8.5574 H              1 <1>                0.0000
     26 H26         -3.3287 -10.3702   8.7979 H              1 <1>                0.0000
     27 H27         -3.2757  -9.0385   9.9777 H              1 <1>                0.0000
     28 H28         -0.5726 -12.4872   7.3739 H              1 <1>                0.0000
     29 H29          0.9006 -13.4092   7.0103 H              1 <1>                0.0000
     30 H30         -1.6482 -14.5388   8.2215 H              1 <1>                0.0000
     31 H31         -1.1222 -14.7294   6.5331 H              1 <1>                0.0000
     32 H32         -0.9300 -17.9838   9.0528 H              1 <1>                0.0000
     33 H33         -0.8900 -18.5154  11.4546 H              1 <1>                0.0000
     34 H34          0.1222 -16.9452  13.0543 H              1 <1>                0.0000
     35 H35          1.1630 -14.8591  12.2473 H              1 <1>                0.0000
     36 H36          2.1917 -14.3745   8.9182 H              1 <1>                0.0000
     37 H37          1.9814 -13.5494  10.4816 H              1 <1>                0.0000
     38 H38          0.5216 -16.2779   7.2813 H              1 <1>                0.0000
@<TRIPOS>BOND
    1    1    2 1     
    2    1   19 1     
    3    1   20 1     
    4    1   21 1     
    5    2    3 1     
    6    2    4 1     
    7    2    5 1     
    8    3   22 1     
    9    3   23 1     
   10    3   24 1     
   11    4   25 1     
   12    4   26 1     
   13    4   27 1     
   14    5    6 1     
   15    6    7 2     
   16    6    8 am    
   17    8    9 1     
   18    8   18 1     
   19    9   10 1     
   20    9   28 1     
   21    9   29 1     
   22   10   11 1     
   23   10   30 1     
   24   10   31 1     
   25   11   12 1     
   26   11   38 1     
   27   12   13 ar    
   28   12   17 ar    
   29   13   14 ar    
   30   13   32 1     
   31   14   15 ar    
   32   14   33 1     
   33   15   16 ar    
   34   15   34 1     
   35   16   17 ar    
   36   16   35 1     
   37   17   18 1     
   38   18   36 1     
   39   18   37 1     
@<TRIPOS>SUBSTRUCTURE
      1 ****           1
@<TRIPOS>SET
DONOR_HYDROGENS      STATIC     ATOMS    <user>   **** ""
1 38
ATOM$RED        STATIC     ATOMS    COLORGROUP SYSTEM
1 38
@<TRIPOS>COMMENT
> <Gold.Version>
2022.2.0

> <Gold.Id.Protein>
3pbl|protein|mol2

> <Gold.Protein.RotatedTorsions>
[ 1303 1298 1297 1294 ] final   84.08 input  179.99 | X-H torsion
[ 2461 2456 2455 2452 ] final  121.45 input   30.03 | X-H torsion
[ 2515 2510 2509 2506 ] final   16.90 input  -89.99 | X-H torsion
[ 3721 3712 3711 3710 ] final  -37.89 input -179.91 | X-H torsion
[ 3841 3832 3831 3830 ] final   16.98 input -179.91 | X-H torsion
[ 3767 3762 3761 3758 ] final  -36.60 input  -89.99 | X-H torsion
[ 2472 2467 2466 2463 ] final -143.45 input  -89.97 | X-H torsion

> <Gold.Protein.ActiveResidues>
 VAL82   VAL86   LEU89   PHE106  VAL107  ASP110  VAL111  MET112  CYS114  THR115 
 CYS181  SER182  ILE183  PHE188  VAL189  ILE190  SER192  SER193  SER196  TRP342 
 PHE345  PHE346  HIS349  VAL350  TYR365  THR369  GLY372  TYR373 

> <Gold.Protein.RotatedAtoms>
    4.3374  -10.1679    4.8230 H   0  0  0  0  0  0  0  0  0  0  0  0  # atno 1303 bound_to 1298
    2.1141   -8.6631    8.0794 H   0  0  0  0  0  0  0  0  0  0  0  0  # atno 2461 bound_to 2456
   -4.8794   -5.4636    9.3735 H   0  0  0  0  0  0  0  0  0  0  0  0  # atno 2472 bound_to 2467
    2.4233   -7.4853    4.8134 H   0  0  0  0  0  0  0  0  0  0  0  0  # atno 2515 bound_to 2510
   -2.6489  -17.6100   14.6545 H   0  0  0  0  0  0  0  0  0  0  0  0  # atno 3721 bound_to 3712
   -5.5097  -22.2784   10.4990 H   0  0  0  0  0  0  0  0  0  0  0  0  # atno 3767 bound_to 3762
    1.9080  -20.6680    9.6148 H   0  0  0  0  0  0  0  0  0  0  0  0  # atno 3841 bound_to 3832
    3.3533   -9.3397    3.8171 LP  0  0  0  0  0  0  0  0  0  0  0  0  # atno 4297 bound_to 1298
    4.6713   -8.6134    4.4512 LP  0  0  0  0  0  0  0  0  0  0  0  0  # atno 4298 bound_to 1298
    1.0637   -7.9809    7.0312 LP  0  0  0  0  0  0  0  0  0  0  0  0  # atno 4299 bound_to 2456
    0.5602   -9.1642    8.0376 LP  0  0  0  0  0  0  0  0  0  0  0  0  # atno 4300 bound_to 2456
    2.7862   -9.0765    4.7658 LP  0  0  0  0  0  0  0  0  0  0  0  0  # atno 4301 bound_to 2510
    2.0872   -8.4377    6.0963 LP  0  0  0  0  0  0  0  0  0  0  0  0  # atno 4302 bound_to 2510
   -3.5660  -16.5594   13.8588 LP  0  0  0  0  0  0  0  0  0  0  0  0  # atno 4306 bound_to 3712
   -2.9034  -17.8359   13.0854 LP  0  0  0  0  0  0  0  0  0  0  0  0  # atno 4307 bound_to 3712
    1.8978  -19.6362    8.3855 LP  0  0  0  0  0  0  0  0  0  0  0  0  # atno 4314 bound_to 3832
    3.1275  -20.6944    8.5716 LP  0  0  0  0  0  0  0  0  0  0  0  0  # atno 4315 bound_to 3832
   -4.3506  -22.2609   11.6493 LP  0  0  0  0  0  0  0  0  0  0  0  0  # atno 4318 bound_to 3762
   -4.2674  -23.3356   10.4227 LP  0  0  0  0  0  0  0  0  0  0  0  0  # atno 4319 bound_to 3762
   -5.1861   -4.9491    7.8544 LP  0  0  0  0  0  0  0  0  0  0  0  0  # atno 4320 bound_to 2467
   -3.6514   -4.9810    8.4114 LP  0  0  0  0  0  0  0  0  0  0  0  0  # atno 4321 bound_to 2467

> <Gold.Score>
     Score     S(PLP)   S(hbond)     S(cho)   S(metal)  DE(clash)   DE(tors)     intcor
     40.87     -41.17       0.00       0.00       0.00       0.00       0.35       0.39

> <Gold.PLP.Fitness>
40.8683

> <Gold.PLP.PLP>
-41.1718

> <Gold.PLP.part.hbond>
0.0000

> <Gold.PLP.part.metal>
0.0000

> <Gold.PLP.part.buried>
4.2170

> <Gold.PLP.part.nonpolar>
-47.6100

> <Gold.PLP.part.repulsive>
0.0000

> <Gold.PLP.ligand.clash>
0.0000

> <Gold.PLP.ligand.torsion>
0.3492

> <Gold.PLP.Chemscore.Hbond>
0.0000

> <Gold.PLP.Chemscore.CHOScore>
0.0000

> <Gold.PLP.Chemscore.Metal>
0.0000

> <Gold.PLP.Chemscore.Internal.Correction>
0.3948

