#       Name:                EN300-67628_i001
#       Creating user name   fsindt
#       Creation time:       Mon Feb 27 21:54:55 2023


#       File generated by GOLD software.
#

@<TRIPOS>MOLECULE
EN300-67628_i001|amine_3|mol2|937|dock11
    38    39     1
SMALL
USER_CHARGES


@<TRIPOS>ATOM
      1 C1           1.0391 -17.7859  12.8209 C.3            1 <1>                0.0000
      2 C2           2.1498 -16.7376  12.9104 C.3            1 <1>                0.0000
      3 C3           2.1470 -16.1093  14.3055 C.3            1 <1>                0.0000
      4 C4           3.5027 -17.4047  12.6542 C.3            1 <1>                0.0000
      5 O5           1.9227 -15.7055  11.9145 O.3            1 <1>                0.0000
      6 C6           0.6943 -15.1560  11.8730 C.2            1 <1>                0.0000
      7 O7           0.0286 -15.0787  12.8866 O.2            1 <1>                0.0000
      8 N8           0.2030 -14.6914  10.7070 N.am           1 <1>                0.0000
      9 C9           1.0144 -14.7894   9.4901 C.3            1 <1>                0.0000
     10 C10          1.3989 -13.4151   8.9736 C.3            1 <1>                0.0000
     11 N11          0.1863 -12.6445   8.6554 N.pl3          1 <1>                0.0000
     12 C12         -0.4180 -11.9162   9.6763 C.ar           1 <1>                0.0000
     13 C13         -0.4249 -10.5281   9.6537 C.ar           1 <1>                0.0000
     14 C14         -0.9826  -9.8267  10.7053 C.ar           1 <1>                0.0000
     15 C15         -1.5300 -10.5000  11.7818 C.ar           1 <1>                0.0000
     16 C16         -1.5448 -11.8849  11.7991 C.ar           1 <1>                0.0000
     17 C17         -1.0140 -12.5857  10.7413 C.ar           1 <1>                0.0000
     18 C18         -1.1355 -14.1014  10.6719 C.3            1 <1>                0.0000
     19 H19          0.0754 -17.3107  13.0035 H              1 <1>                0.0000
     20 H20          1.0410 -18.2334  11.8270 H              1 <1>                0.0000
     21 H21          1.2096 -18.5606  13.5686 H              1 <1>                0.0000
     22 H22          2.3176 -16.8840  15.0531 H              1 <1>                0.0000
     23 H23          2.9384 -15.3625  14.3692 H              1 <1>                0.0000
     24 H24          1.1833 -15.6341  14.4880 H              1 <1>                0.0000
     25 H25          3.5046 -17.8521  11.6603 H              1 <1>                0.0000
     26 H26          4.2939 -16.6577  12.7179 H              1 <1>                0.0000
     27 H27          3.6732 -18.1793  13.4017 H              1 <1>                0.0000
     28 H28          1.9201 -15.3549   9.7093 H              1 <1>                0.0000
     29 H29          0.4447 -15.3130   8.7223 H              1 <1>                0.0000
     30 H30          1.9728 -12.8889   9.7363 H              1 <1>                0.0000
     31 H31          2.0060 -13.5226   8.0748 H              1 <1>                0.0000
     32 H32          0.0049  -9.9982   8.8167 H              1 <1>                0.0000
     33 H33         -0.9907  -8.7469  10.6865 H              1 <1>                0.0000
     34 H34         -1.9466  -9.9456  12.6097 H              1 <1>                0.0000
     35 H35         -1.9713 -12.4123  12.6397 H              1 <1>                0.0000
     36 H36         -1.6358 -14.3839   9.7456 H              1 <1>                0.0000
     37 H37         -1.7158 -14.4590  11.5225 H              1 <1>                0.0000
     38 H38         -0.1820 -12.6439   7.7581 H              1 <1>                0.0000
@<TRIPOS>BOND
    1    1    2 1     
    2    1   19 1     
    3    1   20 1     
    4    1   21 1     
    5    2    3 1     
    6    2    4 1     
    7    2    5 1     
    8    3   22 1     
    9    3   23 1     
   10    3   24 1     
   11    4   25 1     
   12    4   26 1     
   13    4   27 1     
   14    5    6 1     
   15    6    7 2     
   16    6    8 am    
   17    8    9 1     
   18    8   18 1     
   19    9   10 1     
   20    9   28 1     
   21    9   29 1     
   22   10   11 1     
   23   10   30 1     
   24   10   31 1     
   25   11   12 1     
   26   11   38 1     
   27   12   13 ar    
   28   12   17 ar    
   29   13   14 ar    
   30   13   32 1     
   31   14   15 ar    
   32   14   33 1     
   33   15   16 ar    
   34   15   34 1     
   35   16   17 ar    
   36   16   35 1     
   37   17   18 1     
   38   18   36 1     
   39   18   37 1     
@<TRIPOS>SUBSTRUCTURE
      1 ****           1
@<TRIPOS>SET
DONOR_HYDROGENS      STATIC     ATOMS    <user>   **** ""
1 38
ATOM$RED        STATIC     ATOMS    COLORGROUP SYSTEM
1 38
@<TRIPOS>COMMENT
> <Gold.Version>
2022.2.0

> <Gold.Id.Protein>
3pbl|protein|mol2

> <Gold.Protein.RotatedTorsions>
[ 1303 1298 1297 1294 ] final   12.88 input  179.99 | X-H torsion
[ 2461 2456 2455 2452 ] final   71.12 input   30.03 | X-H torsion
[ 2515 2510 2509 2506 ] final  104.51 input  -89.99 | X-H torsion
[ 3721 3712 3711 3710 ] final -124.55 input -179.91 | X-H torsion
[ 3841 3832 3831 3830 ] final  148.60 input -179.91 | X-H torsion
[ 3767 3762 3761 3758 ] final  108.01 input  -89.99 | X-H torsion
[ 2472 2467 2466 2463 ] final -154.09 input  -89.97 | X-H torsion

> <Gold.Protein.ActiveResidues>
 VAL82   VAL86   LEU89   PHE106  VAL107  ASP110  VAL111  MET112  CYS114  THR115 
 CYS181  SER182  ILE183  PHE188  VAL189  ILE190  SER192  SER193  SER196  TRP342 
 PHE345  PHE346  HIS349  VAL350  TYR365  THR369  GLY372  TYR373 

> <Gold.Protein.RotatedAtoms>
    3.4702  -10.0264    4.1655 H   0  0  0  0  0  0  0  0  0  0  0  0  # atno 1303 bound_to 1298
    2.0239   -8.1152    7.5006 H   0  0  0  0  0  0  0  0  0  0  0  0  # atno 2461 bound_to 2456
   -5.0377   -5.4545    9.2999 H   0  0  0  0  0  0  0  0  0  0  0  0  # atno 2472 bound_to 2467
    2.0289   -7.9294    5.9752 H   0  0  0  0  0  0  0  0  0  0  0  0  # atno 2515 bound_to 2510
   -3.2404  -16.6252   14.3483 H   0  0  0  0  0  0  0  0  0  0  0  0  # atno 3721 bound_to 3712
   -4.0282  -23.2664   10.7381 H   0  0  0  0  0  0  0  0  0  0  0  0  # atno 3767 bound_to 3762
    3.1263  -20.4224    8.6405 H   0  0  0  0  0  0  0  0  0  0  0  0  # atno 3841 bound_to 3832
    4.0560   -8.5130    3.9846 LP  0  0  0  0  0  0  0  0  0  0  0  0  # atno 4297 bound_to 1298
    4.8363   -9.5816    4.9416 LP  0  0  0  0  0  0  0  0  0  0  0  0  # atno 4298 bound_to 1298
    0.4391   -8.4285    7.2604 LP  0  0  0  0  0  0  0  0  0  0  0  0  # atno 4299 bound_to 2456
    1.2749   -9.2643    8.3871 LP  0  0  0  0  0  0  0  0  0  0  0  0  # atno 4300 bound_to 2456
    2.6407   -7.8145    4.4658 LP  0  0  0  0  0  0  0  0  0  0  0  0  # atno 4301 bound_to 2510
    2.6273   -9.2554    5.2340 LP  0  0  0  0  0  0  0  0  0  0  0  0  # atno 4302 bound_to 2510
   -3.1529  -17.4204   12.9562 LP  0  0  0  0  0  0  0  0  0  0  0  0  # atno 4306 bound_to 3712
   -2.6337  -18.1117   14.3415 LP  0  0  0  0  0  0  0  0  0  0  0  0  # atno 4307 bound_to 3712
    1.9075  -20.9404    9.5472 LP  0  0  0  0  0  0  0  0  0  0  0  0  # atno 4314 bound_to 3832
    1.7104  -19.6739    8.5353 LP  0  0  0  0  0  0  0  0  0  0  0  0  # atno 4315 bound_to 3832
   -5.4172  -22.5688   10.2371 LP  0  0  0  0  0  0  0  0  0  0  0  0  # atno 4318 bound_to 3762
   -4.6817  -22.0400   11.5958 LP  0  0  0  0  0  0  0  0  0  0  0  0  # atno 4319 bound_to 3762
   -5.0447   -4.9008    7.7637 LP  0  0  0  0  0  0  0  0  0  0  0  0  # atno 4320 bound_to 2467
   -3.6346   -5.0383    8.5756 LP  0  0  0  0  0  0  0  0  0  0  0  0  # atno 4321 bound_to 2467

> <Gold.Score>
     Score     S(PLP)   S(hbond)     S(cho)   S(metal)  DE(clash)   DE(tors)     intcor
     40.38     -40.88       0.00       0.00       0.00       0.00       0.44       0.39

> <Gold.PLP.Fitness>
40.3819

> <Gold.PLP.PLP>
-40.8764

> <Gold.PLP.part.hbond>
0.0000

> <Gold.PLP.part.metal>
0.0000

> <Gold.PLP.part.buried>
-1.0431

> <Gold.PLP.part.nonpolar>
-41.6980

> <Gold.PLP.part.repulsive>
0.8469

> <Gold.PLP.ligand.clash>
0.0000

> <Gold.PLP.ligand.torsion>
0.4446

> <Gold.PLP.Chemscore.Hbond>
0.0000

> <Gold.PLP.Chemscore.CHOScore>
0.0000

> <Gold.PLP.Chemscore.Metal>
0.0000

> <Gold.PLP.Chemscore.Internal.Correction>
0.3948

