#       Name:                EN300-67628_i001
#       Creating user name   fsindt
#       Creation time:       Mon Feb 27 21:54:52 2023


#       File generated by GOLD software.
#

@<TRIPOS>MOLECULE
EN300-67628_i001|amine_3|mol2|937|dock6
    38    39     1
SMALL
USER_CHARGES


@<TRIPOS>ATOM
      1 C1          -0.7055  -9.9036  11.1081 C.3            1 <1>                0.0000
      2 C2          -1.8043 -10.6117  10.3131 C.3            1 <1>                0.0000
      3 C3          -2.9473 -10.9970  11.2544 C.3            1 <1>                0.0000
      4 C4          -2.3329  -9.6732   9.2264 C.3            1 <1>                0.0000
      5 O5          -1.2609 -11.8087   9.6965 O.3            1 <1>                0.0000
      6 C6          -0.6011 -12.6644  10.4998 C.2            1 <1>                0.0000
      7 O7          -0.7330 -12.5903  11.7054 O.2            1 <1>                0.0000
      8 N8           0.2056 -13.6033   9.9665 N.am           1 <1>                0.0000
      9 C9           0.3576 -13.6839   8.5107 C.3            1 <1>                0.0000
     10 C10         -0.2090 -14.9840   7.9700 C.3            1 <1>                0.0000
     11 N11          0.5013 -16.1250   8.5693 N.pl3          1 <1>                0.0000
     12 C12          0.0447 -16.6185   9.7882 C.ar           1 <1>                0.0000
     13 C13         -0.5285 -17.8798   9.8767 C.ar           1 <1>                0.0000
     14 C14         -1.0239 -18.3259  11.0869 C.ar           1 <1>                0.0000
     15 C15         -0.9556 -17.5210  12.2090 C.ar           1 <1>                0.0000
     16 C16         -0.3654 -16.2703  12.1308 C.ar           1 <1>                0.0000
     17 C17          0.1523 -15.8345  10.9334 C.ar           1 <1>                0.0000
     18 C18          0.9226 -14.5243  10.8487 C.3            1 <1>                0.0000
     19 H19         -0.3290 -10.5722  11.8823 H              1 <1>                0.0000
     20 H20          0.1088  -9.6292  10.4375 H              1 <1>                0.0000
     21 H21         -1.1135  -9.0051  11.5711 H              1 <1>                0.0000
     22 H22         -3.3553 -10.0985  11.7173 H              1 <1>                0.0000
     23 H23         -3.7301 -11.5014  10.6880 H              1 <1>                0.0000
     24 H24         -2.5707 -11.6656  12.0285 H              1 <1>                0.0000
     25 H25         -1.5186  -9.3988   8.5559 H              1 <1>                0.0000
     26 H26         -3.1157 -10.1777   8.6600 H              1 <1>                0.0000
     27 H27         -2.7409  -8.7747   9.6893 H              1 <1>                0.0000
     28 H28         -0.1668 -12.8468   8.0499 H              1 <1>                0.0000
     29 H29          1.4163 -13.6234   8.2583 H              1 <1>                0.0000
     30 H30         -1.2689 -15.0473   8.2161 H              1 <1>                0.0000
     31 H31         -0.0873 -15.0097   6.8872 H              1 <1>                0.0000
     32 H32         -0.5873 -18.5104   9.0020 H              1 <1>                0.0000
     33 H33         -1.4672 -19.3083  11.1566 H              1 <1>                0.0000
     34 H34         -1.3624 -17.8678  13.1473 H              1 <1>                0.0000
     35 H35         -0.3120 -15.6401  13.0062 H              1 <1>                0.0000
     36 H36          1.9188 -14.7135  10.4487 H              1 <1>                0.0000
     37 H37          1.0071 -14.0873  11.8437 H              1 <1>                0.0000
     38 H38          1.2671 -16.5229   8.1265 H              1 <1>                0.0000
@<TRIPOS>BOND
    1    1    2 1     
    2    1   19 1     
    3    1   20 1     
    4    1   21 1     
    5    2    3 1     
    6    2    4 1     
    7    2    5 1     
    8    3   22 1     
    9    3   23 1     
   10    3   24 1     
   11    4   25 1     
   12    4   26 1     
   13    4   27 1     
   14    5    6 1     
   15    6    7 2     
   16    6    8 am    
   17    8    9 1     
   18    8   18 1     
   19    9   10 1     
   20    9   28 1     
   21    9   29 1     
   22   10   11 1     
   23   10   30 1     
   24   10   31 1     
   25   11   12 1     
   26   11   38 1     
   27   12   13 ar    
   28   12   17 ar    
   29   13   14 ar    
   30   13   32 1     
   31   14   15 ar    
   32   14   33 1     
   33   15   16 ar    
   34   15   34 1     
   35   16   17 ar    
   36   16   35 1     
   37   17   18 1     
   38   18   36 1     
   39   18   37 1     
@<TRIPOS>SUBSTRUCTURE
      1 ****           1
@<TRIPOS>SET
DONOR_HYDROGENS      STATIC     ATOMS    <user>   **** ""
1 38
ATOM$RED        STATIC     ATOMS    COLORGROUP SYSTEM
1 38
@<TRIPOS>COMMENT
> <Gold.Version>
2022.2.0

> <Gold.Id.Protein>
3pbl|protein|mol2

> <Gold.Protein.RotatedTorsions>
[ 1303 1298 1297 1294 ] final  -31.25 input  179.99 | X-H torsion
[ 2461 2456 2455 2452 ] final   59.12 input   30.03 | X-H torsion
[ 2515 2510 2509 2506 ] final -101.54 input  -89.99 | X-H torsion
[ 3721 3712 3711 3710 ] final -132.82 input -179.91 | X-H torsion
[ 3841 3832 3831 3830 ] final  -18.16 input -179.91 | X-H torsion
[ 3767 3762 3761 3758 ] final  -52.91 input  -89.99 | X-H torsion
[ 2472 2467 2466 2463 ] final  -52.96 input  -89.97 | X-H torsion

> <Gold.Protein.ActiveResidues>
 VAL82   VAL86   LEU89   PHE106  VAL107  ASP110  VAL111  MET112  CYS114  THR115 
 CYS181  SER182  ILE183  PHE188  VAL189  ILE190  SER192  SER193  SER196  TRP342 
 PHE345  PHE346  HIS349  VAL350  TYR365  THR369  GLY372  TYR373 

> <Gold.Protein.RotatedAtoms>
    3.3401   -9.4127    3.8369 H   0  0  0  0  0  0  0  0  0  0  0  0  # atno 1303 bound_to 1298
    1.9066   -8.0255    7.3701 H   0  0  0  0  0  0  0  0  0  0  0  0  # atno 2461 bound_to 2456
   -3.6836   -5.1472    8.8607 H   0  0  0  0  0  0  0  0  0  0  0  0  # atno 2472 bound_to 2467
    2.7914   -9.0609    4.7461 H   0  0  0  0  0  0  0  0  0  0  0  0  # atno 2515 bound_to 2510
   -3.2765  -16.5793   14.2379 H   0  0  0  0  0  0  0  0  0  0  0  0  # atno 3721 bound_to 3712
   -5.4909  -22.1181   10.7123 H   0  0  0  0  0  0  0  0  0  0  0  0  # atno 3767 bound_to 3762
    1.6129  -20.2723    9.4432 H   0  0  0  0  0  0  0  0  0  0  0  0  # atno 3841 bound_to 3832
    4.6234   -8.5771    4.4038 LP  0  0  0  0  0  0  0  0  0  0  0  0  # atno 4297 bound_to 1298
    4.3990  -10.1315    4.8510 LP  0  0  0  0  0  0  0  0  0  0  0  0  # atno 4298 bound_to 1298
    0.3669   -8.5702    7.3767 LP  0  0  0  0  0  0  0  0  0  0  0  0  # atno 4299 bound_to 2456
    1.4645   -9.2123    8.4013 LP  0  0  0  0  0  0  0  0  0  0  0  0  # atno 4300 bound_to 2456
    2.0930   -8.4626    6.0952 LP  0  0  0  0  0  0  0  0  0  0  0  0  # atno 4301 bound_to 2510
    2.4121   -7.4753    4.8342 LP  0  0  0  0  0  0  0  0  0  0  0  0  # atno 4302 bound_to 2510
   -3.0839  -17.5395   12.9656 LP  0  0  0  0  0  0  0  0  0  0  0  0  # atno 4306 bound_to 3712
   -2.6610  -18.0456   14.4595 LP  0  0  0  0  0  0  0  0  0  0  0  0  # atno 4307 bound_to 3712
    2.4188  -19.7442    8.1596 LP  0  0  0  0  0  0  0  0  0  0  0  0  # atno 4314 bound_to 3832
    2.9474  -21.0435    8.9957 LP  0  0  0  0  0  0  0  0  0  0  0  0  # atno 4315 bound_to 3832
   -4.1635  -22.4469   11.6050 LP  0  0  0  0  0  0  0  0  0  0  0  0  # atno 4318 bound_to 3762
   -4.4732  -23.3100   10.2537 LP  0  0  0  0  0  0  0  0  0  0  0  0  # atno 4319 bound_to 3762
   -5.2760   -5.4107    9.1080 LP  0  0  0  0  0  0  0  0  0  0  0  0  # atno 4320 bound_to 2467
   -4.7571   -4.8356    7.6705 LP  0  0  0  0  0  0  0  0  0  0  0  0  # atno 4321 bound_to 2467

> <Gold.Score>
     Score     S(PLP)   S(hbond)     S(cho)   S(metal)  DE(clash)   DE(tors)     intcor
     44.84     -44.53       0.15       0.00       0.00       0.00       0.27       0.39

> <Gold.PLP.Fitness>
44.8380

> <Gold.PLP.PLP>
-44.5338

> <Gold.PLP.part.hbond>
-1.0000

> <Gold.PLP.part.metal>
0.0000

> <Gold.PLP.part.buried>
2.1532

> <Gold.PLP.part.nonpolar>
-47.5803

> <Gold.PLP.part.repulsive>
0.0397

> <Gold.PLP.ligand.clash>
0.0000

> <Gold.PLP.ligand.torsion>
0.2707

> <Gold.PLP.Chemscore.Hbond>
0.1503

> <Gold.PLP.Chemscore.CHOScore>
0.0000

> <Gold.PLP.Chemscore.Metal>
0.0000

> <Gold.Chemscore.Hbonds>
donor molecule, donor type, donor heavy atom, donor atom, acceptor molecule, acceptor atom, score
      L1  H    11    38       P1  1227  0.15

> <Gold.PLP.Chemscore.Internal.Correction>
0.3948

