#       Name:                EN300-67628_i001
#       Creating user name   fsindt
#       Creation time:       Mon Feb 27 21:54:51 2023


#       File generated by GOLD software.
#

@<TRIPOS>MOLECULE
EN300-67628_i001|amine_3|mol2|937|dock5
    38    39     1
SMALL
USER_CHARGES


@<TRIPOS>ATOM
      1 C1          -3.3051 -22.9490  13.7520 C.3            1 <1>                0.0000
      2 C2          -1.9697 -23.6557  13.9929 C.3            1 <1>                0.0000
      3 C3          -2.1023 -24.6039  15.1863 C.3            1 <1>                0.0000
      4 C4          -1.5837 -24.4552  12.7468 C.3            1 <1>                0.0000
      5 O5          -0.9426 -22.6678  14.2716 O.3            1 <1>                0.0000
      6 C6          -0.5888 -21.8520  13.2606 C.2            1 <1>                0.0000
      7 O7          -1.2965 -21.7611  12.2771 O.2            1 <1>                0.0000
      8 N8           0.5505 -21.1361  13.3397 N.am           1 <1>                0.0000
      9 C9           1.3970 -21.2532  14.5307 C.3            1 <1>                0.0000
     10 C10          1.4458 -19.9465  15.3012 C.3            1 <1>                0.0000
     11 N11          2.0003 -18.8842  14.4470 N.pl3          1 <1>                0.0000
     12 C12          1.1280 -18.1804  13.6215 C.ar           1 <1>                0.0000
     13 C13          0.8603 -16.8371  13.8479 C.ar           1 <1>                0.0000
     14 C14         -0.0507 -16.1738  13.0485 C.ar           1 <1>                0.0000
     15 C15         -0.7001 -16.8421  12.0270 C.ar           1 <1>                0.0000
     16 C16         -0.4207 -18.1767  11.7834 C.ar           1 <1>                0.0000
     17 C17          0.5053 -18.8323  12.5609 C.ar           1 <1>                0.0000
     18 C18          0.9287 -20.2571  12.2329 C.3            1 <1>                0.0000
     19 H19         -3.5800 -22.3795  14.6398 H              1 <1>                0.0000
     20 H20         -3.2105 -22.2734  12.9019 H              1 <1>                0.0000
     21 H21         -4.0761 -23.6906  13.5429 H              1 <1>                0.0000
     22 H22         -2.8733 -25.3455  14.9771 H              1 <1>                0.0000
     23 H23         -1.1509 -25.1074  15.3579 H              1 <1>                0.0000
     24 H24         -2.3773 -24.0343  16.0741 H              1 <1>                0.0000
     25 H25         -1.4891 -23.7796  11.8966 H              1 <1>                0.0000
     26 H26         -0.6323 -24.9586  12.9184 H              1 <1>                0.0000
     27 H27         -2.3546 -25.1968  12.5376 H              1 <1>                0.0000
     28 H28          0.9976 -22.0345  15.1774 H              1 <1>                0.0000
     29 H29          2.4074 -21.5257  14.2254 H              1 <1>                0.0000
     30 H30          0.4380 -19.6719  15.6127 H              1 <1>                0.0000
     31 H31          2.0756 -20.0687  16.1823 H              1 <1>                0.0000
     32 H32          1.3625 -16.3122  14.6470 H              1 <1>                0.0000
     33 H33         -0.2568 -15.1281  13.2226 H              1 <1>                0.0000
     34 H34         -1.4256 -16.3230  11.4183 H              1 <1>                0.0000
     35 H35         -0.9278 -18.7003  10.9864 H              1 <1>                0.0000
     36 H36          2.0088 -20.2917  12.0905 H              1 <1>                0.0000
     37 H37          0.4309 -20.5833  11.3196 H              1 <1>                0.0000
     38 H38          2.9483 -18.6797  14.4592 H              1 <1>                0.0000
@<TRIPOS>BOND
    1    1    2 1     
    2    1   19 1     
    3    1   20 1     
    4    1   21 1     
    5    2    3 1     
    6    2    4 1     
    7    2    5 1     
    8    3   22 1     
    9    3   23 1     
   10    3   24 1     
   11    4   25 1     
   12    4   26 1     
   13    4   27 1     
   14    5    6 1     
   15    6    7 2     
   16    6    8 am    
   17    8    9 1     
   18    8   18 1     
   19    9   10 1     
   20    9   28 1     
   21    9   29 1     
   22   10   11 1     
   23   10   30 1     
   24   10   31 1     
   25   11   12 1     
   26   11   38 1     
   27   12   13 ar    
   28   12   17 ar    
   29   13   14 ar    
   30   13   32 1     
   31   14   15 ar    
   32   14   33 1     
   33   15   16 ar    
   34   15   34 1     
   35   16   17 ar    
   36   16   35 1     
   37   17   18 1     
   38   18   36 1     
   39   18   37 1     
@<TRIPOS>SUBSTRUCTURE
      1 ****           1
@<TRIPOS>SET
DONOR_HYDROGENS      STATIC     ATOMS    <user>   **** ""
1 38
ATOM$RED        STATIC     ATOMS    COLORGROUP SYSTEM
1 38
@<TRIPOS>COMMENT
> <Gold.Version>
2022.2.0

> <Gold.Id.Protein>
3pbl|protein|mol2

> <Gold.Protein.RotatedTorsions>
[ 1303 1298 1297 1294 ] final   60.16 input  179.99 | X-H torsion
[ 2461 2456 2455 2452 ] final   51.19 input   30.03 | X-H torsion
[ 2515 2510 2509 2506 ] final   70.02 input  -89.99 | X-H torsion
[ 3721 3712 3711 3710 ] final  -44.83 input -179.91 | X-H torsion
[ 3841 3832 3831 3830 ] final  107.75 input -179.91 | X-H torsion
[ 3767 3762 3761 3758 ] final  -69.45 input  -89.99 | X-H torsion
[ 2472 2467 2466 2463 ] final -171.80 input  -89.97 | X-H torsion

> <Gold.Protein.ActiveResidues>
 VAL82   VAL86   LEU89   PHE106  VAL107  ASP110  VAL111  MET112  CYS114  THR115 
 CYS181  SER182  ILE183  PHE188  VAL189  ILE190  SER192  SER193  SER196  TRP342 
 PHE345  PHE346  HIS349  VAL350  TYR365  THR369  GLY372  TYR373 

> <Gold.Protein.RotatedAtoms>
    4.0103  -10.2697    4.6352 H   0  0  0  0  0  0  0  0  0  0  0  0  # atno 1303 bound_to 1298
    1.8128   -7.9798    7.2917 H   0  0  0  0  0  0  0  0  0  0  0  0  # atno 2461 bound_to 2456
   -5.2633   -5.4150    9.1215 H   0  0  0  0  0  0  0  0  0  0  0  0  # atno 2472 bound_to 2467
    2.1042   -7.5294    5.5922 H   0  0  0  0  0  0  0  0  0  0  0  0  # atno 2515 bound_to 2510
   -2.6933  -17.5257   14.6985 H   0  0  0  0  0  0  0  0  0  0  0  0  # atno 3721 bound_to 3712
   -5.4077  -21.9971   10.9404 H   0  0  0  0  0  0  0  0  0  0  0  0  # atno 3767 bound_to 3762
    3.0049  -20.8240    9.0752 H   0  0  0  0  0  0  0  0  0  0  0  0  # atno 3841 bound_to 3832
    3.4974   -8.9786    3.7771 LP  0  0  0  0  0  0  0  0  0  0  0  0  # atno 4297 bound_to 1298
    4.8545   -8.8727    4.6791 LP  0  0  0  0  0  0  0  0  0  0  0  0  # atno 4298 bound_to 1298
    0.3401   -8.6650    7.4621 LP  0  0  0  0  0  0  0  0  0  0  0  0  # atno 4299 bound_to 2456
    1.5850   -9.1631    8.3942 LP  0  0  0  0  0  0  0  0  0  0  0  0  # atno 4300 bound_to 2456
    2.7998   -8.3392    4.3569 LP  0  0  0  0  0  0  0  0  0  0  0  0  # atno 4301 bound_to 2510
    2.3929   -9.1309    5.7260 LP  0  0  0  0  0  0  0  0  0  0  0  0  # atno 4302 bound_to 2510
   -3.5671  -16.5754   13.7440 LP  0  0  0  0  0  0  0  0  0  0  0  0  # atno 4306 bound_to 3712
   -2.8511  -17.9172   13.1494 LP  0  0  0  0  0  0  0  0  0  0  0  0  # atno 4307 bound_to 3712
    1.4730  -20.4592    9.3855 LP  0  0  0  0  0  0  0  0  0  0  0  0  # atno 4314 bound_to 3832
    2.2851  -19.6912    8.1950 LP  0  0  0  0  0  0  0  0  0  0  0  0  # atno 4315 bound_to 3832
   -4.0188  -22.6500   11.4986 LP  0  0  0  0  0  0  0  0  0  0  0  0  # atno 4318 bound_to 3762
   -4.7011  -23.2277   10.1321 LP  0  0  0  0  0  0  0  0  0  0  0  0  # atno 4319 bound_to 3762
   -4.7759   -4.8387    7.6735 LP  0  0  0  0  0  0  0  0  0  0  0  0  # atno 4320 bound_to 2467
   -3.6778   -5.1398    8.8441 LP  0  0  0  0  0  0  0  0  0  0  0  0  # atno 4321 bound_to 2467

> <Gold.Score>
     Score     S(PLP)   S(hbond)     S(cho)   S(metal)  DE(clash)   DE(tors)     intcor
     38.41     -38.51       0.00       0.00       0.00       0.01       0.24       0.39

> <Gold.PLP.Fitness>
38.4072

> <Gold.PLP.PLP>
-38.5085

> <Gold.PLP.part.hbond>
0.0000

> <Gold.PLP.part.metal>
0.0000

> <Gold.PLP.part.buried>
-3.9389

> <Gold.PLP.part.nonpolar>
-34.8428

> <Gold.PLP.part.repulsive>
0.0000

> <Gold.PLP.ligand.clash>
0.0094

> <Gold.PLP.ligand.torsion>
0.2434

> <Gold.PLP.Chemscore.Hbond>
0.0000

> <Gold.PLP.Chemscore.CHOScore>
0.0000

> <Gold.PLP.Chemscore.Metal>
0.0000

> <Gold.PLP.Chemscore.Internal.Correction>
0.3948

