#       Name:                EN300-67628_i001
#       Creating user name   fsindt
#       Creation time:       Mon Feb 27 21:54:56 2023


#       File generated by GOLD software.
#

@<TRIPOS>MOLECULE
EN300-67628_i001|amine_3|mol2|937|dock13
    38    39     1
SMALL
USER_CHARGES


@<TRIPOS>ATOM
      1 C1          -2.4975 -24.3281  12.5980 C.3            1 <1>                0.0000
      2 C2          -2.1858 -23.5776  13.8943 C.3            1 <1>                0.0000
      3 C3          -3.2630 -22.5198  14.1429 C.3            1 <1>                0.0000
      4 C4          -2.1619 -24.5654  15.0624 C.3            1 <1>                0.0000
      5 O5          -0.8905 -22.9315  13.7801 O.3            1 <1>                0.0000
      6 C6          -0.5438 -22.0790  14.7628 C.2            1 <1>                0.0000
      7 O7          -1.0874 -22.1486  15.8473 O.2            1 <1>                0.0000
      8 N8           0.4063 -21.1485  14.5437 N.am           1 <1>                0.0000
      9 C9           0.7763 -20.2252  15.6205 C.3            1 <1>                0.0000
     10 C10          0.4032 -18.7960  15.2718 C.3            1 <1>                0.0000
     11 N11          1.1086 -18.3806  14.0489 N.pl3          1 <1>                0.0000
     12 C12          0.5198 -18.6654  12.8201 C.ar           1 <1>                0.0000
     13 C13          0.0447 -17.6474  12.0044 C.ar           1 <1>                0.0000
     14 C14         -0.5849 -17.9577  10.8144 C.ar           1 <1>                0.0000
     15 C15         -0.7478 -19.2770  10.4338 C.ar           1 <1>                0.0000
     16 C16         -0.2566 -20.2956  11.2336 C.ar           1 <1>                0.0000
     17 C17          0.3939 -19.9884  12.4059 C.ar           1 <1>                0.0000
     18 C18          1.0588 -21.0773  13.2360 C.3            1 <1>                0.0000
     19 H19         -2.5146 -23.6243  11.7659 H              1 <1>                0.0000
     20 H20         -1.7301 -25.0815  12.4209 H              1 <1>                0.0000
     21 H21         -3.4700 -24.8130  12.6838 H              1 <1>                0.0000
     22 H22         -4.2354 -23.0048  14.2287 H              1 <1>                0.0000
     23 H23         -3.0410 -21.9852  15.0664 H              1 <1>                0.0000
     24 H24         -3.2801 -21.8160  13.3107 H              1 <1>                0.0000
     25 H25         -1.3944 -25.3189  14.8853 H              1 <1>                0.0000
     26 H26         -1.9397 -24.0307  15.9859 H              1 <1>                0.0000
     27 H27         -3.1342 -25.0503  15.1482 H              1 <1>                0.0000
     28 H28          0.2587 -20.5166  16.5345 H              1 <1>                0.0000
     29 H29          1.8521 -20.2831  15.7867 H              1 <1>                0.0000
     30 H30         -0.6726 -18.7319  15.1090 H              1 <1>                0.0000
     31 H31          0.6841 -18.1374  16.0935 H              1 <1>                0.0000
     32 H32          0.1665 -16.6157  12.2996 H              1 <1>                0.0000
     33 H33         -0.9519 -17.1659  10.1784 H              1 <1>                0.0000
     34 H34         -1.2583 -19.5134   9.5119 H              1 <1>                0.0000
     35 H35         -0.3839 -21.3266  10.9381 H              1 <1>                0.0000
     36 H36          2.1149 -20.8414  13.3663 H              1 <1>                0.0000
     37 H37          0.9604 -22.0352  12.7251 H              1 <1>                0.0000
     38 H38          1.9609 -17.9203  14.0978 H              1 <1>                0.0000
@<TRIPOS>BOND
    1    1    2 1     
    2    1   19 1     
    3    1   20 1     
    4    1   21 1     
    5    2    3 1     
    6    2    4 1     
    7    2    5 1     
    8    3   22 1     
    9    3   23 1     
   10    3   24 1     
   11    4   25 1     
   12    4   26 1     
   13    4   27 1     
   14    5    6 1     
   15    6    7 2     
   16    6    8 am    
   17    8    9 1     
   18    8   18 1     
   19    9   10 1     
   20    9   28 1     
   21    9   29 1     
   22   10   11 1     
   23   10   30 1     
   24   10   31 1     
   25   11   12 1     
   26   11   38 1     
   27   12   13 ar    
   28   12   17 ar    
   29   13   14 ar    
   30   13   32 1     
   31   14   15 ar    
   32   14   33 1     
   33   15   16 ar    
   34   15   34 1     
   35   16   17 ar    
   36   16   35 1     
   37   17   18 1     
   38   18   36 1     
   39   18   37 1     
@<TRIPOS>SUBSTRUCTURE
      1 ****           1
@<TRIPOS>SET
DONOR_HYDROGENS      STATIC     ATOMS    <user>   **** ""
1 38
ATOM$RED        STATIC     ATOMS    COLORGROUP SYSTEM
1 38
@<TRIPOS>COMMENT
> <Gold.Version>
2022.2.0

> <Gold.Id.Protein>
3pbl|protein|mol2

> <Gold.Protein.RotatedTorsions>
[ 1303 1298 1297 1294 ] final  155.00 input  179.99 | X-H torsion
[ 2461 2456 2455 2452 ] final   79.03 input   30.03 | X-H torsion
[ 2515 2510 2509 2506 ] final  -48.11 input  -89.99 | X-H torsion
[ 3721 3712 3711 3710 ] final  123.66 input -179.91 | X-H torsion
[ 3841 3832 3831 3830 ] final   32.06 input -179.91 | X-H torsion
[ 3767 3762 3761 3758 ] final   43.68 input  -89.99 | X-H torsion
[ 2472 2467 2466 2463 ] final  -13.93 input  -89.97 | X-H torsion

> <Gold.Protein.ActiveResidues>
 VAL82   VAL86   LEU89   PHE106  VAL107  ASP110  VAL111  MET112  CYS114  THR115 
 CYS181  SER182  ILE183  PHE188  VAL189  ILE190  SER192  SER193  SER196  TRP342 
 PHE345  PHE346  HIS349  VAL350  TYR365  THR369  GLY372  TYR373 

> <Gold.Protein.RotatedAtoms>
    4.9104   -9.2372    4.8601 H   0  0  0  0  0  0  0  0  0  0  0  0  # atno 1303 bound_to 1298
    2.0830   -8.1863    7.5922 H   0  0  0  0  0  0  0  0  0  0  0  0  # atno 2461 bound_to 2456
   -3.6933   -4.9346    8.2679 H   0  0  0  0  0  0  0  0  0  0  0  0  # atno 2472 bound_to 2467
    2.7941   -8.3090    4.3552 H   0  0  0  0  0  0  0  0  0  0  0  0  # atno 2515 bound_to 2510
   -3.0354  -17.1854   13.0438 H   0  0  0  0  0  0  0  0  0  0  0  0  # atno 3721 bound_to 3712
   -4.7968  -23.1779   10.0982 H   0  0  0  0  0  0  0  0  0  0  0  0  # atno 3767 bound_to 3762
    2.0927  -20.8002    9.6188 H   0  0  0  0  0  0  0  0  0  0  0  0  # atno 3841 bound_to 3832
    3.6877  -10.2110    4.3876 LP  0  0  0  0  0  0  0  0  0  0  0  0  # atno 4297 bound_to 1298
    3.7637   -8.6731    3.8437 LP  0  0  0  0  0  0  0  0  0  0  0  0  # atno 4298 bound_to 1298
    0.5063   -8.3389    7.1943 LP  0  0  0  0  0  0  0  0  0  0  0  0  # atno 4299 bound_to 2456
    1.1487   -9.2829    8.3616 LP  0  0  0  0  0  0  0  0  0  0  0  0  # atno 4300 bound_to 2456
    2.4060   -9.1457    5.7025 LP  0  0  0  0  0  0  0  0  0  0  0  0  # atno 4301 bound_to 2510
    2.0964   -7.5445    5.6180 LP  0  0  0  0  0  0  0  0  0  0  0  0  # atno 4302 bound_to 2510
   -2.6211  -18.1460   14.2618 LP  0  0  0  0  0  0  0  0  0  0  0  0  # atno 4306 bound_to 3712
   -3.4021  -16.7395   14.5420 LP  0  0  0  0  0  0  0  0  0  0  0  0  # atno 4307 bound_to 3712
    1.7045  -19.6761    8.5409 LP  0  0  0  0  0  0  0  0  0  0  0  0  # atno 4314 bound_to 3832
    3.1074  -20.5018    8.4115 LP  0  0  0  0  0  0  0  0  0  0  0  0  # atno 4315 bound_to 3832
   -5.3558  -21.9624   11.0346 LP  0  0  0  0  0  0  0  0  0  0  0  0  # atno 4318 bound_to 3762
   -3.9748  -22.7350   11.4380 LP  0  0  0  0  0  0  0  0  0  0  0  0  # atno 4319 bound_to 3762
   -4.7286   -5.4613    9.4155 LP  0  0  0  0  0  0  0  0  0  0  0  0  # atno 4320 bound_to 2467
   -5.2948   -4.9975    7.9557 LP  0  0  0  0  0  0  0  0  0  0  0  0  # atno 4321 bound_to 2467

> <Gold.Score>
     Score     S(PLP)   S(hbond)     S(cho)   S(metal)  DE(clash)   DE(tors)     intcor
     35.05     -35.35       0.00       0.00       0.00       0.00       0.35       0.39

> <Gold.PLP.Fitness>
35.0472

> <Gold.PLP.PLP>
-35.3533

> <Gold.PLP.part.hbond>
0.0000

> <Gold.PLP.part.metal>
0.0000

> <Gold.PLP.part.buried>
-4.6247

> <Gold.PLP.part.nonpolar>
-30.5685

> <Gold.PLP.part.repulsive>
0.0000

> <Gold.PLP.ligand.clash>
0.0000

> <Gold.PLP.ligand.torsion>
0.3504

> <Gold.PLP.Chemscore.Hbond>
0.0000

> <Gold.PLP.Chemscore.CHOScore>
0.0000

> <Gold.PLP.Chemscore.Metal>
0.0000

> <Gold.PLP.Chemscore.Internal.Correction>
0.3948

