#       Name:                EN300-67628_i001
#       Creating user name   fsindt
#       Creation time:       Mon Feb 27 21:54:56 2023


#       File generated by GOLD software.
#

@<TRIPOS>MOLECULE
EN300-67628_i001|amine_3|mol2|937|dock12
    38    39     1
SMALL
USER_CHARGES


@<TRIPOS>ATOM
      1 C1           0.4333 -16.5126  13.4174 C.3            1 <1>                0.0000
      2 C2           0.9153 -17.7514  14.1749 C.3            1 <1>                0.0000
      3 C3           2.2976 -17.4788  14.7714 C.3            1 <1>                0.0000
      4 C4          -0.0701 -18.0772  15.2991 C.3            1 <1>                0.0000
      5 O5           0.9961 -18.8768  13.2609 O.3            1 <1>                0.0000
      6 C6           1.2663 -20.0817  13.7973 C.2            1 <1>                0.0000
      7 O7           1.6981 -20.1594  14.9304 O.2            1 <1>                0.0000
      8 N8           1.0576 -21.2019  13.0773 N.am           1 <1>                0.0000
      9 C9           0.5363 -21.0970  11.7113 C.3            1 <1>                0.0000
     10 C10         -0.8486 -21.7083  11.6029 C.3            1 <1>                0.0000
     11 N11         -0.7944 -23.1337  11.9648 N.pl3          1 <1>                0.0000
     12 C12         -0.9220 -23.4774  13.3077 C.ar           1 <1>                0.0000
     13 C13         -2.0380 -24.1652  13.7644 C.ar           1 <1>                0.0000
     14 C14         -2.1679 -24.4473  15.1107 C.ar           1 <1>                0.0000
     15 C15         -1.1942 -24.0443  16.0058 C.ar           1 <1>                0.0000
     16 C16         -0.0685 -23.3767  15.5524 C.ar           1 <1>                0.0000
     17 C17          0.0759 -23.1180  14.2093 C.ar           1 <1>                0.0000
     18 C18          1.3601 -22.5060  13.6677 C.3            1 <1>                0.0000
     19 H19          1.1353 -16.2806  12.6165 H              1 <1>                0.0000
     20 H20         -0.5514 -16.7069  12.9923 H              1 <1>                0.0000
     21 H21          0.3728 -15.6678  14.1036 H              1 <1>                0.0000
     22 H22          2.2370 -16.6341  15.4576 H              1 <1>                0.0000
     23 H23          2.6409 -18.3613  15.3112 H              1 <1>                0.0000
     24 H24          2.9996 -17.2467  13.9705 H              1 <1>                0.0000
     25 H25         -1.0548 -18.2715  14.8741 H              1 <1>                0.0000
     26 H26          0.2733 -18.9598  15.8387 H              1 <1>                0.0000
     27 H27         -0.1307 -17.2325  15.9853 H              1 <1>                0.0000
     28 H28          0.4857 -20.0456  11.4280 H              1 <1>                0.0000
     29 H29          1.2105 -21.6171  11.0308 H              1 <1>                0.0000
     30 H30         -1.5280 -21.1886  12.2784 H              1 <1>                0.0000
     31 H31         -1.2099 -21.6079  10.5795 H              1 <1>                0.0000
     32 H32         -2.8028 -24.4786  13.0693 H              1 <1>                0.0000
     33 H33         -3.0346 -24.9849  15.4657 H              1 <1>                0.0000
     34 H34         -1.3113 -24.2506  17.0594 H              1 <1>                0.0000
     35 H35          0.6925 -23.0605  16.2505 H              1 <1>                0.0000
     36 H36          1.7833 -23.1627  12.9076 H              1 <1>                0.0000
     37 H37          2.0753 -22.3828  14.4810 H              1 <1>                0.0000
     38 H38         -0.6733 -23.8155  11.2857 H              1 <1>                0.0000
@<TRIPOS>BOND
    1    1    2 1     
    2    1   19 1     
    3    1   20 1     
    4    1   21 1     
    5    2    3 1     
    6    2    4 1     
    7    2    5 1     
    8    3   22 1     
    9    3   23 1     
   10    3   24 1     
   11    4   25 1     
   12    4   26 1     
   13    4   27 1     
   14    5    6 1     
   15    6    7 2     
   16    6    8 am    
   17    8    9 1     
   18    8   18 1     
   19    9   10 1     
   20    9   28 1     
   21    9   29 1     
   22   10   11 1     
   23   10   30 1     
   24   10   31 1     
   25   11   12 1     
   26   11   38 1     
   27   12   13 ar    
   28   12   17 ar    
   29   13   14 ar    
   30   13   32 1     
   31   14   15 ar    
   32   14   33 1     
   33   15   16 ar    
   34   15   34 1     
   35   16   17 ar    
   36   16   35 1     
   37   17   18 1     
   38   18   36 1     
   39   18   37 1     
@<TRIPOS>SUBSTRUCTURE
      1 ****           1
@<TRIPOS>SET
DONOR_HYDROGENS      STATIC     ATOMS    <user>   **** ""
1 38
ATOM$RED        STATIC     ATOMS    COLORGROUP SYSTEM
1 38
@<TRIPOS>COMMENT
> <Gold.Version>
2022.2.0

> <Gold.Id.Protein>
3pbl|protein|mol2

> <Gold.Protein.RotatedTorsions>
[ 1303 1298 1297 1294 ] final   99.84 input  179.99 | X-H torsion
[ 2461 2456 2455 2452 ] final   71.26 input   30.03 | X-H torsion
[ 2515 2510 2509 2506 ] final  -85.93 input  -89.99 | X-H torsion
[ 3721 3712 3711 3710 ] final  162.16 input -179.91 | X-H torsion
[ 3841 3832 3831 3830 ] final   93.35 input -179.91 | X-H torsion
[ 3767 3762 3761 3758 ] final -107.31 input  -89.99 | X-H torsion
[ 2472 2467 2466 2463 ] final -176.16 input  -89.97 | X-H torsion

> <Gold.Protein.ActiveResidues>
 VAL82   VAL86   LEU89   PHE106  VAL107  ASP110  VAL111  MET112  CYS114  THR115 
 CYS181  SER182  ILE183  PHE188  VAL189  ILE190  SER192  SER193  SER196  TRP342 
 PHE345  PHE346  HIS349  VAL350  TYR365  THR369  GLY372  TYR373 

> <Gold.Protein.RotatedAtoms>
    4.5358  -10.0243    4.9052 H   0  0  0  0  0  0  0  0  0  0  0  0  # atno 1303 bound_to 1298
    2.0251   -8.1163    7.5022 H   0  0  0  0  0  0  0  0  0  0  0  0  # atno 2461 bound_to 2456
   -5.3095   -5.4010    9.0685 H   0  0  0  0  0  0  0  0  0  0  0  0  # atno 2472 bound_to 2467
    2.8277   -8.8807    4.5679 H   0  0  0  0  0  0  0  0  0  0  0  0  # atno 2515 bound_to 2510
   -3.2648  -16.7420   13.3213 H   0  0  0  0  0  0  0  0  0  0  0  0  # atno 3721 bound_to 3712
   -5.0187  -21.9245   11.4072 H   0  0  0  0  0  0  0  0  0  0  0  0  # atno 3767 bound_to 3762
    2.8772  -20.9078    9.2294 H   0  0  0  0  0  0  0  0  0  0  0  0  # atno 3841 bound_to 3832
    3.3298   -9.5847    3.8959 LP  0  0  0  0  0  0  0  0  0  0  0  0  # atno 4297 bound_to 1298
    4.4963   -8.5121    4.2903 LP  0  0  0  0  0  0  0  0  0  0  0  0  # atno 4298 bound_to 1298
    0.4402   -8.4269    7.2591 LP  0  0  0  0  0  0  0  0  0  0  0  0  # atno 4299 bound_to 2456
    1.2727   -9.2648    8.3867 LP  0  0  0  0  0  0  0  0  0  0  0  0  # atno 4300 bound_to 2456
    2.1645   -8.7042    6.0494 LP  0  0  0  0  0  0  0  0  0  0  0  0  # atno 4301 bound_to 2510
    2.3044   -7.4139    5.0583 LP  0  0  0  0  0  0  0  0  0  0  0  0  # atno 4302 bound_to 2510
   -2.6505  -18.1923   13.6328 LP  0  0  0  0  0  0  0  0  0  0  0  0  # atno 4306 bound_to 3712
   -3.1079  -17.2051   14.8506 LP  0  0  0  0  0  0  0  0  0  0  0  0  # atno 4307 bound_to 3712
    1.4053  -20.2684    9.2565 LP  0  0  0  0  0  0  0  0  0  0  0  0  # atno 4314 bound_to 3832
    2.5005  -19.7853    8.1458 LP  0  0  0  0  0  0  0  0  0  0  0  0  # atno 4315 bound_to 3832
   -3.9136  -23.0807   11.0770 LP  0  0  0  0  0  0  0  0  0  0  0  0  # atno 4318 bound_to 3762
   -5.1951  -22.8696   10.0871 LP  0  0  0  0  0  0  0  0  0  0  0  0  # atno 4319 bound_to 3762
   -4.7057   -4.8275    7.6639 LP  0  0  0  0  0  0  0  0  0  0  0  0  # atno 4320 bound_to 2467
   -3.7019   -5.1651    8.9069 LP  0  0  0  0  0  0  0  0  0  0  0  0  # atno 4321 bound_to 2467

> <Gold.Score>
     Score     S(PLP)   S(hbond)     S(cho)   S(metal)  DE(clash)   DE(tors)     intcor
     41.70     -41.76       0.00       0.00       0.00       0.00       0.23       0.39

> <Gold.PLP.Fitness>
41.7003

> <Gold.PLP.PLP>
-41.7588

> <Gold.PLP.part.hbond>
0.0000

> <Gold.PLP.part.metal>
0.0000

> <Gold.PLP.part.buried>
-4.6635

> <Gold.PLP.part.nonpolar>
-37.8079

> <Gold.PLP.part.repulsive>
0.1094

> <Gold.PLP.ligand.clash>
0.0000

> <Gold.PLP.ligand.torsion>
0.2267

> <Gold.PLP.Chemscore.Hbond>
0.0000

> <Gold.PLP.Chemscore.CHOScore>
0.0000

> <Gold.PLP.Chemscore.Metal>
0.0000

> <Gold.PLP.Chemscore.Internal.Correction>
0.3948

