#       Name:                EN300-67628_i001
#       Creating user name   fsindt
#       Creation time:       Mon Feb 27 21:54:57 2023


#       File generated by GOLD software.
#

@<TRIPOS>MOLECULE
EN300-67628_i001|amine_3|mol2|937|dock14
    38    39     1
SMALL
USER_CHARGES


@<TRIPOS>ATOM
      1 C1          -1.0577  -9.7094  10.2384 C.3            1 <1>                0.0000
      2 C2          -1.2606 -11.1265  10.7783 C.3            1 <1>                0.0000
      3 C3          -1.3018 -11.0887  12.3073 C.3            1 <1>                0.0000
      4 C4          -2.5794 -11.6910  10.2463 C.3            1 <1>                0.0000
      5 O5          -0.1624 -11.9716  10.3446 O.3            1 <1>                0.0000
      6 C6          -0.0864 -12.2479   9.0291 C.2            1 <1>                0.0000
      7 O7          -0.6866 -11.5593   8.2279 O.2            1 <1>                0.0000
      8 N8           0.6557 -13.2885   8.6009 N.am           1 <1>                0.0000
      9 C9           0.7317 -13.5807   7.1664 C.3            1 <1>                0.0000
     10 C10          0.0888 -14.9168   6.8427 C.3            1 <1>                0.0000
     11 N11          0.7831 -15.9931   7.5674 N.pl3          1 <1>                0.0000
     12 C12          0.3689 -16.2882   8.8632 C.ar           1 <1>                0.0000
     13 C13         -0.2478 -17.4970   9.1563 C.ar           1 <1>                0.0000
     14 C14         -0.6993 -17.7447  10.4383 C.ar           1 <1>                0.0000
     15 C15         -0.5439 -16.7935  11.4296 C.ar           1 <1>                0.0000
     16 C16          0.0898 -15.5946  11.1475 C.ar           1 <1>                0.0000
     17 C17          0.5638 -15.3562   9.8785 C.ar           1 <1>                0.0000
     18 C18          1.3793 -14.1076   9.5736 C.3            1 <1>                0.0000
     19 H19         -0.1181  -9.3073  10.6174 H              1 <1>                0.0000
     20 H20         -1.0282  -9.7363   9.1492 H              1 <1>                0.0000
     21 H21         -1.8821  -9.0750  10.5641 H              1 <1>                0.0000
     22 H22         -2.1262 -10.4544  12.6329 H              1 <1>                0.0000
     23 H23         -1.4464 -12.0983  12.6919 H              1 <1>                0.0000
     24 H24         -0.3622 -10.6866  12.6863 H              1 <1>                0.0000
     25 H25         -2.5499 -11.7179   9.1571 H              1 <1>                0.0000
     26 H26         -2.7239 -12.7005  10.6309 H              1 <1>                0.0000
     27 H27         -3.4038 -11.0566  10.5720 H              1 <1>                0.0000
     28 H28          0.2179 -12.7939   6.6139 H              1 <1>                0.0000
     29 H29          1.7780 -13.6047   6.8618 H              1 <1>                0.0000
     30 H30         -0.9593 -14.8964   7.1414 H              1 <1>                0.0000
     31 H31          0.1553 -15.1006   5.7704 H              1 <1>                0.0000
     32 H32         -0.3746 -18.2413   8.3842 H              1 <1>                0.0000
     33 H33         -1.1764 -18.6862  10.6672 H              1 <1>                0.0000
     34 H34         -0.9167 -16.9855  12.4249 H              1 <1>                0.0000
     35 H35          0.2112 -14.8501  11.9205 H              1 <1>                0.0000
     36 H36          2.3462 -14.3965   9.1616 H              1 <1>                0.0000
     37 H37          1.5302 -13.5387  10.4911 H              1 <1>                0.0000
     38 H38          1.5098 -16.4839   7.1530 H              1 <1>                0.0000
@<TRIPOS>BOND
    1    1    2 1     
    2    1   19 1     
    3    1   20 1     
    4    1   21 1     
    5    2    3 1     
    6    2    4 1     
    7    2    5 1     
    8    3   22 1     
    9    3   23 1     
   10    3   24 1     
   11    4   25 1     
   12    4   26 1     
   13    4   27 1     
   14    5    6 1     
   15    6    7 2     
   16    6    8 am    
   17    8    9 1     
   18    8   18 1     
   19    9   10 1     
   20    9   28 1     
   21    9   29 1     
   22   10   11 1     
   23   10   30 1     
   24   10   31 1     
   25   11   12 1     
   26   11   38 1     
   27   12   13 ar    
   28   12   17 ar    
   29   13   14 ar    
   30   13   32 1     
   31   14   15 ar    
   32   14   33 1     
   33   15   16 ar    
   34   15   34 1     
   35   16   17 ar    
   36   16   35 1     
   37   17   18 1     
   38   18   36 1     
   39   18   37 1     
@<TRIPOS>SUBSTRUCTURE
      1 ****           1
@<TRIPOS>SET
DONOR_HYDROGENS      STATIC     ATOMS    <user>   **** ""
1 38
ATOM$RED        STATIC     ATOMS    COLORGROUP SYSTEM
1 38
@<TRIPOS>COMMENT
> <Gold.Version>
2022.2.0

> <Gold.Id.Protein>
3pbl|protein|mol2

> <Gold.Protein.RotatedTorsions>
[ 1303 1298 1297 1294 ] final -177.95 input  179.99 | X-H torsion
[ 2461 2456 2455 2452 ] final  -94.29 input   30.03 | X-H torsion
[ 2515 2510 2509 2506 ] final -163.29 input  -89.99 | X-H torsion
[ 3721 3712 3711 3710 ] final  -41.95 input -179.91 | X-H torsion
[ 3841 3832 3831 3830 ] final -168.47 input -179.91 | X-H torsion
[ 3767 3762 3761 3758 ] final -115.47 input  -89.99 | X-H torsion
[ 2472 2467 2466 2463 ] final -152.95 input  -89.97 | X-H torsion

> <Gold.Protein.ActiveResidues>
 VAL82   VAL86   LEU89   PHE106  VAL107  ASP110  VAL111  MET112  CYS114  THR115 
 CYS181  SER182  ILE183  PHE188  VAL189  ILE190  SER192  SER193  SER196  TRP342 
 PHE345  PHE346  HIS349  VAL350  TYR365  THR369  GLY372  TYR373 

> <Gold.Protein.RotatedAtoms>
    4.8439   -8.8484    4.6630 H   0  0  0  0  0  0  0  0  0  0  0  0  # atno 1303 bound_to 1298
    0.3714   -8.9529    7.7607 H   0  0  0  0  0  0  0  0  0  0  0  0  # atno 2461 bound_to 2456
   -5.0215   -5.4560    9.3090 H   0  0  0  0  0  0  0  0  0  0  0  0  # atno 2472 bound_to 2467
    2.4401   -9.1795    5.6394 H   0  0  0  0  0  0  0  0  0  0  0  0  # atno 2515 bound_to 2510
   -2.6745  -17.5612   14.6816 H   0  0  0  0  0  0  0  0  0  0  0  0  # atno 3721 bound_to 3712
   -4.9106  -21.9489   11.4827 H   0  0  0  0  0  0  0  0  0  0  0  0  # atno 3767 bound_to 3762
    2.8465  -19.9239    8.3674 H   0  0  0  0  0  0  0  0  0  0  0  0  # atno 3841 bound_to 3832
    4.0364  -10.2676    4.6519 LP  0  0  0  0  0  0  0  0  0  0  0  0  # atno 4297 bound_to 1298
    3.4816   -9.0055    3.7766 LP  0  0  0  0  0  0  0  0  0  0  0  0  # atno 4298 bound_to 1298
    1.9178   -8.9384    8.2859 LP  0  0  0  0  0  0  0  0  0  0  0  0  # atno 4299 bound_to 2456
    1.4483   -7.9169    7.1016 LP  0  0  0  0  0  0  0  0  0  0  0  0  # atno 4300 bound_to 2456
    2.0788   -7.5879    5.6819 LP  0  0  0  0  0  0  0  0  0  0  0  0  # atno 4301 bound_to 2510
    2.7778   -8.2313    4.3538 LP  0  0  0  0  0  0  0  0  0  0  0  0  # atno 4302 bound_to 2510
   -3.5675  -16.5673   13.7914 LP  0  0  0  0  0  0  0  0  0  0  0  0  # atno 4306 bound_to 3712
   -2.8725  -17.8843   13.1214 LP  0  0  0  0  0  0  0  0  0  0  0  0  # atno 4307 bound_to 3712
    2.5432  -21.1577    9.3482 LP  0  0  0  0  0  0  0  0  0  0  0  0  # atno 4314 bound_to 3832
    1.3979  -20.0325    9.0499 LP  0  0  0  0  0  0  0  0  0  0  0  0  # atno 4315 bound_to 3832
   -3.9361  -23.1534   10.9666 LP  0  0  0  0  0  0  0  0  0  0  0  0  # atno 4318 bound_to 3762
   -5.2808  -22.7725   10.1220 LP  0  0  0  0  0  0  0  0  0  0  0  0  # atno 4319 bound_to 3762
   -5.0607   -4.9056    7.7721 LP  0  0  0  0  0  0  0  0  0  0  0  0  # atno 4320 bound_to 2467
   -3.6348   -5.0320    8.5581 LP  0  0  0  0  0  0  0  0  0  0  0  0  # atno 4321 bound_to 2467

> <Gold.Score>
     Score     S(PLP)   S(hbond)     S(cho)   S(metal)  DE(clash)   DE(tors)     intcor
     42.88     -43.07       0.00       0.00       0.00       0.00       0.30       0.39

> <Gold.PLP.Fitness>
42.8761

> <Gold.PLP.PLP>
-43.0735

> <Gold.PLP.part.hbond>
-0.7420

> <Gold.PLP.part.metal>
0.0000

> <Gold.PLP.part.buried>
4.5348

> <Gold.PLP.part.nonpolar>
-47.6327

> <Gold.PLP.part.repulsive>
0.0008

> <Gold.PLP.ligand.clash>
0.0000

> <Gold.PLP.ligand.torsion>
0.2961

> <Gold.PLP.Chemscore.Hbond>
0.0000

> <Gold.PLP.Chemscore.CHOScore>
0.0000

> <Gold.PLP.Chemscore.Metal>
0.0000

> <Gold.PLP.Chemscore.Internal.Correction>
0.3948

