#       Name:                EN300-67628_i001
#       Creating user name   fsindt
#       Creation time:       Mon Feb 27 21:54:54 2023


#       File generated by GOLD software.
#

@<TRIPOS>MOLECULE
EN300-67628_i001|amine_3|mol2|937|dock9
    38    39     1
SMALL
USER_CHARGES


@<TRIPOS>ATOM
      1 C1          -0.3181 -24.5910  14.3952 C.3            1 <1>                0.0000
      2 C2          -1.2340 -23.6716  13.5849 C.3            1 <1>                0.0000
      3 C3          -1.6679 -24.3851  12.3028 C.3            1 <1>                0.0000
      4 C4          -2.4695 -23.3208  14.4164 C.3            1 <1>                0.0000
      5 O5          -0.5190 -22.4549  13.2433 O.3            1 <1>                0.0000
      6 C6           0.0867 -21.7985  14.2508 C.2            1 <1>                0.0000
      7 O7          -0.2332 -22.0231  15.4014 O.2            1 <1>                0.0000
      8 N8           1.0479 -20.8923  13.9831 N.am           1 <1>                0.0000
      9 C9           1.7010 -20.1832  15.0874 C.3            1 <1>                0.0000
     10 C10          1.3859 -18.6991  15.0506 C.3            1 <1>                0.0000
     11 N11          1.8647 -18.1187  13.7860 N.pl3          1 <1>                0.0000
     12 C12          1.0207 -18.1628  12.6798 C.ar           1 <1>                0.0000
     13 C13          0.4786 -16.9997  12.1502 C.ar           1 <1>                0.0000
     14 C14         -0.3997 -17.0735  11.0862 C.ar           1 <1>                0.0000
     15 C15         -0.7444 -18.3000  10.5490 C.ar           1 <1>                0.0000
     16 C16         -0.1897 -19.4618  11.0598 C.ar           1 <1>                0.0000
     17 C17          0.7051 -19.3892  12.1018 C.ar           1 <1>                0.0000
     18 C18          1.4295 -20.6340  12.5945 C.3            1 <1>                0.0000
     19 H19          0.5620 -24.8409  13.8028 H              1 <1>                0.0000
     20 H20         -0.0089 -24.0828  15.3085 H              1 <1>                0.0000
     21 H21         -0.8549 -25.5045  14.6515 H              1 <1>                0.0000
     22 H22         -2.2047 -25.2984  12.5592 H              1 <1>                0.0000
     23 H23         -2.3204 -23.7300  11.7256 H              1 <1>                0.0000
     24 H24         -0.7877 -24.6349  11.7104 H              1 <1>                0.0000
     25 H25         -2.1603 -22.8125  15.3298 H              1 <1>                0.0000
     26 H26         -3.1219 -22.6658  13.8392 H              1 <1>                0.0000
     27 H27         -3.0063 -24.2341  14.6728 H              1 <1>                0.0000
     28 H28          1.3540 -20.5987  16.0336 H              1 <1>                0.0000
     29 H29          2.7796 -20.3212  15.0122 H              1 <1>                0.0000
     30 H30          0.3083 -18.5554  15.1301 H              1 <1>                0.0000
     31 H31          1.8790 -18.2031  15.8865 H              1 <1>                0.0000
     32 H32          0.7422 -16.0399  12.5692 H              1 <1>                0.0000
     33 H33         -0.8192 -16.1686  10.6722 H              1 <1>                0.0000
     34 H34         -1.4466 -18.3522   9.7301 H              1 <1>                0.0000
     35 H35         -0.4587 -20.4207  10.6418 H              1 <1>                0.0000
     36 H36          2.5063 -20.4757  12.5342 H              1 <1>                0.0000
     37 H37          1.1518 -21.4859  11.9738 H              1 <1>                0.0000
     38 H38          2.7449 -17.7158  13.7249 H              1 <1>                0.0000
@<TRIPOS>BOND
    1    1    2 1     
    2    1   19 1     
    3    1   20 1     
    4    1   21 1     
    5    2    3 1     
    6    2    4 1     
    7    2    5 1     
    8    3   22 1     
    9    3   23 1     
   10    3   24 1     
   11    4   25 1     
   12    4   26 1     
   13    4   27 1     
   14    5    6 1     
   15    6    7 2     
   16    6    8 am    
   17    8    9 1     
   18    8   18 1     
   19    9   10 1     
   20    9   28 1     
   21    9   29 1     
   22   10   11 1     
   23   10   30 1     
   24   10   31 1     
   25   11   12 1     
   26   11   38 1     
   27   12   13 ar    
   28   12   17 ar    
   29   13   14 ar    
   30   13   32 1     
   31   14   15 ar    
   32   14   33 1     
   33   15   16 ar    
   34   15   34 1     
   35   16   17 ar    
   36   16   35 1     
   37   17   18 1     
   38   18   36 1     
   39   18   37 1     
@<TRIPOS>SUBSTRUCTURE
      1 ****           1
@<TRIPOS>SET
DONOR_HYDROGENS      STATIC     ATOMS    <user>   **** ""
1 38
ATOM$RED        STATIC     ATOMS    COLORGROUP SYSTEM
1 38
@<TRIPOS>COMMENT
> <Gold.Version>
2022.2.0

> <Gold.Id.Protein>
3pbl|protein|mol2

> <Gold.Protein.RotatedTorsions>
[ 1303 1298 1297 1294 ] final   55.20 input  179.99 | X-H torsion
[ 2461 2456 2455 2452 ] final   76.62 input   30.03 | X-H torsion
[ 2515 2510 2509 2506 ] final  141.83 input  -89.99 | X-H torsion
[ 3721 3712 3711 3710 ] final   90.80 input -179.91 | X-H torsion
[ 3841 3832 3831 3830 ] final -171.35 input -179.91 | X-H torsion
[ 3767 3762 3761 3758 ] final  144.53 input  -89.99 | X-H torsion
[ 2472 2467 2466 2463 ] final  -52.33 input  -89.97 | X-H torsion

> <Gold.Protein.ActiveResidues>
 VAL82   VAL86   LEU89   PHE106  VAL107  ASP110  VAL111  MET112  CYS114  THR115 
 CYS181  SER182  ILE183  PHE188  VAL189  ILE190  SER192  SER193  SER196  TRP342 
 PHE345  PHE346  HIS349  VAL350  TYR365  THR369  GLY372  TYR373 

> <Gold.Protein.RotatedAtoms>
    3.9429  -10.2716    4.5892 H   0  0  0  0  0  0  0  0  0  0  0  0  # atno 1303 bound_to 1298
    2.0666   -8.1637    7.5639 H   0  0  0  0  0  0  0  0  0  0  0  0  # atno 2461 bound_to 2456
   -3.6804   -5.1436    8.8516 H   0  0  0  0  0  0  0  0  0  0  0  0  # atno 2472 bound_to 2467
    2.1068   -8.5163    6.0904 H   0  0  0  0  0  0  0  0  0  0  0  0  # atno 2515 bound_to 2510
   -2.7897  -17.6057   13.0993 H   0  0  0  0  0  0  0  0  0  0  0  0  # atno 3721 bound_to 3712
   -3.9091  -22.9587   11.2283 H   0  0  0  0  0  0  0  0  0  0  0  0  # atno 3767 bound_to 3762
    2.8764  -19.9542    8.3761 H   0  0  0  0  0  0  0  0  0  0  0  0  # atno 3841 bound_to 3832
    3.5419   -8.9103    3.7816 LP  0  0  0  0  0  0  0  0  0  0  0  0  # atno 4297 bound_to 1298
    4.8774   -8.9391    4.7208 LP  0  0  0  0  0  0  0  0  0  0  0  0  # atno 4298 bound_to 1298
    0.4843   -8.3658    7.2134 LP  0  0  0  0  0  0  0  0  0  0  0  0  # atno 4299 bound_to 2456
    1.1872   -9.2786    8.3707 LP  0  0  0  0  0  0  0  0  0  0  0  0  # atno 4300 bound_to 2456
    2.3884   -7.4564    4.8807 LP  0  0  0  0  0  0  0  0  0  0  0  0  # atno 4301 bound_to 2510
    2.8016   -9.0263    4.7037 LP  0  0  0  0  0  0  0  0  0  0  0  0  # atno 4302 bound_to 2510
   -2.7584  -17.8403   14.6873 LP  0  0  0  0  0  0  0  0  0  0  0  0  # atno 4306 bound_to 3712
   -3.5485  -16.5599   14.0524 LP  0  0  0  0  0  0  0  0  0  0  0  0  # atno 4307 bound_to 3712
    2.5017  -21.1557    9.3721 LP  0  0  0  0  0  0  0  0  0  0  0  0  # atno 4314 bound_to 3832
    1.4050  -19.9994    9.0158 LP  0  0  0  0  0  0  0  0  0  0  0  0  # atno 4315 bound_to 3832
   -5.0538  -23.0014   10.0643 LP  0  0  0  0  0  0  0  0  0  0  0  0  # atno 4318 bound_to 3762
   -5.1642  -21.9151   11.2786 LP  0  0  0  0  0  0  0  0  0  0  0  0  # atno 4319 bound_to 3762
   -5.2692   -5.4127    9.1155 LP  0  0  0  0  0  0  0  0  0  0  0  0  # atno 4320 bound_to 2467
   -4.7672   -4.8373    7.6721 LP  0  0  0  0  0  0  0  0  0  0  0  0  # atno 4321 bound_to 2467

> <Gold.Score>
     Score     S(PLP)   S(hbond)     S(cho)   S(metal)  DE(clash)   DE(tors)     intcor
     39.19     -39.39       0.00       0.00       0.00       0.00       0.30       0.39

> <Gold.PLP.Fitness>
39.1878

> <Gold.PLP.PLP>
-39.3920

> <Gold.PLP.part.hbond>
0.0000

> <Gold.PLP.part.metal>
0.0000

> <Gold.PLP.part.buried>
-4.3802

> <Gold.PLP.part.nonpolar>
-35.4084

> <Gold.PLP.part.repulsive>
0.0003

> <Gold.PLP.ligand.clash>
0.0000

> <Gold.PLP.ligand.torsion>
0.2995

> <Gold.PLP.Chemscore.Hbond>
0.0000

> <Gold.PLP.Chemscore.CHOScore>
0.0000

> <Gold.PLP.Chemscore.Metal>
0.0000

> <Gold.PLP.Chemscore.Internal.Correction>
0.3948

