#       Name:                EN300-67628_i001
#       Creating user name   fsindt
#       Creation time:       Mon Feb 27 21:54:54 2023


#       File generated by GOLD software.
#

@<TRIPOS>MOLECULE
EN300-67628_i001|amine_3|mol2|937|dock10
    38    39     1
SMALL
USER_CHARGES


@<TRIPOS>ATOM
      1 C1           0.6941 -18.0906  13.9216 C.3            1 <1>                0.0000
      2 C2           0.3644 -18.5042  12.4860 C.3            1 <1>                0.0000
      3 C3           1.4359 -19.4693  11.9745 C.3            1 <1>                0.0000
      4 C4          -1.0006 -19.1946  12.4549 C.3            1 <1>                0.0000
      5 O5           0.3302 -17.3257  11.6384 O.3            1 <1>                0.0000
      6 C6          -0.2948 -16.2385  12.1282 C.2            1 <1>                0.0000
      7 O7          -1.2211 -16.3680  12.9038 O.2            1 <1>                0.0000
      8 N8           0.1070 -15.0063  11.7581 N.am           1 <1>                0.0000
      9 C9          -0.5804 -13.8292  12.2972 C.3            1 <1>                0.0000
     10 C10         -1.3060 -13.0673  11.2034 C.3            1 <1>                0.0000
     11 N11         -0.3420 -12.6111  10.1895 N.pl3          1 <1>                0.0000
     12 C12         -0.0191 -13.4791   9.1502 C.ar           1 <1>                0.0000
     13 C13         -0.3990 -13.1999   7.8444 C.ar           1 <1>                0.0000
     14 C14         -0.1148 -14.1029   6.8382 C.ar           1 <1>                0.0000
     15 C15          0.5422 -15.2851   7.1257 C.ar           1 <1>                0.0000
     16 C16          0.9423 -15.5586   8.4233 C.ar           1 <1>                0.0000
     17 C17          0.6840 -14.6492   9.4223 C.ar           1 <1>                0.0000
     18 C18          1.2274 -14.8615  10.8283 C.3            1 <1>                0.0000
     19 H19          1.6666 -17.5987  13.9437 H              1 <1>                0.0000
     20 H20         -0.0691 -17.4030  14.2860 H              1 <1>                0.0000
     21 H21          0.7198 -18.9753  14.5578 H              1 <1>                0.0000
     22 H22          1.4615 -20.3539  12.6107 H              1 <1>                0.0000
     23 H23          1.2009 -19.7640  10.9517 H              1 <1>                0.0000
     24 H24          2.4083 -18.9774  11.9966 H              1 <1>                0.0000
     25 H25         -1.7638 -18.5070  12.8192 H              1 <1>                0.0000
     26 H26         -1.2355 -19.4893  11.4321 H              1 <1>                0.0000
     27 H27         -0.9750 -20.0793  13.0911 H              1 <1>                0.0000
     28 H28         -1.3023 -14.1499  13.0484 H              1 <1>                0.0000
     29 H29          0.1519 -13.1711  12.7652 H              1 <1>                0.0000
     30 H30         -2.0429 -13.7198  10.7351 H              1 <1>                0.0000
     31 H31         -1.8114 -12.2044  11.6370 H              1 <1>                0.0000
     32 H32         -0.9156 -12.2794   7.6159 H              1 <1>                0.0000
     33 H33         -0.4076 -13.8845   5.8219 H              1 <1>                0.0000
     34 H34          0.7438 -15.9957   6.3379 H              1 <1>                0.0000
     35 H35          1.4548 -16.4820   8.6496 H              1 <1>                0.0000
     36 H36          1.8341 -14.0033  11.1170 H              1 <1>                0.0000
     37 H37          1.8395 -15.7632  10.8492 H              1 <1>                0.0000
     38 H38          0.0575 -11.7290  10.2437 H              1 <1>                0.0000
@<TRIPOS>BOND
    1    1    2 1     
    2    1   19 1     
    3    1   20 1     
    4    1   21 1     
    5    2    3 1     
    6    2    4 1     
    7    2    5 1     
    8    3   22 1     
    9    3   23 1     
   10    3   24 1     
   11    4   25 1     
   12    4   26 1     
   13    4   27 1     
   14    5    6 1     
   15    6    7 2     
   16    6    8 am    
   17    8    9 1     
   18    8   18 1     
   19    9   10 1     
   20    9   28 1     
   21    9   29 1     
   22   10   11 1     
   23   10   30 1     
   24   10   31 1     
   25   11   12 1     
   26   11   38 1     
   27   12   13 ar    
   28   12   17 ar    
   29   13   14 ar    
   30   13   32 1     
   31   14   15 ar    
   32   14   33 1     
   33   15   16 ar    
   34   15   34 1     
   35   16   17 ar    
   36   16   35 1     
   37   17   18 1     
   38   18   36 1     
   39   18   37 1     
@<TRIPOS>SUBSTRUCTURE
      1 ****           1
@<TRIPOS>SET
DONOR_HYDROGENS      STATIC     ATOMS    <user>   **** ""
1 38
ATOM$RED        STATIC     ATOMS    COLORGROUP SYSTEM
1 38
@<TRIPOS>COMMENT
> <Gold.Version>
2022.2.0

> <Gold.Id.Protein>
3pbl|protein|mol2

> <Gold.Protein.RotatedTorsions>
[ 1303 1298 1297 1294 ] final -161.97 input  179.99 | X-H torsion
[ 2461 2456 2455 2452 ] final -112.27 input   30.03 | X-H torsion
[ 2515 2510 2509 2506 ] final -145.71 input  -89.99 | X-H torsion
[ 3721 3712 3711 3710 ] final  127.69 input -179.91 | X-H torsion
[ 3841 3832 3831 3830 ] final  125.67 input -179.91 | X-H torsion
[ 3767 3762 3761 3758 ] final  -72.35 input  -89.99 | X-H torsion
[ 2472 2467 2466 2463 ] final   58.26 input  -89.97 | X-H torsion

> <Gold.Protein.ActiveResidues>
 VAL82   VAL86   LEU89   PHE106  VAL107  ASP110  VAL111  MET112  CYS114  THR115 
 CYS181  SER182  ILE183  PHE188  VAL189  ILE190  SER192  SER193  SER196  TRP342 
 PHE345  PHE346  HIS349  VAL350  TYR365  THR369  GLY372  TYR373 

> <Gold.Protein.RotatedAtoms>
    4.7278   -8.6681    4.5123 H   0  0  0  0  0  0  0  0  0  0  0  0  # atno 1303 bound_to 1298
    0.4978   -9.1179    7.9696 H   0  0  0  0  0  0  0  0  0  0  0  0  # atno 2461 bound_to 2456
   -4.6146   -4.8164    7.6587 H   0  0  0  0  0  0  0  0  0  0  0  0  # atno 2472 bound_to 2467
    2.5616   -9.2522    5.3885 H   0  0  0  0  0  0  0  0  0  0  0  0  # atno 2515 bound_to 2510
   -3.0642  -17.1332   13.0564 H   0  0  0  0  0  0  0  0  0  0  0  0  # atno 3721 bound_to 3712
   -5.3869  -21.9811   10.9802 H   0  0  0  0  0  0  0  0  0  0  0  0  # atno 3767 bound_to 3762
    3.1055  -20.6717    8.8766 H   0  0  0  0  0  0  0  0  0  0  0  0  # atno 3841 bound_to 3832
    4.2563  -10.2081    4.7816 LP  0  0  0  0  0  0  0  0  0  0  0  0  # atno 4297 bound_to 1298
    3.3779   -9.2454    3.7976 LP  0  0  0  0  0  0  0  0  0  0  0  0  # atno 4298 bound_to 1298
    2.0768   -8.7374    8.1407 LP  0  0  0  0  0  0  0  0  0  0  0  0  # atno 4299 bound_to 2456
    1.1629   -7.9530    7.0380 LP  0  0  0  0  0  0  0  0  0  0  0  0  # atno 4300 bound_to 2456
    2.0364   -7.7881    5.8848 LP  0  0  0  0  0  0  0  0  0  0  0  0  # atno 4301 bound_to 2510
    2.6987   -7.9585    4.4019 LP  0  0  0  0  0  0  0  0  0  0  0  0  # atno 4302 bound_to 2510
   -2.6141  -18.1680   14.1985 LP  0  0  0  0  0  0  0  0  0  0  0  0  # atno 4306 bound_to 3712
   -3.3758  -16.7778   14.5908 LP  0  0  0  0  0  0  0  0  0  0  0  0  # atno 4307 bound_to 3712
    1.6255  -20.6898    9.4975 LP  0  0  0  0  0  0  0  0  0  0  0  0  # atno 4314 bound_to 3832
    2.0165  -19.6365    8.3124 LP  0  0  0  0  0  0  0  0  0  0  0  0  # atno 4315 bound_to 3832
   -3.9990  -22.6859   11.4742 LP  0  0  0  0  0  0  0  0  0  0  0  0  # atno 4318 bound_to 3762
   -4.7417  -23.2078   10.1167 LP  0  0  0  0  0  0  0  0  0  0  0  0  # atno 4319 bound_to 3762
   -3.7398   -5.1970    8.9839 LP  0  0  0  0  0  0  0  0  0  0  0  0  # atno 4320 bound_to 2467
   -5.3625   -5.3800    8.9964 LP  0  0  0  0  0  0  0  0  0  0  0  0  # atno 4321 bound_to 2467

> <Gold.Score>
     Score     S(PLP)   S(hbond)     S(cho)   S(metal)  DE(clash)   DE(tors)     intcor
     42.13     -41.78       0.37       0.00       0.00       0.00       0.58       0.39

> <Gold.PLP.Fitness>
42.1297

> <Gold.PLP.PLP>
-41.7841

> <Gold.PLP.part.hbond>
-1.0000

> <Gold.PLP.part.metal>
0.0000

> <Gold.PLP.part.buried>
1.1611

> <Gold.PLP.part.nonpolar>
-43.5416

> <Gold.PLP.part.repulsive>
0.4429

> <Gold.PLP.ligand.clash>
0.0000

> <Gold.PLP.ligand.torsion>
0.5766

> <Gold.PLP.Chemscore.Hbond>
0.3680

> <Gold.PLP.Chemscore.CHOScore>
0.0000

> <Gold.PLP.Chemscore.Metal>
0.0000

> <Gold.Chemscore.Hbonds>
donor molecule, donor type, donor heavy atom, donor atom, acceptor molecule, acceptor atom, score
      P1  H  3712  3721       L1     7  0.37

> <Gold.PLP.Chemscore.Internal.Correction>
0.3948

