#       Name:                EN300-67628_i001
#       Creating user name   fsindt
#       Creation time:       Mon Feb 27 21:54:52 2023


#       File generated by GOLD software.
#

@<TRIPOS>MOLECULE
EN300-67628_i001|amine_3|mol2|937|dock7
    38    39     1
SMALL
USER_CHARGES


@<TRIPOS>ATOM
      1 C1          -0.6857  -9.5300  11.0377 C.3            1 <1>                0.0000
      2 C2          -1.5384 -10.7990  10.9824 C.3            1 <1>                0.0000
      3 C3          -1.8830 -11.2444  12.4051 C.3            1 <1>                0.0000
      4 C4          -2.8285 -10.5134  10.2109 C.3            1 <1>                0.0000
      5 O5          -0.7966 -11.8520  10.3121 O.3            1 <1>                0.0000
      6 C6          -0.2606 -11.5541   9.1134 C.2            1 <1>                0.0000
      7 O7          -0.7099 -10.6345   8.4585 O.2            1 <1>                0.0000
      8 N8           0.7745 -12.2761   8.6400 N.am           1 <1>                0.0000
      9 C9           1.3507 -11.9434   7.3338 C.3            1 <1>                0.0000
     10 C10          1.1285 -13.0632   6.3336 C.3            1 <1>                0.0000
     11 N11          1.7684 -14.2973   6.8163 N.pl3          1 <1>                0.0000
     12 C12          1.0418 -15.1271   7.6656 C.ar           1 <1>                0.0000
     13 C13          0.6261 -16.3846   7.2494 C.ar           1 <1>                0.0000
     14 C14         -0.1405 -17.1680   8.0905 C.ar           1 <1>                0.0000
     15 C15         -0.4994 -16.7043   9.3427 C.ar           1 <1>                0.0000
     16 C16         -0.0693 -15.4592   9.7709 C.ar           1 <1>                0.0000
     17 C17          0.7161 -14.6884   8.9459 C.ar           1 <1>                0.0000
     18 C18          1.3117 -13.3774   9.4394 C.3            1 <1>                0.0000
     19 H19          0.2333  -9.7335  11.5873 H              1 <1>                0.0000
     20 H20         -0.4401  -9.2128  10.0242 H              1 <1>                0.0000
     21 H21         -1.2426  -8.7396  11.5410 H              1 <1>                0.0000
     22 H22         -2.4399 -10.4541  12.9083 H              1 <1>                0.0000
     23 H23         -2.4906 -12.1485  12.3657 H              1 <1>                0.0000
     24 H24         -0.9640 -11.4479  12.9547 H              1 <1>                0.0000
     25 H25         -2.5829 -10.1962   9.1974 H              1 <1>                0.0000
     26 H26         -3.4359 -11.4176  10.1715 H              1 <1>                0.0000
     27 H27         -3.3854  -9.7231  10.7142 H              1 <1>                0.0000
     28 H28          0.8843 -11.0322   6.9592 H              1 <1>                0.0000
     29 H29          2.4214 -11.7742   7.4484 H              1 <1>                0.0000
     30 H30          0.0588 -13.2333   6.2120 H              1 <1>                0.0000
     31 H31          1.5611 -12.7825   5.3734 H              1 <1>                0.0000
     32 H32          0.9010 -16.7493   6.2708 H              1 <1>                0.0000
     33 H33         -0.4614 -18.1475   7.7681 H              1 <1>                0.0000
     34 H34         -1.1152 -17.3135   9.9876 H              1 <1>                0.0000
     35 H35         -0.3494 -15.0952  10.7484 H              1 <1>                0.0000
     36 H36          2.3964 -13.4094   9.3365 H              1 <1>                0.0000
     37 H37          1.0500 -13.2309  10.4874 H              1 <1>                0.0000
     38 H38          2.6722 -14.5266   6.5495 H              1 <1>                0.0000
@<TRIPOS>BOND
    1    1    2 1     
    2    1   19 1     
    3    1   20 1     
    4    1   21 1     
    5    2    3 1     
    6    2    4 1     
    7    2    5 1     
    8    3   22 1     
    9    3   23 1     
   10    3   24 1     
   11    4   25 1     
   12    4   26 1     
   13    4   27 1     
   14    5    6 1     
   15    6    7 2     
   16    6    8 am    
   17    8    9 1     
   18    8   18 1     
   19    9   10 1     
   20    9   28 1     
   21    9   29 1     
   22   10   11 1     
   23   10   30 1     
   24   10   31 1     
   25   11   12 1     
   26   11   38 1     
   27   12   13 ar    
   28   12   17 ar    
   29   13   14 ar    
   30   13   32 1     
   31   14   15 ar    
   32   14   33 1     
   33   15   16 ar    
   34   15   34 1     
   35   16   17 ar    
   36   16   35 1     
   37   17   18 1     
   38   18   36 1     
   39   18   37 1     
@<TRIPOS>SUBSTRUCTURE
      1 ****           1
@<TRIPOS>SET
DONOR_HYDROGENS      STATIC     ATOMS    <user>   **** ""
1 38
ATOM$RED        STATIC     ATOMS    COLORGROUP SYSTEM
1 38
@<TRIPOS>COMMENT
> <Gold.Version>
2022.2.0

> <Gold.Id.Protein>
3pbl|protein|mol2

> <Gold.Protein.RotatedTorsions>
[ 1303 1298 1297 1294 ] final  -28.90 input  179.99 | X-H torsion
[ 2461 2456 2455 2452 ] final -126.08 input   30.03 | X-H torsion
[ 2515 2510 2509 2506 ] final   35.01 input  -89.99 | X-H torsion
[ 3721 3712 3711 3710 ] final -176.41 input -179.91 | X-H torsion
[ 3841 3832 3831 3830 ] final -100.48 input -179.91 | X-H torsion
[ 3767 3762 3761 3758 ] final  -55.72 input  -89.99 | X-H torsion
[ 2472 2467 2466 2463 ] final  -88.97 input  -89.97 | X-H torsion

> <Gold.Protein.ActiveResidues>
 VAL82   VAL86   LEU89   PHE106  VAL107  ASP110  VAL111  MET112  CYS114  THR115 
 CYS181  SER182  ILE183  PHE188  VAL189  ILE190  SER192  SER193  SER196  TRP342 
 PHE345  PHE346  HIS349  VAL350  TYR365  THR369  GLY372  TYR373 

> <Gold.Protein.RotatedAtoms>
    3.3355   -9.4495    3.8480 H   0  0  0  0  0  0  0  0  0  0  0  0  # atno 1303 bound_to 1298
    0.6454   -9.2111    8.1142 H   0  0  0  0  0  0  0  0  0  0  0  0  # atno 2461 bound_to 2456
   -4.0295   -5.3395    9.2886 H   0  0  0  0  0  0  0  0  0  0  0  0  # atno 2472 bound_to 2467
    2.2983   -7.4127    5.0725 H   0  0  0  0  0  0  0  0  0  0  0  0  # atno 2515 bound_to 2510
   -3.3285  -16.5880   13.5968 H   0  0  0  0  0  0  0  0  0  0  0  0  # atno 3721 bound_to 3712
   -5.4812  -22.0942   10.7508 H   0  0  0  0  0  0  0  0  0  0  0  0  # atno 3767 bound_to 3762
    1.9715  -19.5863    8.6070 H   0  0  0  0  0  0  0  0  0  0  0  0  # atno 3841 bound_to 3832
    4.5978   -8.5607    4.3797 LP  0  0  0  0  0  0  0  0  0  0  0  0  # atno 4297 bound_to 1298
    4.4292  -10.1111    4.8641 LP  0  0  0  0  0  0  0  0  0  0  0  0  # atno 4298 bound_to 1298
    2.1444   -8.5731    8.0001 LP  0  0  0  0  0  0  0  0  0  0  0  0  # atno 4299 bound_to 2456
    0.9478   -8.0241    7.0340 LP  0  0  0  0  0  0  0  0  0  0  0  0  # atno 4300 bound_to 2456
    2.8290   -8.8686    4.5582 LP  0  0  0  0  0  0  0  0  0  0  0  0  # atno 4301 bound_to 2510
    2.1695   -8.7182    6.0445 LP  0  0  0  0  0  0  0  0  0  0  0  0  # atno 4302 bound_to 2510
   -2.7536  -18.0611   13.3185 LP  0  0  0  0  0  0  0  0  0  0  0  0  # atno 4306 bound_to 3712
   -2.9312  -17.5140   14.8468 LP  0  0  0  0  0  0  0  0  0  0  0  0  # atno 4307 bound_to 3712
    3.1272  -20.6997    8.5765 LP  0  0  0  0  0  0  0  0  0  0  0  0  # atno 4314 bound_to 3832
    1.8248  -20.8805    9.5448 LP  0  0  0  0  0  0  0  0  0  0  0  0  # atno 4315 bound_to 3832
   -4.1353  -22.4809   11.5910 LP  0  0  0  0  0  0  0  0  0  0  0  0  # atno 4318 bound_to 3762
   -4.5111  -23.2998   10.2292 LP  0  0  0  0  0  0  0  0  0  0  0  0  # atno 4319 bound_to 3762
   -5.5060   -5.2517    8.5966 LP  0  0  0  0  0  0  0  0  0  0  0  0  # atno 4320 bound_to 2467
   -4.1813   -4.8023    7.7541 LP  0  0  0  0  0  0  0  0  0  0  0  0  # atno 4321 bound_to 2467

> <Gold.Score>
     Score     S(PLP)   S(hbond)     S(cho)   S(metal)  DE(clash)   DE(tors)     intcor
     47.69     -42.04       2.00       0.00       0.00       0.00       0.37       0.39

> <Gold.PLP.Fitness>
47.6932

> <Gold.PLP.PLP>
-42.0359

> <Gold.PLP.part.hbond>
-2.0000

> <Gold.PLP.part.metal>
0.0000

> <Gold.PLP.part.buried>
0.7636

> <Gold.PLP.part.nonpolar>
-41.7602

> <Gold.PLP.part.repulsive>
0.0893

> <Gold.PLP.ligand.clash>
0.0000

> <Gold.PLP.ligand.torsion>
0.3687

> <Gold.PLP.Chemscore.Hbond>
2.0000

> <Gold.PLP.Chemscore.CHOScore>
0.0000

> <Gold.PLP.Chemscore.Metal>
0.0000

> <Gold.Chemscore.Hbonds>
donor molecule, donor type, donor heavy atom, donor atom, acceptor molecule, acceptor atom, score
      L1  H    11    38       P1  1223  1.00
      P1  H  2456  2461       L1     7  1.00

> <Gold.PLP.Chemscore.Internal.Correction>
0.3948

