#       Name:                EN300-67628_i001
#       Creating user name   fsindt
#       Creation time:       Mon Feb 27 21:55:01 2023


#       File generated by GOLD software.
#

@<TRIPOS>MOLECULE
EN300-67628_i001|amine_3|mol2|937|dock20
    38    39     1
SMALL
USER_CHARGES


@<TRIPOS>ATOM
      1 C1          -2.7981 -24.6958  12.6274 C.3            1 <1>                0.0000
      2 C2          -2.5403 -23.7045  13.7639 C.3            1 <1>                0.0000
      3 C3          -3.3220 -22.4153  13.5034 C.3            1 <1>                0.0000
      4 C4          -2.9959 -24.3183  15.0892 C.3            1 <1>                0.0000
      5 O5          -1.1212 -23.4045  13.8318 O.3            1 <1>                0.0000
      6 C6          -0.6012 -22.6775  12.8249 C.2            1 <1>                0.0000
      7 O7          -1.0814 -22.7514  11.7112 O.2            1 <1>                0.0000
      8 N8           0.4519 -21.8677  13.0524 N.am           1 <1>                0.0000
      9 C9           1.0235 -21.7860  14.3998 C.3            1 <1>                0.0000
     10 C10          0.8307 -20.4036  14.9960 C.3            1 <1>                0.0000
     11 N11          1.4983 -19.3992  14.1528 N.pl3          1 <1>                0.0000
     12 C12          0.7893 -18.8619  13.0821 C.ar           1 <1>                0.0000
     13 C13          0.4048 -17.5280  13.0796 C.ar           1 <1>                0.0000
     14 C14         -0.3453 -17.0312  12.0310 C.ar           1 <1>                0.0000
     15 C15         -0.7184 -17.8567  10.9864 C.ar           1 <1>                0.0000
     16 C16         -0.3191 -19.1830  10.9736 C.ar           1 <1>                0.0000
     17 C17          0.4500 -19.6733  12.0031 C.ar           1 <1>                0.0000
     18 C18          1.0131 -21.0865  11.9498 C.3            1 <1>                0.0000
     19 H19         -2.4735 -24.2585  11.6832 H              1 <1>                0.0000
     20 H20         -2.2411 -25.6142  12.8129 H              1 <1>                0.0000
     21 H21         -3.8635 -24.9209  12.5763 H              1 <1>                0.0000
     22 H22         -4.3873 -22.6405  13.4524 H              1 <1>                0.0000
     23 H23         -3.1384 -21.7091  14.3131 H              1 <1>                0.0000
     24 H24         -2.9974 -21.9780  12.5592 H              1 <1>                0.0000
     25 H25         -2.4389 -25.2366  15.2747 H              1 <1>                0.0000
     26 H26         -2.8121 -23.6120  15.8988 H              1 <1>                0.0000
     27 H27         -4.0611 -24.5434  15.0382 H              1 <1>                0.0000
     28 H28          0.5366 -22.5220  15.0396 H              1 <1>                0.0000
     29 H29          2.0896 -22.0076  14.3495 H              1 <1>                0.0000
     30 H30         -0.2344 -20.1790  15.0526 H              1 <1>                0.0000
     31 H31          1.2590 -20.3781  15.9979 H              1 <1>                0.0000
     32 H32          0.6908 -16.8806  13.8952 H              1 <1>                0.0000
     33 H33         -0.6420 -15.9928  12.0275 H              1 <1>                0.0000
     34 H34         -1.3213 -17.4671  10.1797 H              1 <1>                0.0000
     35 H35         -0.6104 -19.8293  10.1588 H              1 <1>                0.0000
     36 H36          2.0984 -21.0492  12.0429 H              1 <1>                0.0000
     37 H37          0.7452 -21.5491  10.9999 H              1 <1>                0.0000
     38 H38          2.4080 -19.1188  14.3384 H              1 <1>                0.0000
@<TRIPOS>BOND
    1    1    2 1     
    2    1   19 1     
    3    1   20 1     
    4    1   21 1     
    5    2    3 1     
    6    2    4 1     
    7    2    5 1     
    8    3   22 1     
    9    3   23 1     
   10    3   24 1     
   11    4   25 1     
   12    4   26 1     
   13    4   27 1     
   14    5    6 1     
   15    6    7 2     
   16    6    8 am    
   17    8    9 1     
   18    8   18 1     
   19    9   10 1     
   20    9   28 1     
   21    9   29 1     
   22   10   11 1     
   23   10   30 1     
   24   10   31 1     
   25   11   12 1     
   26   11   38 1     
   27   12   13 ar    
   28   12   17 ar    
   29   13   14 ar    
   30   13   32 1     
   31   14   15 ar    
   32   14   33 1     
   33   15   16 ar    
   34   15   34 1     
   35   16   17 ar    
   36   16   35 1     
   37   17   18 1     
   38   18   36 1     
   39   18   37 1     
@<TRIPOS>SUBSTRUCTURE
      1 ****           1
@<TRIPOS>SET
DONOR_HYDROGENS      STATIC     ATOMS    <user>   **** ""
1 38
ATOM$RED        STATIC     ATOMS    COLORGROUP SYSTEM
1 38
@<TRIPOS>COMMENT
> <Gold.Version>
2022.2.0

> <Gold.Id.Protein>
3pbl|protein|mol2

> <Gold.Protein.RotatedTorsions>
[ 1303 1298 1297 1294 ] final   63.53 input  179.99 | X-H torsion
[ 2461 2456 2455 2452 ] final  -59.77 input   30.03 | X-H torsion
[ 2515 2510 2509 2506 ] final  -94.47 input  -89.99 | X-H torsion
[ 3721 3712 3711 3710 ] final  168.63 input -179.91 | X-H torsion
[ 3841 3832 3831 3830 ] final  155.98 input -179.91 | X-H torsion
[ 3767 3762 3761 3758 ] final -124.06 input  -89.99 | X-H torsion
[ 2472 2467 2466 2463 ] final  -43.70 input  -89.97 | X-H torsion

> <Gold.Protein.ActiveResidues>
 VAL82   VAL86   LEU89   PHE106  VAL107  ASP110  VAL111  MET112  CYS114  THR115 
 CYS181  SER182  ILE183  PHE188  VAL189  ILE190  SER192  SER193  SER196  TRP342 
 PHE345  PHE346  HIS349  VAL350  TYR365  THR369  GLY372  TYR373 

> <Gold.Protein.RotatedAtoms>
    4.0565  -10.2646    4.6653 H   0  0  0  0  0  0  0  0  0  0  0  0  # atno 1303 bound_to 1298
    0.3718   -8.5569    7.3652 H   0  0  0  0  0  0  0  0  0  0  0  0  # atno 2461 bound_to 2456
   -3.6470   -5.0936    8.7231 H   0  0  0  0  0  0  0  0  0  0  0  0  # atno 2472 bound_to 2467
    2.8113   -8.9852    4.6601 H   0  0  0  0  0  0  0  0  0  0  0  0  # atno 2515 bound_to 2510
   -3.2898  -16.6865   13.3976 H   0  0  0  0  0  0  0  0  0  0  0  0  # atno 3721 bound_to 3712
   -4.7924  -21.9893   11.5485 H   0  0  0  0  0  0  0  0  0  0  0  0  # atno 3767 bound_to 3762
    3.1065  -20.3349    8.5744 H   0  0  0  0  0  0  0  0  0  0  0  0  # atno 3841 bound_to 3832
    3.4699   -9.0266    3.7766 LP  0  0  0  0  0  0  0  0  0  0  0  0  # atno 4297 bound_to 1298
    4.8359   -8.8298    4.6495 LP  0  0  0  0  0  0  0  0  0  0  0  0  # atno 4298 bound_to 1298
    1.4472   -9.2183    8.4012 LP  0  0  0  0  0  0  0  0  0  0  0  0  # atno 4299 bound_to 2456
    1.9186   -8.0330    7.3817 LP  0  0  0  0  0  0  0  0  0  0  0  0  # atno 4300 bound_to 2456
    2.1226   -8.5744    6.0823 LP  0  0  0  0  0  0  0  0  0  0  0  0  # atno 4301 bound_to 2510
    2.3626   -7.4393    4.9331 LP  0  0  0  0  0  0  0  0  0  0  0  0  # atno 4302 bound_to 2510
   -2.6758  -18.1639   13.5318 LP  0  0  0  0  0  0  0  0  0  0  0  0  # atno 4306 bound_to 3712
   -3.0537  -17.2976   14.8635 LP  0  0  0  0  0  0  0  0  0  0  0  0  # atno 4307 bound_to 3712
    2.0126  -21.0043    9.5395 LP  0  0  0  0  0  0  0  0  0  0  0  0  # atno 4314 bound_to 3832
    1.6283  -19.7111    8.6194 LP  0  0  0  0  0  0  0  0  0  0  0  0  # atno 4315 bound_to 3832
   -3.9766  -23.2185   10.8481 LP  0  0  0  0  0  0  0  0  0  0  0  0  # atno 4318 bound_to 3762
   -5.3584  -22.6670   10.1748 LP  0  0  0  0  0  0  0  0  0  0  0  0  # atno 4319 bound_to 3762
   -5.1671   -5.4360    9.2113 LP  0  0  0  0  0  0  0  0  0  0  0  0  # atno 4320 bound_to 2467
   -4.9027   -4.8640    7.7048 LP  0  0  0  0  0  0  0  0  0  0  0  0  # atno 4321 bound_to 2467

> <Gold.Score>
     Score     S(PLP)   S(hbond)     S(cho)   S(metal)  DE(clash)   DE(tors)     intcor
     35.32     -35.82       0.00       0.00       0.00       0.00       0.45       0.39

> <Gold.PLP.Fitness>
35.3210

> <Gold.PLP.PLP>
-35.8181

> <Gold.PLP.part.hbond>
0.0000

> <Gold.PLP.part.metal>
0.0000

> <Gold.PLP.part.buried>
-1.0101

> <Gold.PLP.part.nonpolar>
-35.3980

> <Gold.PLP.part.repulsive>
0.0350

> <Gold.PLP.ligand.clash>
0.0000

> <Gold.PLP.ligand.torsion>
0.4460

> <Gold.PLP.Chemscore.Hbond>
0.0000

> <Gold.PLP.Chemscore.CHOScore>
0.0000

> <Gold.PLP.Chemscore.Metal>
0.0000

> <Gold.PLP.Chemscore.Internal.Correction>
0.3948

