#       Name:                EN300-67628_i001
#       Creating user name   fsindt
#       Creation time:       Mon Feb 27 21:54:58 2023


#       File generated by GOLD software.
#

@<TRIPOS>MOLECULE
EN300-67628_i001|amine_3|mol2|937|dock16
    38    39     1
SMALL
USER_CHARGES


@<TRIPOS>ATOM
      1 C1          -1.9639 -22.8422  15.5809 C.3            1 <1>                0.0000
      2 C2          -1.3808 -23.2632  14.2305 C.3            1 <1>                0.0000
      3 C3          -0.7129 -24.6329  14.3681 C.3            1 <1>                0.0000
      4 C4          -2.5029 -23.3449  13.1937 C.3            1 <1>                0.0000
      5 O5          -0.3963 -22.2856  13.8024 O.3            1 <1>                0.0000
      6 C6          -0.8627 -21.1087  13.3441 C.2            1 <1>                0.0000
      7 O7          -1.9107 -20.6637  13.7686 O.2            1 <1>                0.0000
      8 N8          -0.1671 -20.4241  12.4146 N.am           1 <1>                0.0000
      9 C9           1.0961 -20.9700  11.9093 C.3            1 <1>                0.0000
     10 C10          2.2705 -20.0928  12.3026 C.3            1 <1>                0.0000
     11 N11          2.0961 -18.7441  11.7403 N.pl3          1 <1>                0.0000
     12 C12          1.3623 -17.8151  12.4726 C.ar           1 <1>                0.0000
     13 C13          1.9756 -16.6999  13.0271 C.ar           1 <1>                0.0000
     14 C14          1.2373 -15.8207  13.7957 C.ar           1 <1>                0.0000
     15 C15         -0.1082 -16.0481  14.0188 C.ar           1 <1>                0.0000
     16 C16         -0.7296 -17.1477  13.4501 C.ar           1 <1>                0.0000
     17 C17         -0.0027 -18.0101  12.6628 C.ar           1 <1>                0.0000
     18 C18         -0.6859 -19.1490  11.9190 C.3            1 <1>                0.0000
     19 H19         -1.1644 -22.7841  16.3196 H              1 <1>                0.0000
     20 H20         -2.4396 -21.8664  15.4830 H              1 <1>                0.0000
     21 H21         -2.7029 -23.5762  15.9024 H              1 <1>                0.0000
     22 H22         -1.4520 -25.3668  14.6895 H              1 <1>                0.0000
     23 H23         -0.2976 -24.9329  13.4060 H              1 <1>                0.0000
     24 H24          0.0865 -24.5748  15.1067 H              1 <1>                0.0000
     25 H25         -2.9787 -22.3691  13.0957 H              1 <1>                0.0000
     26 H26         -2.0875 -23.6448  12.2316 H              1 <1>                0.0000
     27 H27         -3.2420 -24.0787  13.5150 H              1 <1>                0.0000
     28 H28          1.2432 -21.9690  12.3199 H              1 <1>                0.0000
     29 H29          1.0475 -21.0353  10.8223 H              1 <1>                0.0000
     30 H30          2.3262 -20.0278  13.3892 H              1 <1>                0.0000
     31 H31          3.1929 -20.5287  11.9190 H              1 <1>                0.0000
     32 H32          3.0271 -16.5204  12.8585 H              1 <1>                0.0000
     33 H33          1.7136 -14.9516  14.2247 H              1 <1>                0.0000
     34 H34         -0.6752 -15.3677  14.6367 H              1 <1>                0.0000
     35 H35         -1.7803 -17.3272  13.6241 H              1 <1>                0.0000
     36 H36         -0.4816 -19.0605  10.8520 H              1 <1>                0.0000
     37 H37         -1.7616 -19.1005  12.0887 H              1 <1>                0.0000
     38 H38          2.4825 -18.5087  10.8824 H              1 <1>                0.0000
@<TRIPOS>BOND
    1    1    2 1     
    2    1   19 1     
    3    1   20 1     
    4    1   21 1     
    5    2    3 1     
    6    2    4 1     
    7    2    5 1     
    8    3   22 1     
    9    3   23 1     
   10    3   24 1     
   11    4   25 1     
   12    4   26 1     
   13    4   27 1     
   14    5    6 1     
   15    6    7 2     
   16    6    8 am    
   17    8    9 1     
   18    8   18 1     
   19    9   10 1     
   20    9   28 1     
   21    9   29 1     
   22   10   11 1     
   23   10   30 1     
   24   10   31 1     
   25   11   12 1     
   26   11   38 1     
   27   12   13 ar    
   28   12   17 ar    
   29   13   14 ar    
   30   13   32 1     
   31   14   15 ar    
   32   14   33 1     
   33   15   16 ar    
   34   15   34 1     
   35   16   17 ar    
   36   16   35 1     
   37   17   18 1     
   38   18   36 1     
   39   18   37 1     
@<TRIPOS>SUBSTRUCTURE
      1 ****           1
@<TRIPOS>SET
DONOR_HYDROGENS      STATIC     ATOMS    <user>   **** ""
1 38
ATOM$RED        STATIC     ATOMS    COLORGROUP SYSTEM
1 38
@<TRIPOS>COMMENT
> <Gold.Version>
2022.2.0

> <Gold.Id.Protein>
3pbl|protein|mol2

> <Gold.Protein.RotatedTorsions>
[ 1303 1298 1297 1294 ] final   -4.92 input  179.99 | X-H torsion
[ 2461 2456 2455 2452 ] final   -2.36 input   30.03 | X-H torsion
[ 2515 2510 2509 2506 ] final  -68.76 input  -89.99 | X-H torsion
[ 3721 3712 3711 3710 ] final -164.06 input -179.91 | X-H torsion
[ 3841 3832 3831 3830 ] final  174.67 input -179.91 | X-H torsion
[ 3767 3762 3761 3758 ] final  -60.64 input  -89.99 | X-H torsion
[ 2472 2467 2466 2463 ] final -140.16 input  -89.97 | X-H torsion

> <Gold.Protein.ActiveResidues>
 VAL82   VAL86   LEU89   PHE106  VAL107  ASP110  VAL111  MET112  CYS114  THR115 
 CYS181  SER182  ILE183  PHE188  VAL189  ILE190  SER192  SER193  SER196  TRP342 
 PHE345  PHE346  HIS349  VAL350  TYR365  THR369  GLY372  TYR373 

> <Gold.Protein.RotatedAtoms>
    3.3636   -9.8066    4.0061 H   0  0  0  0  0  0  0  0  0  0  0  0  # atno 1303 bound_to 1298
    1.0044   -8.0013    7.0310 H   0  0  0  0  0  0  0  0  0  0  0  0  # atno 2461 bound_to 2456
   -4.8280   -5.4641    9.3906 H   0  0  0  0  0  0  0  0  0  0  0  0  # atno 2472 bound_to 2467
    2.8339   -8.6365    4.4283 H   0  0  0  0  0  0  0  0  0  0  0  0  # atno 2515 bound_to 2510
   -3.3389  -16.5420   13.7772 H   0  0  0  0  0  0  0  0  0  0  0  0  # atno 3721 bound_to 3712
   -5.4598  -22.0556   10.8186 H   0  0  0  0  0  0  0  0  0  0  0  0  # atno 3767 bound_to 3762
    3.0011  -20.1117    8.4398 H   0  0  0  0  0  0  0  0  0  0  0  0  # atno 3841 bound_to 3832
    4.3001   -8.4757    4.1398 LP  0  0  0  0  0  0  0  0  0  0  0  0  # atno 4297 bound_to 1298
    4.6987   -9.8389    4.9458 LP  0  0  0  0  0  0  0  0  0  0  0  0  # atno 4298 bound_to 1298
    0.6020   -9.1892    8.0771 LP  0  0  0  0  0  0  0  0  0  0  0  0  # atno 4299 bound_to 2456
    2.1312   -8.6176    8.0399 LP  0  0  0  0  0  0  0  0  0  0  0  0  # atno 4300 bound_to 2456
    2.2656   -8.9377    5.9290 LP  0  0  0  0  0  0  0  0  0  0  0  0  # atno 4301 bound_to 2510
    2.1970   -7.4248    5.3183 LP  0  0  0  0  0  0  0  0  0  0  0  0  # atno 4302 bound_to 2510
   -2.8353  -17.9413   13.1720 LP  0  0  0  0  0  0  0  0  0  0  0  0  # atno 4306 bound_to 3712
   -2.8376  -17.6870   14.7850 LP  0  0  0  0  0  0  0  0  0  0  0  0  # atno 4307 bound_to 3712
    2.2927  -21.1193    9.4689 LP  0  0  0  0  0  0  0  0  0  0  0  0  # atno 4314 bound_to 3832
    1.4698  -19.8540    8.8456 LP  0  0  0  0  0  0  0  0  0  0  0  0  # atno 4315 bound_to 3832
   -4.0894  -22.5410   11.5625 LP  0  0  0  0  0  0  0  0  0  0  0  0  # atno 4318 bound_to 3762
   -4.5785  -23.2782   10.1899 LP  0  0  0  0  0  0  0  0  0  0  0  0  # atno 4319 bound_to 3762
   -5.2258   -4.9653    7.8875 LP  0  0  0  0  0  0  0  0  0  0  0  0  # atno 4320 bound_to 2467
   -3.6631   -4.9642    8.3613 LP  0  0  0  0  0  0  0  0  0  0  0  0  # atno 4321 bound_to 2467

> <Gold.Score>
     Score     S(PLP)   S(hbond)     S(cho)   S(metal)  DE(clash)   DE(tors)     intcor
     36.08     -33.75       1.00       0.00       0.00       0.00       0.53       0.39

> <Gold.PLP.Fitness>
36.0824

> <Gold.PLP.PLP>
-33.7467

> <Gold.PLP.part.hbond>
-0.8455

> <Gold.PLP.part.metal>
0.0000

> <Gold.PLP.part.buried>
2.9487

> <Gold.PLP.part.nonpolar>
-36.3134

> <Gold.PLP.part.repulsive>
0.0000

> <Gold.PLP.ligand.clash>
0.0000

> <Gold.PLP.ligand.torsion>
0.5296

> <Gold.PLP.Chemscore.Hbond>
1.0000

> <Gold.PLP.Chemscore.CHOScore>
0.0000

> <Gold.PLP.Chemscore.Metal>
0.0000

> <Gold.Chemscore.Hbonds>
donor molecule, donor type, donor heavy atom, donor atom, acceptor molecule, acceptor atom, score
      L1  H    11    38       P1  1227  1.00

> <Gold.PLP.Chemscore.Internal.Correction>
0.3948

