#       Name:                EN300-67628_i001
#       Creating user name   fsindt
#       Creation time:       Mon Feb 27 21:54:53 2023


#       File generated by GOLD software.
#

@<TRIPOS>MOLECULE
EN300-67628_i001|amine_3|mol2|937|dock8
    38    39     1
SMALL
USER_CHARGES


@<TRIPOS>ATOM
      1 C1          -1.1541 -23.9749  16.7817 C.3            1 <1>                0.0000
      2 C2          -0.9784 -23.6344  15.3006 C.3            1 <1>                0.0000
      3 C3          -0.2153 -24.7633  14.6047 C.3            1 <1>                0.0000
      4 C4          -2.3526 -23.4701  14.6485 C.3            1 <1>                0.0000
      5 O5          -0.2313 -22.3957  15.1740 O.3            1 <1>                0.0000
      6 C6           0.1405 -22.0303  13.9327 C.2            1 <1>                0.0000
      7 O7          -0.3750 -22.5542  12.9650 O.2            1 <1>                0.0000
      8 N8           1.0844 -21.0831  13.7634 N.am           1 <1>                0.0000
      9 C9           1.6998 -20.4575  14.9375 C.3            1 <1>                0.0000
     10 C10          1.3499 -18.9830  15.0216 C.3            1 <1>                0.0000
     11 N11          1.8380 -18.2853  13.8214 N.pl3          1 <1>                0.0000
     12 C12          1.0159 -18.2528  12.6985 C.ar           1 <1>                0.0000
     13 C13          0.4558 -17.0608  12.2595 C.ar           1 <1>                0.0000
     14 C14         -0.4006 -17.0623  11.1753 C.ar           1 <1>                0.0000
     15 C15         -0.7058 -18.2453  10.5280 C.ar           1 <1>                0.0000
     16 C16         -0.1329 -19.4342  10.9487 C.ar           1 <1>                0.0000
     17 C17          0.7405 -19.4316  12.0112 C.ar           1 <1>                0.0000
     18 C18          1.4854 -20.6977  12.4101 C.3            1 <1>                0.0000
     19 H19         -0.1750 -24.0920  17.2463 H              1 <1>                0.0000
     20 H20         -1.6976 -23.1706  17.2775 H              1 <1>                0.0000
     21 H21         -1.7148 -24.9049  16.8767 H              1 <1>                0.0000
     22 H22         -0.7761 -25.6932  14.6997 H              1 <1>                0.0000
     23 H23         -0.0902 -24.5207  13.5494 H              1 <1>                0.0000
     24 H24          0.7637 -24.8804  15.0692 H              1 <1>                0.0000
     25 H25         -2.8961 -22.6658  15.1442 H              1 <1>                0.0000
     26 H26         -2.2274 -23.2274  13.5933 H              1 <1>                0.0000
     27 H27         -2.9134 -24.3999  14.7434 H              1 <1>                0.0000
     28 H28          1.3454 -20.9605  15.8373 H              1 <1>                0.0000
     29 H29          2.7827 -20.5643  14.8728 H              1 <1>                0.0000
     30 H30          0.2679 -18.8709  15.0910 H              1 <1>                0.0000
     31 H31          1.8155 -18.5500  15.9068 H              1 <1>                0.0000
     32 H32          0.6886 -16.1350  12.7645 H              1 <1>                0.0000
     33 H33         -0.8340 -16.1347  10.8319 H              1 <1>                0.0000
     34 H34         -1.3913 -18.2424   9.6935 H              1 <1>                0.0000
     35 H35         -0.3710 -20.3592  10.4446 H              1 <1>                0.0000
     36 H36          2.5590 -20.5108  12.3856 H              1 <1>                0.0000
     37 H37          1.2397 -21.4990  11.7131 H              1 <1>                0.0000
     38 H38          2.7092 -17.8591  13.8131 H              1 <1>                0.0000
@<TRIPOS>BOND
    1    1    2 1     
    2    1   19 1     
    3    1   20 1     
    4    1   21 1     
    5    2    3 1     
    6    2    4 1     
    7    2    5 1     
    8    3   22 1     
    9    3   23 1     
   10    3   24 1     
   11    4   25 1     
   12    4   26 1     
   13    4   27 1     
   14    5    6 1     
   15    6    7 2     
   16    6    8 am    
   17    8    9 1     
   18    8   18 1     
   19    9   10 1     
   20    9   28 1     
   21    9   29 1     
   22   10   11 1     
   23   10   30 1     
   24   10   31 1     
   25   11   12 1     
   26   11   38 1     
   27   12   13 ar    
   28   12   17 ar    
   29   13   14 ar    
   30   13   32 1     
   31   14   15 ar    
   32   14   33 1     
   33   15   16 ar    
   34   15   34 1     
   35   16   17 ar    
   36   16   35 1     
   37   17   18 1     
   38   18   36 1     
   39   18   37 1     
@<TRIPOS>SUBSTRUCTURE
      1 ****           1
@<TRIPOS>SET
DONOR_HYDROGENS      STATIC     ATOMS    <user>   **** ""
1 38
ATOM$RED        STATIC     ATOMS    COLORGROUP SYSTEM
1 38
@<TRIPOS>COMMENT
> <Gold.Version>
2022.2.0

> <Gold.Id.Protein>
3pbl|protein|mol2

> <Gold.Protein.RotatedTorsions>
[ 1303 1298 1297 1294 ] final -135.16 input  179.99 | X-H torsion
[ 2461 2456 2455 2452 ] final   35.81 input   30.03 | X-H torsion
[ 2515 2510 2509 2506 ] final  146.39 input  -89.99 | X-H torsion
[ 3721 3712 3711 3710 ] final -153.25 input -179.91 | X-H torsion
[ 3841 3832 3831 3830 ] final  112.59 input -179.91 | X-H torsion
[ 3767 3762 3761 3758 ] final   47.64 input  -89.99 | X-H torsion
[ 2472 2467 2466 2463 ] final -151.48 input  -89.97 | X-H torsion

> <Gold.Protein.ActiveResidues>
 VAL82   VAL86   LEU89   PHE106  VAL107  ASP110  VAL111  MET112  CYS114  THR115 
 CYS181  SER182  ILE183  PHE188  VAL189  ILE190  SER192  SER193  SER196  TRP342 
 PHE345  PHE346  HIS349  VAL350  TYR365  THR369  GLY372  TYR373 

> <Gold.Protein.RotatedAtoms>
    4.4339   -8.4933    4.2403 H   0  0  0  0  0  0  0  0  0  0  0  0  # atno 1303 bound_to 1298
    1.6019   -7.9259    7.1642 H   0  0  0  0  0  0  0  0  0  0  0  0  # atno 2461 bound_to 2456
   -5.0002   -5.4577    9.3204 H   0  0  0  0  0  0  0  0  0  0  0  0  # atno 2472 bound_to 2467
    2.1268   -8.5876    6.0795 H   0  0  0  0  0  0  0  0  0  0  0  0  # atno 2515 bound_to 2510
   -3.3314  -16.5298   13.9398 H   0  0  0  0  0  0  0  0  0  0  0  0  # atno 3721 bound_to 3712
   -4.7415  -23.2074   10.1161 H   0  0  0  0  0  0  0  0  0  0  0  0  # atno 3767 bound_to 3762
    3.0389  -20.7877    9.0217 H   0  0  0  0  0  0  0  0  0  0  0  0  # atno 3841 bound_to 3832
    4.5933   -9.9682    4.9227 LP  0  0  0  0  0  0  0  0  0  0  0  0  # atno 4297 bound_to 1298
    3.3349   -9.6601    3.9287 LP  0  0  0  0  0  0  0  0  0  0  0  0  # atno 4298 bound_to 1298
    0.3377   -8.8439    7.6400 LP  0  0  0  0  0  0  0  0  0  0  0  0  # atno 4299 bound_to 2456
    1.7983   -9.0381    8.3438 LP  0  0  0  0  0  0  0  0  0  0  0  0  # atno 4300 bound_to 2456
    2.3567   -7.4358    4.9454 LP  0  0  0  0  0  0  0  0  0  0  0  0  # atno 4301 bound_to 2510
    2.8134   -8.9755    4.6499 LP  0  0  0  0  0  0  0  0  0  0  0  0  # atno 4302 bound_to 2510
   -2.9165  -17.8152   13.0717 LP  0  0  0  0  0  0  0  0  0  0  0  0  # atno 4306 bound_to 3712
   -2.7651  -17.8271   14.6976 LP  0  0  0  0  0  0  0  0  0  0  0  0  # atno 4307 bound_to 3712
    1.5071  -20.5230    9.4214 LP  0  0  0  0  0  0  0  0  0  0  0  0  # atno 4314 bound_to 3832
    2.2118  -19.6694    8.2208 LP  0  0  0  0  0  0  0  0  0  0  0  0  # atno 4315 bound_to 3832
   -5.3870  -21.9817   10.9808 LP  0  0  0  0  0  0  0  0  0  0  0  0  # atno 4318 bound_to 3762
   -3.9989  -22.6862   11.4739 LP  0  0  0  0  0  0  0  0  0  0  0  0  # atno 4319 bound_to 3762
   -5.0810   -4.9120    7.7835 LP  0  0  0  0  0  0  0  0  0  0  0  0  # atno 4320 bound_to 2467
   -3.6357   -5.0239    8.5353 LP  0  0  0  0  0  0  0  0  0  0  0  0  # atno 4321 bound_to 2467

> <Gold.Score>
     Score     S(PLP)   S(hbond)     S(cho)   S(metal)  DE(clash)   DE(tors)     intcor
     39.41     -39.49       0.00       0.00       0.00       0.00       0.24       0.39

> <Gold.PLP.Fitness>
39.4094

> <Gold.PLP.PLP>
-39.4886

> <Gold.PLP.part.hbond>
0.0000

> <Gold.PLP.part.metal>
0.0000

> <Gold.PLP.part.buried>
-4.9045

> <Gold.PLP.part.nonpolar>
-35.4425

> <Gold.PLP.part.repulsive>
0.0000

> <Gold.PLP.ligand.clash>
0.0000

> <Gold.PLP.ligand.torsion>
0.2370

> <Gold.PLP.Chemscore.Hbond>
0.0000

> <Gold.PLP.Chemscore.CHOScore>
0.0000

> <Gold.PLP.Chemscore.Metal>
0.0000

> <Gold.PLP.Chemscore.Internal.Correction>
0.3948

