#       Name:                EN300-67628_i001
#       Creating user name   fsindt
#       Creation time:       Mon Feb 27 21:54:50 2023


#       File generated by GOLD software.
#

@<TRIPOS>MOLECULE
EN300-67628_i001|amine_3|mol2|937|dock3
    38    39     1
SMALL
USER_CHARGES


@<TRIPOS>ATOM
      1 C1           0.2874 -12.8011   8.9197 C.3            1 <1>                0.0000
      2 C2           0.2457 -14.2374   8.3944 C.3            1 <1>                0.0000
      3 C3          -0.9494 -14.4017   7.4532 C.3            1 <1>                0.0000
      4 C4           1.5386 -14.5403   7.6344 C.3            1 <1>                0.0000
      5 O5           0.1131 -15.1573   9.5100 O.3            1 <1>                0.0000
      6 C6           1.0061 -15.0375  10.5104 C.2            1 <1>                0.0000
      7 O7           2.0264 -14.3998  10.3410 O.2            1 <1>                0.0000
      8 N8           0.7682 -15.6250  11.7000 N.am           1 <1>                0.0000
      9 C9           1.7470 -15.4884  12.7826 C.3            1 <1>                0.0000
     10 C10          2.3720 -16.8269  13.1308 C.3            1 <1>                0.0000
     11 N11          1.3279 -17.7652  13.5722 N.pl3          1 <1>                0.0000
     12 C12          0.6593 -18.5094  12.6043 C.ar           1 <1>                0.0000
     13 C13          0.8231 -19.8857  12.5244 C.ar           1 <1>                0.0000
     14 C14          0.1919 -20.5956  11.5212 C.ar           1 <1>                0.0000
     15 C15         -0.5984 -19.9419  10.5939 C.ar           1 <1>                0.0000
     16 C16         -0.7822 -18.5718  10.6820 C.ar           1 <1>                0.0000
     17 C17         -0.1763 -17.8665  11.6955 C.ar           1 <1>                0.0000
     18 C18         -0.4664 -16.3856  11.8951 C.3            1 <1>                0.0000
     19 H19         -0.6337 -12.5854   9.4611 H              1 <1>                0.0000
     20 H20          1.1388 -12.6841   9.5903 H              1 <1>                0.0000
     21 H21          0.3869 -12.1106   8.0822 H              1 <1>                0.0000
     22 H22         -0.8499 -13.7112   6.6157 H              1 <1>                0.0000
     23 H23         -0.9792 -15.4250   7.0789 H              1 <1>                0.0000
     24 H24         -1.8706 -14.1859   7.9946 H              1 <1>                0.0000
     25 H25          2.3900 -14.4233   8.3050 H              1 <1>                0.0000
     26 H26          1.5088 -15.5636   7.2602 H              1 <1>                0.0000
     27 H27          1.6382 -13.8499   6.7969 H              1 <1>                0.0000
     28 H28          2.5311 -14.7985  12.4703 H              1 <1>                0.0000
     29 H29          1.2495 -15.0862  13.6652 H              1 <1>                0.0000
     30 H30          2.8748 -17.2314  12.2524 H              1 <1>                0.0000
     31 H31          3.0984 -16.6902  13.9319 H              1 <1>                0.0000
     32 H32          1.4425 -20.3999  13.2443 H              1 <1>                0.0000
     33 H33          0.3168 -21.6666  11.4607 H              1 <1>                0.0000
     34 H34         -1.0731 -20.5000   9.8005 H              1 <1>                0.0000
     35 H35         -1.3986 -18.0596   9.9580 H              1 <1>                0.0000
     36 H36         -0.8415 -16.2216  12.9053 H              1 <1>                0.0000
     37 H37         -1.2147 -16.0609  11.1721 H              1 <1>                0.0000
     38 H38          1.1115 -17.8627  14.5127 H              1 <1>                0.0000
@<TRIPOS>BOND
    1    1    2 1     
    2    1   19 1     
    3    1   20 1     
    4    1   21 1     
    5    2    3 1     
    6    2    4 1     
    7    2    5 1     
    8    3   22 1     
    9    3   23 1     
   10    3   24 1     
   11    4   25 1     
   12    4   26 1     
   13    4   27 1     
   14    5    6 1     
   15    6    7 2     
   16    6    8 am    
   17    8    9 1     
   18    8   18 1     
   19    9   10 1     
   20    9   28 1     
   21    9   29 1     
   22   10   11 1     
   23   10   30 1     
   24   10   31 1     
   25   11   12 1     
   26   11   38 1     
   27   12   13 ar    
   28   12   17 ar    
   29   13   14 ar    
   30   13   32 1     
   31   14   15 ar    
   32   14   33 1     
   33   15   16 ar    
   34   15   34 1     
   35   16   17 ar    
   36   16   35 1     
   37   17   18 1     
   38   18   36 1     
   39   18   37 1     
@<TRIPOS>SUBSTRUCTURE
      1 ****           1
@<TRIPOS>SET
DONOR_HYDROGENS      STATIC     ATOMS    <user>   **** ""
1 38
ATOM$RED        STATIC     ATOMS    COLORGROUP SYSTEM
1 38
@<TRIPOS>COMMENT
> <Gold.Version>
2022.2.0

> <Gold.Id.Protein>
3pbl|protein|mol2

> <Gold.Protein.RotatedTorsions>
[ 1303 1298 1297 1294 ] final -164.45 input  179.99 | X-H torsion
[ 2461 2456 2455 2452 ] final   51.20 input   30.03 | X-H torsion
[ 2515 2510 2509 2506 ] final -178.35 input  -89.99 | X-H torsion
[ 3721 3712 3711 3710 ] final -104.50 input -179.91 | X-H torsion
[ 3841 3832 3831 3830 ] final   24.44 input -179.91 | X-H torsion
[ 3767 3762 3761 3758 ] final   94.73 input  -89.99 | X-H torsion
[ 2472 2467 2466 2463 ] final -124.45 input  -89.97 | X-H torsion

> <Gold.Protein.ActiveResidues>
 VAL82   VAL86   LEU89   PHE106  VAL107  ASP110  VAL111  MET112  CYS114  THR115 
 CYS181  SER182  ILE183  PHE188  VAL189  ILE190  SER192  SER193  SER196  TRP342 
 PHE345  PHE346  HIS349  VAL350  TYR365  THR369  GLY372  TYR373 

> <Gold.Protein.RotatedAtoms>
    4.7492   -8.6928    4.5368 H   0  0  0  0  0  0  0  0  0  0  0  0  # atno 1303 bound_to 1298
    1.8130   -7.9799    7.2918 H   0  0  0  0  0  0  0  0  0  0  0  0  # atno 2461 bound_to 2456
   -4.5742   -5.4515    9.4331 H   0  0  0  0  0  0  0  0  0  0  0  0  # atno 2472 bound_to 2467
    2.3350   -9.0539    5.8243 H   0  0  0  0  0  0  0  0  0  0  0  0  # atno 2515 bound_to 2510
   -3.1256  -16.7908   14.5727 H   0  0  0  0  0  0  0  0  0  0  0  0  # atno 3721 bound_to 3712
   -4.1440  -23.3194   10.5611 H   0  0  0  0  0  0  0  0  0  0  0  0  # atno 3767 bound_to 3762
    1.9963  -20.7374    9.6223 H   0  0  0  0  0  0  0  0  0  0  0  0  # atno 3841 bound_to 3832
    4.2224  -10.2217    4.7633 LP  0  0  0  0  0  0  0  0  0  0  0  0  # atno 4297 bound_to 1298
    3.3904   -9.2070    3.7914 LP  0  0  0  0  0  0  0  0  0  0  0  0  # atno 4298 bound_to 1298
    0.3401   -8.6649    7.4620 LP  0  0  0  0  0  0  0  0  0  0  0  0  # atno 4299 bound_to 2456
    1.5848   -9.1632    8.3942 LP  0  0  0  0  0  0  0  0  0  0  0  0  # atno 4300 bound_to 2456
    2.1416   -7.4711    5.4733 LP  0  0  0  0  0  0  0  0  0  0  0  0  # atno 4301 bound_to 2510
    2.8202   -8.4737    4.3774 LP  0  0  0  0  0  0  0  0  0  0  0  0  # atno 4302 bound_to 2510
   -3.3121  -17.1335   13.0153 LP  0  0  0  0  0  0  0  0  0  0  0  0  # atno 4306 bound_to 3712
   -2.6071  -18.2075   14.0233 LP  0  0  0  0  0  0  0  0  0  0  0  0  # atno 4307 bound_to 3712
    1.7983  -19.6495    8.4590 LP  0  0  0  0  0  0  0  0  0  0  0  0  # atno 4314 bound_to 3832
    3.1251  -20.6009    8.4894 LP  0  0  0  0  0  0  0  0  0  0  0  0  # atno 4315 bound_to 3832
   -5.4848  -22.4076   10.3674 LP  0  0  0  0  0  0  0  0  0  0  0  0  # atno 4318 bound_to 3762
   -4.4983  -22.1483   11.6426 LP  0  0  0  0  0  0  0  0  0  0  0  0  # atno 4319 bound_to 3762
   -5.3835   -5.0495    8.0730 LP  0  0  0  0  0  0  0  0  0  0  0  0  # atno 4320 bound_to 2467
   -3.7592   -4.8926    8.1332 LP  0  0  0  0  0  0  0  0  0  0  0  0  # atno 4321 bound_to 2467

> <Gold.Score>
     Score     S(PLP)   S(hbond)     S(cho)   S(metal)  DE(clash)   DE(tors)     intcor
     40.74     -40.82       0.00       0.00       0.00       0.00       0.24       0.40

> <Gold.PLP.Fitness>
40.7426

> <Gold.PLP.PLP>
-40.8232

> <Gold.PLP.part.hbond>
0.0000

> <Gold.PLP.part.metal>
0.0000

> <Gold.PLP.part.buried>
-2.1952

> <Gold.PLP.part.nonpolar>
-40.3491

> <Gold.PLP.part.repulsive>
0.2375

> <Gold.PLP.ligand.clash>
0.0000

> <Gold.PLP.ligand.torsion>
0.2378

> <Gold.PLP.Chemscore.Hbond>
0.0000

> <Gold.PLP.Chemscore.CHOScore>
0.0000

> <Gold.PLP.Chemscore.Metal>
0.0000

> <Gold.PLP.Chemscore.Internal.Correction>
0.3950

