#       Name:                EN300-67628_i001
#       Creating user name   fsindt
#       Creation time:       Mon Feb 27 21:54:50 2023


#       File generated by GOLD software.
#

@<TRIPOS>MOLECULE
EN300-67628_i001|amine_3|mol2|937|dock4
    38    39     1
SMALL
USER_CHARGES


@<TRIPOS>ATOM
      1 C1          -2.8247 -11.2947  11.0805 C.3            1 <1>                0.0000
      2 C2          -1.7607 -10.6859  10.1651 C.3            1 <1>                0.0000
      3 C3          -2.3957  -9.5950   9.3003 C.3            1 <1>                0.0000
      4 C4          -0.6440 -10.0771  11.0155 C.3            1 <1>                0.0000
      5 O5          -1.2083 -11.7211   9.3097 O.3            1 <1>                0.0000
      6 C6          -0.4904 -12.6900   9.9085 C.2            1 <1>                0.0000
      7 O7          -0.5391 -12.8248  11.1151 O.2            1 <1>                0.0000
      8 N8           0.2821 -13.5108   9.1693 N.am           1 <1>                0.0000
      9 C9           0.3335 -13.3396   7.7144 C.3            1 <1>                0.0000
     10 C10         -0.2626 -14.5377   6.9984 C.3            1 <1>                0.0000
     11 N11          0.4929 -15.7522   7.3444 N.pl3          1 <1>                0.0000
     12 C12          0.1239 -16.4537   8.4887 C.ar           1 <1>                0.0000
     13 C13         -0.4356 -17.7211   8.3984 C.ar           1 <1>                0.0000
     14 C14         -0.8440 -18.3751   9.5448 C.ar           1 <1>                0.0000
     15 C15         -0.7022 -17.7721  10.7810 C.ar           1 <1>                0.0000
     16 C16         -0.1250 -16.5168  10.8785 C.ar           1 <1>                0.0000
     17 C17          0.3066 -15.8747   9.7413 C.ar           1 <1>                0.0000
     18 C18          1.0628 -14.5567   9.8306 C.3            1 <1>                0.0000
     19 H19         -3.6202 -11.7284  10.4747 H              1 <1>                0.0000
     20 H20         -2.3724 -12.0719  11.6965 H              1 <1>                0.0000
     21 H21         -3.2395 -10.5176  11.7225 H              1 <1>                0.0000
     22 H22         -2.8104  -8.8179   9.9423 H              1 <1>                0.0000
     23 H23         -1.6376  -9.1612   8.6481 H              1 <1>                0.0000
     24 H24         -3.1912 -10.0287   8.6944 H              1 <1>                0.0000
     25 H25         -0.1917 -10.8543  11.6315 H              1 <1>                0.0000
     26 H26          0.1140  -9.6434  10.3632 H              1 <1>                0.0000
     27 H27         -1.0587  -9.3000  11.6575 H              1 <1>                0.0000
     28 H28         -0.2256 -12.4450   7.4399 H              1 <1>                0.0000
     29 H29          1.3719 -13.2193   7.4054 H              1 <1>                0.0000
     30 H30         -1.3028 -14.6597   7.3007 H              1 <1>                0.0000
     31 H31         -0.2160 -14.3764   5.9215 H              1 <1>                0.0000
     32 H32         -0.5516 -18.1942   7.4345 H              1 <1>                0.0000
     33 H33         -1.2765 -19.3621   9.4750 H              1 <1>                0.0000
     34 H34         -1.0416 -18.2805  11.6713 H              1 <1>                0.0000
     35 H35         -0.0143 -16.0442  11.8433 H              1 <1>                0.0000
     36 H36          2.0299 -14.6583   9.3381 H              1 <1>                0.0000
     37 H37          1.2137 -14.2943  10.8778 H              1 <1>                0.0000
     38 H38          1.2281 -16.0560   6.7896 H              1 <1>                0.0000
@<TRIPOS>BOND
    1    1    2 1     
    2    1   19 1     
    3    1   20 1     
    4    1   21 1     
    5    2    3 1     
    6    2    4 1     
    7    2    5 1     
    8    3   22 1     
    9    3   23 1     
   10    3   24 1     
   11    4   25 1     
   12    4   26 1     
   13    4   27 1     
   14    5    6 1     
   15    6    7 2     
   16    6    8 am    
   17    8    9 1     
   18    8   18 1     
   19    9   10 1     
   20    9   28 1     
   21    9   29 1     
   22   10   11 1     
   23   10   30 1     
   24   10   31 1     
   25   11   12 1     
   26   11   38 1     
   27   12   13 ar    
   28   12   17 ar    
   29   13   14 ar    
   30   13   32 1     
   31   14   15 ar    
   32   14   33 1     
   33   15   16 ar    
   34   15   34 1     
   35   16   17 ar    
   36   16   35 1     
   37   17   18 1     
   38   18   36 1     
   39   18   37 1     
@<TRIPOS>SUBSTRUCTURE
      1 ****           1
@<TRIPOS>SET
DONOR_HYDROGENS      STATIC     ATOMS    <user>   **** ""
1 38
ATOM$RED        STATIC     ATOMS    COLORGROUP SYSTEM
1 38
@<TRIPOS>COMMENT
> <Gold.Version>
2022.2.0

> <Gold.Id.Protein>
3pbl|protein|mol2

> <Gold.Protein.RotatedTorsions>
[ 1303 1298 1297 1294 ] final  166.13 input  179.99 | X-H torsion
[ 2461 2456 2455 2452 ] final -177.37 input   30.03 | X-H torsion
[ 2515 2510 2509 2506 ] final  115.43 input  -89.99 | X-H torsion
[ 3721 3712 3711 3710 ] final   23.35 input -179.91 | X-H torsion
[ 3841 3832 3831 3830 ] final   78.74 input -179.91 | X-H torsion
[ 3767 3762 3761 3758 ] final  140.42 input  -89.99 | X-H torsion
[ 2472 2467 2466 2463 ] final  165.58 input  -89.97 | X-H torsion

> <Gold.Protein.ActiveResidues>
 VAL82   VAL86   LEU89   PHE106  VAL107  ASP110  VAL111  MET112  CYS114  THR115 
 CYS181  SER182  ILE183  PHE188  VAL189  ILE190  SER192  SER193  SER196  TRP342 
 PHE345  PHE346  HIS349  VAL350  TYR365  THR369  GLY372  TYR373 

> <Gold.Protein.RotatedAtoms>
    4.9040   -9.0684    4.7901 H   0  0  0  0  0  0  0  0  0  0  0  0  # atno 1303 bound_to 1298
    1.4096   -9.2306    8.4004 H   0  0  0  0  0  0  0  0  0  0  0  0  # atno 2461 bound_to 2456
   -5.4540   -5.3264    8.8173 H   0  0  0  0  0  0  0  0  0  0  0  0  # atno 2472 bound_to 2467
    2.0347   -8.0943    6.0456 H   0  0  0  0  0  0  0  0  0  0  0  0  # atno 2515 bound_to 2510
   -2.4733  -18.0334   13.9006 H   0  0  0  0  0  0  0  0  0  0  0  0  # atno 3721 bound_to 3712
   -3.9066  -23.0027   11.1772 H   0  0  0  0  0  0  0  0  0  0  0  0  # atno 3767 bound_to 3762
    2.7137  -20.9517    9.3699 H   0  0  0  0  0  0  0  0  0  0  0  0  # atno 3841 bound_to 3832
    3.8238  -10.2582    4.5005 LP  0  0  0  0  0  0  0  0  0  0  0  0  # atno 4297 bound_to 1298
    3.6340   -8.7949    3.8008 LP  0  0  0  0  0  0  0  0  0  0  0  0  # atno 4298 bound_to 1298
    1.9440   -8.0495    7.4070 LP  0  0  0  0  0  0  0  0  0  0  0  0  # atno 4299 bound_to 2456
    0.3842   -8.5283    7.3409 LP  0  0  0  0  0  0  0  0  0  0  0  0  # atno 4300 bound_to 2456
    2.5714   -7.6788    4.5606 LP  0  0  0  0  0  0  0  0  0  0  0  0  # atno 4301 bound_to 2510
    2.6907   -9.2261    5.0687 LP  0  0  0  0  0  0  0  0  0  0  0  0  # atno 4302 bound_to 2510
   -3.2845  -16.9170   14.7213 LP  0  0  0  0  0  0  0  0  0  0  0  0  # atno 4306 bound_to 3712
   -3.3877  -16.9895   13.0932 LP  0  0  0  0  0  0  0  0  0  0  0  0  # atno 4307 bound_to 3712
    1.3914  -20.0831    9.0993 LP  0  0  0  0  0  0  0  0  0  0  0  0  # atno 4314 bound_to 3832
    2.7032  -19.9197    8.1407 LP  0  0  0  0  0  0  0  0  0  0  0  0  # atno 4315 bound_to 3832
   -5.1047  -22.9573   10.0684 LP  0  0  0  0  0  0  0  0  0  0  0  0  # atno 4318 bound_to 3762
   -5.1157  -21.9151   11.3256 LP  0  0  0  0  0  0  0  0  0  0  0  0  # atno 4319 bound_to 3762
   -4.4081   -4.8003    7.6790 LP  0  0  0  0  0  0  0  0  0  0  0  0  # atno 4320 bound_to 2467
   -3.8550   -5.2670    9.1429 LP  0  0  0  0  0  0  0  0  0  0  0  0  # atno 4321 bound_to 2467

> <Gold.Score>
     Score     S(PLP)   S(hbond)     S(cho)   S(metal)  DE(clash)   DE(tors)     intcor
     50.29     -50.31       0.00       0.00       0.00       0.00       0.21       0.39

> <Gold.PLP.Fitness>
50.2926

> <Gold.PLP.PLP>
-50.3083

> <Gold.PLP.part.hbond>
0.0000

> <Gold.PLP.part.metal>
0.0000

> <Gold.PLP.part.buried>
1.1127

> <Gold.PLP.part.nonpolar>
-53.7793

> <Gold.PLP.part.repulsive>
0.0222

> <Gold.PLP.ligand.clash>
0.0000

> <Gold.PLP.ligand.torsion>
0.2052

> <Gold.PLP.Chemscore.Hbond>
0.0000

> <Gold.PLP.Chemscore.CHOScore>
0.0000

> <Gold.PLP.Chemscore.Metal>
0.0000

> <Gold.PLP.Chemscore.Internal.Correction>
0.3948

