#       Name:                EN300-67628_i001
#       Creating user name   fsindt
#       Creation time:       Mon Feb 27 21:54:57 2023


#       File generated by GOLD software.
#

@<TRIPOS>MOLECULE
EN300-67628_i001|amine_3|mol2|937|dock15
    38    39     1
SMALL
USER_CHARGES


@<TRIPOS>ATOM
      1 C1          -3.2069  -9.9006   8.7426 C.3            1 <1>                0.0000
      2 C2          -2.5425 -10.4799   9.9931 C.3            1 <1>                0.0000
      3 C3          -1.4658  -9.5142  10.4923 C.3            1 <1>                0.0000
      4 C4          -3.5959 -10.6779  11.0849 C.3            1 <1>                0.0000
      5 O5          -1.9340 -11.7580   9.6700 O.3            1 <1>                0.0000
      6 C6          -1.0843 -12.2770  10.5764 C.2            1 <1>                0.0000
      7 O7          -1.1632 -11.9455  11.7427 O.2            1 <1>                0.0000
      8 N8          -0.1464 -13.1644  10.1900 N.am           1 <1>                0.0000
      9 C9          -0.0599 -13.5576   8.7804 C.3            1 <1>                0.0000
     10 C10         -0.4022 -15.0248   8.5969 C.3            1 <1>                0.0000
     11 N11          0.5393 -15.8563   9.3636 N.pl3          1 <1>                0.0000
     12 C12          0.2484 -16.1198  10.6991 C.ar           1 <1>                0.0000
     13 C13         -0.0741 -17.4034  11.1184 C.ar           1 <1>                0.0000
     14 C14         -0.4123 -17.6302  12.4387 C.ar           1 <1>                0.0000
     15 C15         -0.4355 -16.5848  13.3433 C.ar           1 <1>                0.0000
     16 C16         -0.0938 -15.3061  12.9347 C.ar           1 <1>                0.0000
     17 C17          0.2689 -15.0824  11.6270 C.ar           1 <1>                0.0000
     18 C18          0.7758 -13.7178  11.1820 C.3            1 <1>                0.0000
     19 H19         -2.4564  -9.7595   7.9648 H              1 <1>                0.0000
     20 H20         -3.9738 -10.5886   8.3868 H              1 <1>                0.0000
     21 H21         -3.6636  -8.9411   8.9851 H              1 <1>                0.0000
     22 H22         -1.9226  -8.5548  10.7349 H              1 <1>                0.0000
     23 H23         -0.9925  -9.9268  11.3833 H              1 <1>                0.0000
     24 H24         -0.7154  -9.3731   9.7145 H              1 <1>                0.0000
     25 H25         -4.3628 -11.3659  10.7292 H              1 <1>                0.0000
     26 H26         -3.1225 -11.0906  11.9758 H              1 <1>                0.0000
     27 H27         -4.0526  -9.7185  11.3275 H              1 <1>                0.0000
     28 H28         -0.7550 -12.9531   8.1977 H              1 <1>                0.0000
     29 H29          0.9539 -13.3799   8.4216 H              1 <1>                0.0000
     30 H30         -1.4171 -15.2070   8.9503 H              1 <1>                0.0000
     31 H31         -0.3358 -15.2829   7.5401 H              1 <1>                0.0000
     32 H32         -0.0609 -18.2222  10.4144 H              1 <1>                0.0000
     33 H33         -0.6603 -18.6292  12.7656 H              1 <1>                0.0000
     34 H34         -0.7199 -16.7654  14.3693 H              1 <1>                0.0000
     35 H35         -0.1123 -14.4883  13.6400 H              1 <1>                0.0000
     36 H36          1.7670 -13.8243  10.7412 H              1 <1>                0.0000
     37 H37          0.8303 -13.0517  12.0431 H              1 <1>                0.0000
     38 H38          1.3411 -16.2115   8.9492 H              1 <1>                0.0000
@<TRIPOS>BOND
    1    1    2 1     
    2    1   19 1     
    3    1   20 1     
    4    1   21 1     
    5    2    3 1     
    6    2    4 1     
    7    2    5 1     
    8    3   22 1     
    9    3   23 1     
   10    3   24 1     
   11    4   25 1     
   12    4   26 1     
   13    4   27 1     
   14    5    6 1     
   15    6    7 2     
   16    6    8 am    
   17    8    9 1     
   18    8   18 1     
   19    9   10 1     
   20    9   28 1     
   21    9   29 1     
   22   10   11 1     
   23   10   30 1     
   24   10   31 1     
   25   11   12 1     
   26   11   38 1     
   27   12   13 ar    
   28   12   17 ar    
   29   13   14 ar    
   30   13   32 1     
   31   14   15 ar    
   32   14   33 1     
   33   15   16 ar    
   34   15   34 1     
   35   16   17 ar    
   36   16   35 1     
   37   17   18 1     
   38   18   36 1     
   39   18   37 1     
@<TRIPOS>SUBSTRUCTURE
      1 ****           1
@<TRIPOS>SET
DONOR_HYDROGENS      STATIC     ATOMS    <user>   **** ""
1 38
ATOM$RED        STATIC     ATOMS    COLORGROUP SYSTEM
1 38
@<TRIPOS>COMMENT
> <Gold.Version>
2022.2.0

> <Gold.Id.Protein>
3pbl|protein|mol2

> <Gold.Protein.RotatedTorsions>
[ 1303 1298 1297 1294 ] final -159.60 input  179.99 | X-H torsion
[ 2461 2456 2455 2452 ] final -113.18 input   30.03 | X-H torsion
[ 2515 2510 2509 2506 ] final  -65.96 input  -89.99 | X-H torsion
[ 3721 3712 3711 3710 ] final -108.89 input -179.91 | X-H torsion
[ 3841 3832 3831 3830 ] final  -60.63 input -179.91 | X-H torsion
[ 3767 3762 3761 3758 ] final  -99.85 input  -89.99 | X-H torsion
[ 2472 2467 2466 2463 ] final  115.64 input  -89.97 | X-H torsion

> <Gold.Protein.ActiveResidues>
 VAL82   VAL86   LEU89   PHE106  VAL107  ASP110  VAL111  MET112  CYS114  THR115 
 CYS181  SER182  ILE183  PHE188  VAL189  ILE190  SER192  SER193  SER196  TRP342 
 PHE345  PHE346  HIS349  VAL350  TYR365  THR369  GLY372  TYR373 

> <Gold.Protein.RotatedAtoms>
    4.7064   -8.6458    4.4888 H   0  0  0  0  0  0  0  0  0  0  0  0  # atno 1303 bound_to 1298
    0.5063   -9.1250    7.9797 H   0  0  0  0  0  0  0  0  0  0  0  0  # atno 2461 bound_to 2456
   -5.3842   -5.0507    8.0739 H   0  0  0  0  0  0  0  0  0  0  0  0  # atno 2472 bound_to 2467
    2.8315   -8.5934    4.4120 H   0  0  0  0  0  0  0  0  0  0  0  0  # atno 2515 bound_to 2510
   -3.1535  -16.7486   14.5298 H   0  0  0  0  0  0  0  0  0  0  0  0  # atno 3721 bound_to 3712
   -5.1122  -21.9146   11.3283 H   0  0  0  0  0  0  0  0  0  0  0  0  # atno 3767 bound_to 3762
    1.6164  -19.8062    9.0237 H   0  0  0  0  0  0  0  0  0  0  0  0  # atno 3841 bound_to 3832
    4.2883  -10.1936    4.7983 LP  0  0  0  0  0  0  0  0  0  0  0  0  # atno 4297 bound_to 1298
    3.3673   -9.2822    3.8045 LP  0  0  0  0  0  0  0  0  0  0  0  0  # atno 4298 bound_to 1298
    2.0828   -8.7268    8.1321 LP  0  0  0  0  0  0  0  0  0  0  0  0  # atno 4299 bound_to 2456
    1.1485   -7.9565    7.0365 LP  0  0  0  0  0  0  0  0  0  0  0  0  # atno 4300 bound_to 2456
    2.2838   -8.9712    5.9030 LP  0  0  0  0  0  0  0  0  0  0  0  0  # atno 4301 bound_to 2510
    2.1812   -7.4344    5.3606 LP  0  0  0  0  0  0  0  0  0  0  0  0  # atno 4302 bound_to 2510
   -3.2789  -17.1949   12.9926 LP  0  0  0  0  0  0  0  0  0  0  0  0  # atno 4306 bound_to 3712
   -2.6079  -18.1948   14.0955 LP  0  0  0  0  0  0  0  0  0  0  0  0  # atno 4307 bound_to 3712
    2.9539  -20.1814    8.2197 LP  0  0  0  0  0  0  0  0  0  0  0  0  # atno 4314 bound_to 3832
    2.4083  -21.1448    9.4201 LP  0  0  0  0  0  0  0  0  0  0  0  0  # atno 4315 bound_to 3832
   -3.9072  -23.0060   11.1741 LP  0  0  0  0  0  0  0  0  0  0  0  0  # atno 4318 bound_to 3762
   -5.1082  -22.9542   10.0689 LP  0  0  0  0  0  0  0  0  0  0  0  0  # atno 4319 bound_to 3762
   -3.7600   -4.8921    8.1318 LP  0  0  0  0  0  0  0  0  0  0  0  0  # atno 4320 bound_to 2467
   -4.5729   -5.4506    9.4334 LP  0  0  0  0  0  0  0  0  0  0  0  0  # atno 4321 bound_to 2467

> <Gold.Score>
     Score     S(PLP)   S(hbond)     S(cho)   S(metal)  DE(clash)   DE(tors)     intcor
     36.74     -35.28       0.66       0.00       0.00       0.00       0.46       0.39

> <Gold.PLP.Fitness>
36.7355

> <Gold.PLP.PLP>
-35.2828

> <Gold.PLP.part.hbond>
-1.0000

> <Gold.PLP.part.metal>
0.0000

> <Gold.PLP.part.buried>
-0.2621

> <Gold.PLP.part.nonpolar>
-34.4533

> <Gold.PLP.part.repulsive>
0.0383

> <Gold.PLP.ligand.clash>
0.0000

> <Gold.PLP.ligand.torsion>
0.4550

> <Gold.PLP.Chemscore.Hbond>
0.6560

> <Gold.PLP.Chemscore.CHOScore>
0.0000

> <Gold.PLP.Chemscore.Metal>
0.0000

> <Gold.Chemscore.Hbonds>
donor molecule, donor type, donor heavy atom, donor atom, acceptor molecule, acceptor atom, score
      L1  H    11    38       P1  1227  0.66

> <Gold.PLP.Chemscore.Internal.Correction>
0.3948

