#       Name:                EN300-67628_i001
#       Creating user name   fsindt
#       Creation time:       Mon Feb 27 21:55:00 2023


#       File generated by GOLD software.
#

@<TRIPOS>MOLECULE
EN300-67628_i001|amine_3|mol2|937|dock19
    38    39     1
SMALL
USER_CHARGES


@<TRIPOS>ATOM
      1 C1          -3.4416 -11.4265  10.1873 C.3            1 <1>                0.0000
      2 C2          -2.1886 -10.5555  10.0769 C.3            1 <1>                0.0000
      3 C3          -2.5505  -9.2226   9.4185 C.3            1 <1>                0.0000
      4 C4          -1.6225 -10.2968  11.4746 C.3            1 <1>                0.0000
      5 O5          -1.1934 -11.2391   9.2704 O.3            1 <1>                0.0000
      6 C6          -0.6540 -12.3600   9.7856 C.2            1 <1>                0.0000
      7 O7          -1.1831 -12.9097  10.7313 O.2            1 <1>                0.0000
      8 N8           0.4729 -12.8722   9.2523 N.am           1 <1>                0.0000
      9 C9           1.1031 -12.2011   8.1116 C.3            1 <1>                0.0000
     10 C10          1.0533 -13.0686   6.8672 C.3            1 <1>                0.0000
     11 N11          1.7700 -14.3307   7.1100 N.pl3          1 <1>                0.0000
     12 C12          1.0672 -15.3878   7.6813 C.ar           1 <1>                0.0000
     13 C13          0.7984 -16.5400   6.9551 C.ar           1 <1>                0.0000
     14 C14          0.0520 -17.5532   7.5254 C.ar           1 <1>                0.0000
     15 C15         -0.4319 -17.4236   8.8141 C.ar           1 <1>                0.0000
     16 C16         -0.1484 -16.2852   9.5505 C.ar           1 <1>                0.0000
     17 C17          0.6166 -15.2866   8.9945 C.ar           1 <1>                0.0000
     18 C18          1.0541 -14.0874   9.8237 C.3            1 <1>                0.0000
     19 H19         -3.8449 -11.6107   9.1916 H              1 <1>                0.0000
     20 H20         -3.1838 -12.3761  10.6562 H              1 <1>                0.0000
     21 H21         -4.1887 -10.9132  10.7927 H              1 <1>                0.0000
     22 H22         -3.2975  -8.7094  10.0240 H              1 <1>                0.0000
     23 H23         -1.6578  -8.6020   9.3400 H              1 <1>                0.0000
     24 H24         -2.9537  -9.4068   8.4228 H              1 <1>                0.0000
     25 H25         -1.3647 -11.2465  11.9435 H              1 <1>                0.0000
     26 H26         -0.7299  -9.6764  11.3959 H              1 <1>                0.0000
     27 H27         -2.3696  -9.7836  12.0800 H              1 <1>                0.0000
     28 H28          0.5811 -11.2646   7.9152 H              1 <1>                0.0000
     29 H29          2.1434 -11.9848   8.3547 H              1 <1>                0.0000
     30 H30          0.0145 -13.2842   6.6173 H              1 <1>                0.0000
     31 H31          1.5222 -12.5395   6.0377 H              1 <1>                0.0000
     32 H32          1.1713 -16.6439   5.9469 H              1 <1>                0.0000
     33 H33         -0.1546 -18.4508   6.9617 H              1 <1>                0.0000
     34 H34         -1.0312 -18.2108   9.2471 H              1 <1>                0.0000
     35 H35         -0.5265 -16.1822  10.5570 H              1 <1>                0.0000
     36 H36          2.1415 -14.0140   9.8111 H              1 <1>                0.0000
     37 H37          0.7096 -14.2103  10.8505 H              1 <1>                0.0000
     38 H38          2.7072 -14.4236   6.8779 H              1 <1>                0.0000
@<TRIPOS>BOND
    1    1    2 1     
    2    1   19 1     
    3    1   20 1     
    4    1   21 1     
    5    2    3 1     
    6    2    4 1     
    7    2    5 1     
    8    3   22 1     
    9    3   23 1     
   10    3   24 1     
   11    4   25 1     
   12    4   26 1     
   13    4   27 1     
   14    5    6 1     
   15    6    7 2     
   16    6    8 am    
   17    8    9 1     
   18    8   18 1     
   19    9   10 1     
   20    9   28 1     
   21    9   29 1     
   22   10   11 1     
   23   10   30 1     
   24   10   31 1     
   25   11   12 1     
   26   11   38 1     
   27   12   13 ar    
   28   12   17 ar    
   29   13   14 ar    
   30   13   32 1     
   31   14   15 ar    
   32   14   33 1     
   33   15   16 ar    
   34   15   34 1     
   35   16   17 ar    
   36   16   35 1     
   37   17   18 1     
   38   18   36 1     
   39   18   37 1     
@<TRIPOS>SUBSTRUCTURE
      1 ****           1
@<TRIPOS>SET
DONOR_HYDROGENS      STATIC     ATOMS    <user>   **** ""
1 38
ATOM$RED        STATIC     ATOMS    COLORGROUP SYSTEM
1 38
@<TRIPOS>COMMENT
> <Gold.Version>
2022.2.0

> <Gold.Id.Protein>
3pbl|protein|mol2

> <Gold.Protein.RotatedTorsions>
[ 1303 1298 1297 1294 ] final -118.16 input  179.99 | X-H torsion
[ 2461 2456 2455 2452 ] final  109.15 input   30.03 | X-H torsion
[ 2515 2510 2509 2506 ] final -105.03 input  -89.99 | X-H torsion
[ 3721 3712 3711 3710 ] final  -29.72 input -179.91 | X-H torsion
[ 3841 3832 3831 3830 ] final -137.75 input -179.91 | X-H torsion
[ 3767 3762 3761 3758 ] final  131.16 input  -89.99 | X-H torsion
[ 2472 2467 2466 2463 ] final  160.64 input  -89.97 | X-H torsion

> <Gold.Protein.ActiveResidues>
 VAL82   VAL86   LEU89   PHE106  VAL107  ASP110  VAL111  MET112  CYS114  THR115 
 CYS181  SER182  ILE183  PHE188  VAL189  ILE190  SER192  SER193  SER196  TRP342 
 PHE345  PHE346  HIS349  VAL350  TYR365  THR369  GLY372  TYR373 

> <Gold.Protein.RotatedAtoms>
    4.2078   -8.4798    4.0779 H   0  0  0  0  0  0  0  0  0  0  0  0  # atno 1303 bound_to 1298
    2.1561   -8.5161    7.9472 H   0  0  0  0  0  0  0  0  0  0  0  0  # atno 2461 bound_to 2456
   -5.4782   -5.3024    8.7435 H   0  0  0  0  0  0  0  0  0  0  0  0  # atno 2472 bound_to 2467
    2.7795   -9.0942    4.7912 H   0  0  0  0  0  0  0  0  0  0  0  0  # atno 2515 bound_to 2510
   -2.6016  -17.7029   14.5885 H   0  0  0  0  0  0  0  0  0  0  0  0  # atno 3721 bound_to 3712
   -3.9161  -23.0947   11.0561 H   0  0  0  0  0  0  0  0  0  0  0  0  # atno 3767 bound_to 3762
    2.4663  -19.6675    8.3733 H   0  0  0  0  0  0  0  0  0  0  0  0  # atno 3841 bound_to 3832
    4.7582   -9.7453    4.9508 LP  0  0  0  0  0  0  0  0  0  0  0  0  # atno 4297 bound_to 1298
    3.3961   -9.8966    4.0630 LP  0  0  0  0  0  0  0  0  0  0  0  0  # atno 4298 bound_to 1298
    0.8768   -8.0568    7.0418 LP  0  0  0  0  0  0  0  0  0  0  0  0  # atno 4299 bound_to 2456
    0.7052   -9.2353    8.1592 LP  0  0  0  0  0  0  0  0  0  0  0  0  # atno 4300 bound_to 2456
    2.0804   -8.4067    6.0967 LP  0  0  0  0  0  0  0  0  0  0  0  0  # atno 4301 bound_to 2510
    2.4367   -7.4979    4.7876 LP  0  0  0  0  0  0  0  0  0  0  0  0  # atno 4302 bound_to 2510
   -3.5558  -16.5562   13.9948 LP  0  0  0  0  0  0  0  0  0  0  0  0  # atno 4306 bound_to 3712
   -2.9683  -17.7319   13.0256 LP  0  0  0  0  0  0  0  0  0  0  0  0  # atno 4307 bound_to 3712
    2.9231  -21.0608    9.0262 LP  0  0  0  0  0  0  0  0  0  0  0  0  # atno 4314 bound_to 3832
    1.4574  -20.4256    9.3650 LP  0  0  0  0  0  0  0  0  0  0  0  0  # atno 4315 bound_to 3832
   -5.2119  -22.8518   10.0925 LP  0  0  0  0  0  0  0  0  0  0  0  0  # atno 4318 bound_to 3762
   -4.9991  -21.9287   11.4226 LP  0  0  0  0  0  0  0  0  0  0  0  0  # atno 4319 bound_to 3762
   -4.3292   -4.7986    7.6984 LP  0  0  0  0  0  0  0  0  0  0  0  0  # atno 4320 bound_to 2467
   -3.9096   -5.2926    9.1972 LP  0  0  0  0  0  0  0  0  0  0  0  0  # atno 4321 bound_to 2467

> <Gold.Score>
     Score     S(PLP)   S(hbond)     S(cho)   S(metal)  DE(clash)   DE(tors)     intcor
     45.72     -43.10       0.89       0.00       0.00       0.00       0.23       0.39

> <Gold.PLP.Fitness>
45.7186

> <Gold.PLP.PLP>
-43.1047

> <Gold.PLP.part.hbond>
-1.0000

> <Gold.PLP.part.metal>
0.0000

> <Gold.PLP.part.buried>
3.5488

> <Gold.PLP.part.nonpolar>
-47.6219

> <Gold.PLP.part.repulsive>
0.1081

> <Gold.PLP.ligand.clash>
0.0000

> <Gold.PLP.ligand.torsion>
0.2311

> <Gold.PLP.Chemscore.Hbond>
0.8938

> <Gold.PLP.Chemscore.CHOScore>
0.0000

> <Gold.PLP.Chemscore.Metal>
0.0000

> <Gold.Chemscore.Hbonds>
donor molecule, donor type, donor heavy atom, donor atom, acceptor molecule, acceptor atom, score
      L1  H    11    38       P1  1223  0.89

> <Gold.PLP.Chemscore.Internal.Correction>
0.3948

