#       Name:                EN300-67628_i001
#       Creating user name   fsindt
#       Creation time:       Mon Feb 27 21:54:49 2023


#       File generated by GOLD software.
#

@<TRIPOS>MOLECULE
EN300-67628_i001|amine_3|mol2|937|dock1
    38    39     1
SMALL
USER_CHARGES


@<TRIPOS>ATOM
      1 C1          -2.6977 -11.8992  10.4992 C.3            1 <1>                0.0000
      2 C2          -1.4483 -11.0164  10.5190 C.3            1 <1>                0.0000
      3 C3          -1.6010  -9.8934   9.4910 C.3            1 <1>                0.0000
      4 C4          -1.2735 -10.4111  11.9133 C.3            1 <1>                0.0000
      5 O5          -0.2836 -11.8184  10.1899 O.3            1 <1>                0.0000
      6 C6          -0.3619 -12.5862   9.0867 C.2            1 <1>                0.0000
      7 O7          -1.0705 -12.2472   8.1596 O.2            1 <1>                0.0000
      8 N8           0.3458 -13.7307   9.0105 N.am           1 <1>                0.0000
      9 C9           0.2534 -14.5592   7.8047 C.3            1 <1>                0.0000
     10 C10         -0.3938 -15.8985   8.1062 C.3            1 <1>                0.0000
     11 N11          0.4076 -16.6267   9.1027 N.pl3          1 <1>                0.0000
     12 C12          0.1609 -16.3840  10.4510 C.ar           1 <1>                0.0000
     13 C13         -0.3881 -17.3670  11.2633 C.ar           1 <1>                0.0000
     14 C14         -0.6747 -17.0850  12.5851 C.ar           1 <1>                0.0000
     15 C15         -0.4214 -15.8278  13.1019 C.ar           1 <1>                0.0000
     16 C16          0.1461 -14.8501  12.3015 C.ar           1 <1>                0.0000
     17 C17          0.4568 -15.1362  10.9925 C.ar           1 <1>                0.0000
     18 C18          1.2007 -14.1264  10.1300 C.3            1 <1>                0.0000
     19 H19         -2.8222 -12.3303   9.5058 H              1 <1>                0.0000
     20 H20         -2.5889 -12.6993  11.2314 H              1 <1>                0.0000
     21 H21         -3.5721 -11.2970  10.7461 H              1 <1>                0.0000
     22 H22         -2.4754  -9.2912   9.7380 H              1 <1>                0.0000
     23 H23         -0.7110  -9.2644   9.5052 H              1 <1>                0.0000
     24 H24         -1.7255 -10.3245   8.4977 H              1 <1>                0.0000
     25 H25         -1.1647 -11.2112  12.6455 H              1 <1>                0.0000
     26 H26         -0.3834  -9.7822  11.9273 H              1 <1>                0.0000
     27 H27         -2.1479  -9.8090  12.1603 H              1 <1>                0.0000
     28 H28         -0.3414 -14.0356   7.0562 H              1 <1>                0.0000
     29 H29          1.2552 -14.7276   7.4095 H              1 <1>                0.0000
     30 H30         -1.3979 -15.7357   8.4977 H              1 <1>                0.0000
     31 H31         -0.4540 -16.4862   7.1903 H              1 <1>                0.0000
     32 H32         -0.5911 -18.3492  10.8628 H              1 <1>                0.0000
     33 H33         -1.0990 -17.8504  13.2178 H              1 <1>                0.0000
     34 H34         -0.6659 -15.6080  14.1306 H              1 <1>                0.0000
     35 H35          0.3438 -13.8673  12.7034 H              1 <1>                0.0000
     36 H36          2.1166 -14.5784   9.7493 H              1 <1>                0.0000
     37 H37          1.4492 -13.2501  10.7287 H              1 <1>                0.0000
     38 H38          1.0895 -17.2592   8.8273 H              1 <1>                0.0000
@<TRIPOS>BOND
    1    1    2 1     
    2    1   19 1     
    3    1   20 1     
    4    1   21 1     
    5    2    3 1     
    6    2    4 1     
    7    2    5 1     
    8    3   22 1     
    9    3   23 1     
   10    3   24 1     
   11    4   25 1     
   12    4   26 1     
   13    4   27 1     
   14    5    6 1     
   15    6    7 2     
   16    6    8 am    
   17    8    9 1     
   18    8   18 1     
   19    9   10 1     
   20    9   28 1     
   21    9   29 1     
   22   10   11 1     
   23   10   30 1     
   24   10   31 1     
   25   11   12 1     
   26   11   38 1     
   27   12   13 ar    
   28   12   17 ar    
   29   13   14 ar    
   30   13   32 1     
   31   14   15 ar    
   32   14   33 1     
   33   15   16 ar    
   34   15   34 1     
   35   16   17 ar    
   36   16   35 1     
   37   17   18 1     
   38   18   36 1     
   39   18   37 1     
@<TRIPOS>SUBSTRUCTURE
      1 ****           1
@<TRIPOS>SET
DONOR_HYDROGENS      STATIC     ATOMS    <user>   **** ""
1 38
ATOM$RED        STATIC     ATOMS    COLORGROUP SYSTEM
1 38
@<TRIPOS>COMMENT
> <Gold.Version>
2022.2.0

> <Gold.Id.Protein>
3pbl|protein|mol2

> <Gold.Protein.RotatedTorsions>
[ 1303 1298 1297 1294 ] final   96.43 input  179.99 | X-H torsion
[ 2461 2456 2455 2452 ] final  141.28 input   30.03 | X-H torsion
[ 2515 2510 2509 2506 ] final -172.11 input  -89.99 | X-H torsion
[ 3721 3712 3711 3710 ] final   24.08 input -179.91 | X-H torsion
[ 3841 3832 3831 3830 ] final   25.28 input -179.91 | X-H torsion
[ 3767 3762 3761 3758 ] final  153.96 input  -89.99 | X-H torsion
[ 2472 2467 2466 2463 ] final   29.92 input  -89.97 | X-H torsion

> <Gold.Protein.ActiveResidues>
 VAL82   VAL86   LEU89   PHE106  VAL107  ASP110  VAL111  MET112  CYS114  THR115 
 CYS181  SER182  ILE183  PHE188  VAL189  ILE190  SER192  SER193  SER196  TRP342 
 PHE345  PHE346  HIS349  VAL350  TYR365  THR369  GLY372  TYR373 

> <Gold.Protein.RotatedAtoms>
    4.4951  -10.0599    4.8907 H   0  0  0  0  0  0  0  0  0  0  0  0  # atno 1303 bound_to 1298
    1.9640   -8.8913    8.2550 H   0  0  0  0  0  0  0  0  0  0  0  0  # atno 2461 bound_to 2456
   -4.1649   -4.8041    7.7616 H   0  0  0  0  0  0  0  0  0  0  0  0  # atno 2472 bound_to 2467
    2.3781   -9.1125    5.7520 H   0  0  0  0  0  0  0  0  0  0  0  0  # atno 2515 bound_to 2510
   -2.4741  -18.0338   13.8896 H   0  0  0  0  0  0  0  0  0  0  0  0  # atno 3721 bound_to 3712
   -3.9304  -22.8514   11.3382 H   0  0  0  0  0  0  0  0  0  0  0  0  # atno 3767 bound_to 3762
    2.0066  -20.7448    9.6224 H   0  0  0  0  0  0  0  0  0  0  0  0  # atno 3841 bound_to 3832
    3.3299   -9.5324    3.8756 LP  0  0  0  0  0  0  0  0  0  0  0  0  # atno 4297 bound_to 1298
    4.5371   -8.5287    4.3251 LP  0  0  0  0  0  0  0  0  0  0  0  0  # atno 4298 bound_to 1298
    1.3788   -7.9196    7.0800 LP  0  0  0  0  0  0  0  0  0  0  0  0  # atno 4299 bound_to 2456
    0.3952   -8.9974    7.8133 LP  0  0  0  0  0  0  0  0  0  0  0  0  # atno 4300 bound_to 2456
    2.1129   -7.5127    5.5626 LP  0  0  0  0  0  0  0  0  0  0  0  0  # atno 4301 bound_to 2510
    2.8057   -8.3735    4.3603 LP  0  0  0  0  0  0  0  0  0  0  0  0  # atno 4302 bound_to 2510
   -3.2789  -16.9258   14.7277 LP  0  0  0  0  0  0  0  0  0  0  0  0  # atno 4306 bound_to 3712
   -3.3925  -16.9802   13.0996 LP  0  0  0  0  0  0  0  0  0  0  0  0  # atno 4307 bound_to 3712
    1.7876  -19.6517    8.4677 LP  0  0  0  0  0  0  0  0  0  0  0  0  # atno 4314 bound_to 3832
    3.1239  -20.5902    8.4806 LP  0  0  0  0  0  0  0  0  0  0  0  0  # atno 4315 bound_to 3832
   -4.9304  -23.0951   10.0703 LP  0  0  0  0  0  0  0  0  0  0  0  0  # atno 4318 bound_to 3762
   -5.2663  -21.9286   11.1627 LP  0  0  0  0  0  0  0  0  0  0  0  0  # atno 4319 bound_to 3762
   -4.0444   -5.3437    9.2980 LP  0  0  0  0  0  0  0  0  0  0  0  0  # atno 4320 bound_to 2467
   -5.5075   -5.2457    8.5794 LP  0  0  0  0  0  0  0  0  0  0  0  0  # atno 4321 bound_to 2467

> <Gold.Score>
     Score     S(PLP)   S(hbond)     S(cho)   S(metal)  DE(clash)   DE(tors)     intcor
     45.89     -44.65       0.58       0.00       0.00       0.00       0.45       0.41

> <Gold.PLP.Fitness>
45.8934

> <Gold.PLP.PLP>
-44.6508

> <Gold.PLP.part.hbond>
-0.7195

> <Gold.PLP.part.metal>
0.0000

> <Gold.PLP.part.buried>
2.3086

> <Gold.PLP.part.nonpolar>
-46.6397

> <Gold.PLP.part.repulsive>
0.0000

> <Gold.PLP.ligand.clash>
0.0000

> <Gold.PLP.ligand.torsion>
0.4463

> <Gold.PLP.Chemscore.Hbond>
0.5760

> <Gold.PLP.Chemscore.CHOScore>
0.0000

> <Gold.PLP.Chemscore.Metal>
0.0000

> <Gold.Chemscore.Hbonds>
donor molecule, donor type, donor heavy atom, donor atom, acceptor molecule, acceptor atom, score
      L1  H    11    38       P1  1227  0.58

> <Gold.PLP.Chemscore.Internal.Correction>
0.4072

