#       Name:                EN300-67628_i001
#       Creating user name   fsindt
#       Creation time:       Mon Feb 27 21:54:49 2023


#       File generated by GOLD software.
#

@<TRIPOS>MOLECULE
EN300-67628_i001|amine_3|mol2|937|dock2
    38    39     1
SMALL
USER_CHARGES


@<TRIPOS>ATOM
      1 C1          -2.4413 -23.5932  15.0970 C.3            1 <1>                0.0000
      2 C2          -0.9202 -23.4658  14.9934 C.3            1 <1>                0.0000
      3 C3          -0.3967 -22.6367  16.1679 C.3            1 <1>                0.0000
      4 C4          -0.2880 -24.8586  15.0304 C.3            1 <1>                0.0000
      5 O5          -0.5733 -22.8097  13.7453 O.3            1 <1>                0.0000
      6 C6          -0.9370 -21.5204  13.6108 C.2            1 <1>                0.0000
      7 O7          -1.7388 -21.0316  14.3820 O.2            1 <1>                0.0000
      8 N8          -0.4115 -20.7718  12.6208 N.am           1 <1>                0.0000
      9 C9           0.5550 -21.3713  11.6960 C.3            1 <1>                0.0000
     10 C10          1.9245 -20.7337  11.8425 C.3            1 <1>                0.0000
     11 N11          1.8389 -19.2946  11.5472 N.pl3          1 <1>                0.0000
     12 C12          1.5010 -18.4286  12.5834 C.ar           1 <1>                0.0000
     13 C13          2.4233 -17.5177  13.0803 C.ar           1 <1>                0.0000
     14 C14          2.0822 -16.7063  14.1453 C.ar           1 <1>                0.0000
     15 C15          0.8288 -16.7999  14.7213 C.ar           1 <1>                0.0000
     16 C16         -0.1023 -17.6920  14.2155 C.ar           1 <1>                0.0000
     17 C17          0.2256 -18.4822  13.1386 C.ar           1 <1>                0.0000
     18 C18         -0.8180 -19.3733  12.4800 C.3            1 <1>                0.0000
     19 H19         -2.8917 -22.6010  15.0706 H              1 <1>                0.0000
     20 H20         -2.8143 -24.1838  14.2602 H              1 <1>                0.0000
     21 H21         -2.7017 -24.0856  16.0340 H              1 <1>                0.0000
     22 H22         -0.6570 -23.1291  17.1048 H              1 <1>                0.0000
     23 H23          0.6870 -22.5459  16.0941 H              1 <1>                0.0000
     24 H24         -0.8470 -21.6444  16.1415 H              1 <1>                0.0000
     25 H25         -0.6610 -25.4491  14.1936 H              1 <1>                0.0000
     26 H26          0.7956 -24.7677  14.9565 H              1 <1>                0.0000
     27 H27         -0.5484 -25.3510  15.9673 H              1 <1>                0.0000
     28 H28          0.6338 -22.4384  11.9039 H              1 <1>                0.0000
     29 H29          0.2042 -21.2326  10.6733 H              1 <1>                0.0000
     30 H30          2.2820 -20.8735  12.8627 H              1 <1>                0.0000
     31 H31          2.6199 -21.2052  11.1483 H              1 <1>                0.0000
     32 H32          3.4047 -17.4438  12.6358 H              1 <1>                0.0000
     33 H33          2.7985 -15.9956  14.5300 H              1 <1>                0.0000
     34 H34          0.5753 -16.1767  15.5661 H              1 <1>                0.0000
     35 H35         -1.0816 -17.7669  14.6649 H              1 <1>                0.0000
     36 H36         -0.8975 -19.1199  11.4229 H              1 <1>                0.0000
     37 H37         -1.7829 -19.2220  12.9639 H              1 <1>                0.0000
     38 H38          2.0136 -18.9584  10.6544 H              1 <1>                0.0000
@<TRIPOS>BOND
    1    1    2 1     
    2    1   19 1     
    3    1   20 1     
    4    1   21 1     
    5    2    3 1     
    6    2    4 1     
    7    2    5 1     
    8    3   22 1     
    9    3   23 1     
   10    3   24 1     
   11    4   25 1     
   12    4   26 1     
   13    4   27 1     
   14    5    6 1     
   15    6    7 2     
   16    6    8 am    
   17    8    9 1     
   18    8   18 1     
   19    9   10 1     
   20    9   28 1     
   21    9   29 1     
   22   10   11 1     
   23   10   30 1     
   24   10   31 1     
   25   11   12 1     
   26   11   38 1     
   27   12   13 ar    
   28   12   17 ar    
   29   13   14 ar    
   30   13   32 1     
   31   14   15 ar    
   32   14   33 1     
   33   15   16 ar    
   34   15   34 1     
   35   16   17 ar    
   36   16   35 1     
   37   17   18 1     
   38   18   36 1     
   39   18   37 1     
@<TRIPOS>SUBSTRUCTURE
      1 ****           1
@<TRIPOS>SET
DONOR_HYDROGENS      STATIC     ATOMS    <user>   **** ""
1 38
ATOM$RED        STATIC     ATOMS    COLORGROUP SYSTEM
1 38
@<TRIPOS>COMMENT
> <Gold.Version>
2022.2.0

> <Gold.Id.Protein>
3pbl|protein|mol2

> <Gold.Protein.RotatedTorsions>
[ 1303 1298 1297 1294 ] final  -36.18 input  179.99 | X-H torsion
[ 2461 2456 2455 2452 ] final -107.83 input   30.03 | X-H torsion
[ 2515 2510 2509 2506 ] final   43.94 input  -89.99 | X-H torsion
[ 3721 3712 3711 3710 ] final -121.72 input -179.91 | X-H torsion
[ 3841 3832 3831 3830 ] final -167.62 input -179.91 | X-H torsion
[ 3767 3762 3761 3758 ] final  -31.35 input  -89.99 | X-H torsion
[ 2472 2467 2466 2463 ] final   92.47 input  -89.97 | X-H torsion

> <Gold.Protein.ActiveResidues>
 VAL82   VAL86   LEU89   PHE106  VAL107  ASP110  VAL111  MET112  CYS114  THR115 
 CYS181  SER182  ILE183  PHE188  VAL189  ILE190  SER192  SER193  SER196  TRP342 
 PHE345  PHE346  HIS349  VAL350  TYR365  THR369  GLY372  TYR373 

> <Gold.Protein.RotatedAtoms>
    3.3541   -9.3355    3.8167 H   0  0  0  0  0  0  0  0  0  0  0  0  # atno 1303 bound_to 1298
    0.4592   -9.0813    7.9195 H   0  0  0  0  0  0  0  0  0  0  0  0  # atno 2461 bound_to 2456
   -5.1341   -4.9304    7.8163 H   0  0  0  0  0  0  0  0  0  0  0  0  # atno 2472 bound_to 2467
    2.2408   -7.4104    5.2075 H   0  0  0  0  0  0  0  0  0  0  0  0  # atno 2515 bound_to 2510
   -3.2264  -16.6441   14.3840 H   0  0  0  0  0  0  0  0  0  0  0  0  # atno 3721 bound_to 3712
   -5.5019  -22.3366   10.4358 H   0  0  0  0  0  0  0  0  0  0  0  0  # atno 3767 bound_to 3762
    2.8374  -19.9151    8.3651 H   0  0  0  0  0  0  0  0  0  0  0  0  # atno 3841 bound_to 3832
    4.6740   -8.6157    4.4540 LP  0  0  0  0  0  0  0  0  0  0  0  0  # atno 4297 bound_to 1298
    4.3343  -10.1702    4.8211 LP  0  0  0  0  0  0  0  0  0  0  0  0  # atno 4298 bound_to 1298
    2.0446   -8.7891    8.1810 LP  0  0  0  0  0  0  0  0  0  0  0  0  # atno 4299 bound_to 2456
    1.2337   -7.9379    7.0476 LP  0  0  0  0  0  0  0  0  0  0  0  0  # atno 4300 bound_to 2456
    2.8357   -8.7451    4.4792 LP  0  0  0  0  0  0  0  0  0  0  0  0  # atno 4301 bound_to 2510
    2.2203   -8.8441    5.9885 LP  0  0  0  0  0  0  0  0  0  0  0  0  # atno 4302 bound_to 2510
   -3.1764  -17.3794   12.9575 LP  0  0  0  0  0  0  0  0  0  0  0  0  # atno 4306 bound_to 3712
   -2.6264  -18.1310   14.2989 LP  0  0  0  0  0  0  0  0  0  0  0  0  # atno 4307 bound_to 3712
    2.5554  -21.1579    9.3408 LP  0  0  0  0  0  0  0  0  0  0  0  0  # atno 4314 bound_to 3832
    1.3962  -20.0425    9.0599 LP  0  0  0  0  0  0  0  0  0  0  0  0  # atno 4315 bound_to 3832
   -4.4177  -22.2066   11.6500 LP  0  0  0  0  0  0  0  0  0  0  0  0  # atno 4318 bound_to 3762
   -4.2080  -23.3317   10.4851 LP  0  0  0  0  0  0  0  0  0  0  0  0  # atno 4319 bound_to 3762
   -3.6412   -5.0024    8.4740 LP  0  0  0  0  0  0  0  0  0  0  0  0  # atno 4320 bound_to 2467
   -4.9418   -5.4607    9.3487 LP  0  0  0  0  0  0  0  0  0  0  0  0  # atno 4321 bound_to 2467

> <Gold.Score>
     Score     S(PLP)   S(hbond)     S(cho)   S(metal)  DE(clash)   DE(tors)     intcor
     42.09     -39.22       0.96       0.00       0.00       0.00       0.20       0.40

> <Gold.PLP.Fitness>
42.0864

> <Gold.PLP.PLP>
-39.2154

> <Gold.PLP.part.hbond>
-1.7242

> <Gold.PLP.part.metal>
0.0000

> <Gold.PLP.part.buried>
-1.3371

> <Gold.PLP.part.nonpolar>
-36.5858

> <Gold.PLP.part.repulsive>
0.0025

> <Gold.PLP.ligand.clash>
0.0000

> <Gold.PLP.ligand.torsion>
0.2020

> <Gold.PLP.Chemscore.Hbond>
0.9600

> <Gold.PLP.Chemscore.CHOScore>
0.0000

> <Gold.PLP.Chemscore.Metal>
0.0000

> <Gold.Chemscore.Hbonds>
donor molecule, donor type, donor heavy atom, donor atom, acceptor molecule, acceptor atom, score
      L1  H    11    38       P1  1227  0.96

> <Gold.PLP.Chemscore.Internal.Correction>
0.3950

