#       Name:                plp ligand
#       Creating user name   fsindt
#       Creation time:       Mon Feb 27 21:54:48 2023


#       File generated by GOLD software.
#

@<TRIPOS>MOLECULE
plp ligand
    38    39     1
SMALL
USER_CHARGES


@<TRIPOS>ATOM
      1 C1          -3.7213   0.7773  -0.9716 NONPOLAR       1 <1>                0.0000
      2 C2          -3.1046   0.2870   0.3399 NONPOLAR       1 <1>                0.0000
      3 C3          -2.6738   1.4897   1.1819 NONPOLAR       1 <1>                0.0000
      4 C4          -4.1381  -0.5336   1.1141 NONPOLAR       1 <1>                0.0000
      5 O5          -1.9472  -0.5408   0.0509 ACCEPTOR       1 <1>                0.0000
      6 C6          -0.9386   0.0350  -0.6302 NONPOLAR       1 <1>                0.0000
      7 O7          -1.0231   1.1975  -0.9736 ACCEPTOR       1 <1>                0.0000
      8 N8           0.1649  -0.6781  -0.9310 NONPOLAR       1 <1>                0.0000
      9 C9           0.2566  -2.0798  -0.5119 NONPOLAR       1 <1>                0.0000
     10 C10          1.3611  -2.2769   0.5102 NONPOLAR       1 <1>                0.0000
     11 N11          2.6550  -1.8867  -0.0721 DONOR          1 <1>                0.0000
     12 C12          3.0373  -0.5506   0.0084 NONPOLAR       1 <1>                0.0000
     13 C13          4.1134  -0.1634   0.7954 NONPOLAR       1 <1>                0.0000
     14 C14          4.4399   1.1748   0.9025 NONPOLAR       1 <1>                0.0000
     15 C15          3.6979   2.1305   0.2333 NONPOLAR       1 <1>                0.0000
     16 C16          2.6366   1.7476  -0.5702 NONPOLAR       1 <1>                0.0000
     17 C17          2.3259   0.4140  -0.6995 NONPOLAR       1 <1>                0.0000
     18 C18          1.2526  -0.0444  -1.6767 NONPOLAR       1 <1>                0.0000
     19 H19         -2.9850   1.3619  -1.5231                1 <1>                0.0000
     20 H20         -4.0281  -0.0795  -1.5715                1 <1>                0.0000
     21 H21         -4.5901   1.3988  -0.7546                1 <1>                0.0000
     22 H22         -3.5426   2.1111   1.3989                1 <1>                0.0000
     23 H23         -2.2345   1.1404   2.1163                1 <1>                0.0000
     24 H24         -1.9375   2.0743   0.6304                1 <1>                0.0000
     25 H25         -4.4449  -1.3904   0.5142                1 <1>                0.0000
     26 H26         -3.6987  -0.8829   2.0484                1 <1>                0.0000
     27 H27         -5.0069   0.0878   1.3311                1 <1>                0.0000
     28 H28         -0.6939  -2.3846  -0.0739                1 <1>                0.0000
     29 H29          0.4622  -2.7006  -1.3840                1 <1>                0.0000
     30 H30          1.1578  -1.6614   1.3865                1 <1>                0.0000
     31 H31          1.3983  -3.3253   0.8059                1 <1>                0.0000
     32 H32          4.6934  -0.9062   1.3228                1 <1>                0.0000
     33 H33          5.2788   1.4759   1.5123                1 <1>                0.0000
     34 H34          3.9462   3.1764   0.3369                1 <1>                0.0000
     35 H35          2.0555   2.4930  -1.0929                1 <1>                0.0000
     36 H36          1.6813  -0.7603  -2.3780                1 <1>                0.0000
     37 H37          0.8683   0.8160  -2.2246                1 <1>                0.0000
     38 H38          3.2264  -2.5431  -0.5003                1 <1>                0.0000
@<TRIPOS>BOND
    1    1    2 1     
    2    1   19 1     
    3    1   20 1     
    4    1   21 1     
    5    2    3 1     
    6    2    4 1     
    7    2    5 1     
    8    3   22 1     
    9    3   23 1     
   10    3   24 1     
   11    4   25 1     
   12    4   26 1     
   13    4   27 1     
   14    5    6 1     
   15    6    7 2     
   16    6    8 am    
   17    8    9 1     
   18    8   18 1     
   19    9   10 1     
   20    9   28 1     
   21    9   29 1     
   22   10   11 1     
   23   10   30 1     
   24   10   31 1     
   25   11   12 1     
   26   11   38 1     
   27   12   13 ar    
   28   12   17 ar    
   29   13   14 ar    
   30   13   32 1     
   31   14   15 ar    
   32   14   33 1     
   33   15   16 ar    
   34   15   34 1     
   35   16   17 ar    
   36   16   35 1     
   37   17   18 1     
   38   18   36 1     
   39   18   37 1     
@<TRIPOS>SUBSTRUCTURE
      1 ****           1
@<TRIPOS>SET
DONOR_HYDROGENS      STATIC     ATOMS    <user>   **** ""
1 38
ATOM$RED        STATIC     ATOMS    COLORGROUP SYSTEM
1 38
