#       Name:                EN300-683278_i002
#       Creating user name   fsindt
#       Creation time:       Tue Feb 28 13:54:41 2023


#       File generated by GOLD software.
#

@<TRIPOS>MOLECULE
EN300-683278_i002|amine_1|mol2|4697|dock10
    21    20     1
SMALL
USER_CHARGES


@<TRIPOS>ATOM
      1 C1          -0.8649 -12.7640  10.6357 C.3            1 <1>                0.0000
      2 C2          -0.3738 -12.9223   9.1953 C.3            1 <1>                0.0000
      3 C3           0.3181 -14.2779   9.0384 C.3            1 <1>                0.0000
      4 C4           0.9064 -14.3902   7.6305 C.3            1 <1>                0.0000
      5 N5           1.6381 -15.6579   7.5054 N.4            1 <1>                1.0000
      6 C6           1.4401 -14.4004  10.0713 C.3            1 <1>                0.0000
      7 O7           1.2896 -15.6232  10.7953 O.3            1 <1>                0.0000
      8 H8          -1.6395 -13.5036  10.8388 H              1 <1>                0.0000
      9 H9          -0.0314 -12.9130  11.3221 H              1 <1>                0.0000
     10 H10         -1.2737 -11.7628  10.7723 H              1 <1>                0.0000
     11 H11         -1.2228 -12.8666   8.5138 H              1 <1>                0.0000
     12 H12          0.3319 -12.1249   8.9624 H              1 <1>                0.0000
     13 H13         -0.4076 -15.0763   9.1938 H              1 <1>                0.0000
     14 H14          0.1009 -14.3616   6.8968 H              1 <1>                0.0000
     15 H15          1.5882 -13.5583   7.4542 H              1 <1>                0.0000
     16 H16          2.4041 -14.3955   9.5628 H              1 <1>                0.0000
     17 H17          1.3901 -13.5599  10.7635 H              1 <1>                0.0000
     18 H18          1.1202 -16.2879   6.9112 H              1 <1>                0.0000
     19 H19          2.5459 -15.4838   7.1008 H              1 <1>                0.0000
     20 H20          1.7506 -16.0728   8.4182 H              1 <1>                0.0000
     21 H21          1.8171 -16.3546  10.4461 H              1 <1>                0.0000
@<TRIPOS>BOND
    1    1    2 1     
    2    1    8 1     
    3    1    9 1     
    4    1   10 1     
    5    2    3 1     
    6    2   11 1     
    7    2   12 1     
    8    3    4 1     
    9    3    6 1     
   10    3   13 1     
   11    4    5 1     
   12    4   14 1     
   13    4   15 1     
   14    5   18 1     
   15    5   19 1     
   16    5   20 1     
   17    6    7 1     
   18    6   16 1     
   19    6   17 1     
   20    7   21 1     
@<TRIPOS>SUBSTRUCTURE
      1 ****           1
@<TRIPOS>SET
DONOR_HYDROGENS      STATIC     ATOMS    <user>   **** ""
4 18 19 20 21
ATOM$RED        STATIC     ATOMS    COLORGROUP SYSTEM
4 18 19 20 21
@<TRIPOS>COMMENT
> <Gold.Version>
2022.2.0

> <Gold.Id.Protein>
3pbl|protein|mol2

> <Gold.Protein.RotatedTorsions>
[ 1303 1298 1297 1294 ] final  105.04 input  179.99 | X-H torsion
[ 2461 2456 2455 2452 ] final -130.79 input   30.03 | X-H torsion
[ 2515 2510 2509 2506 ] final  -65.40 input  -89.99 | X-H torsion
[ 3721 3712 3711 3710 ] final -154.52 input -179.91 | X-H torsion
[ 3841 3832 3831 3830 ] final  160.54 input -179.91 | X-H torsion
[ 3767 3762 3761 3758 ] final  -88.95 input  -89.99 | X-H torsion
[ 2472 2467 2466 2463 ] final   83.67 input  -89.97 | X-H torsion

> <Gold.Protein.ActiveResidues>
 VAL82   VAL86   LEU89   PHE106  VAL107  ASP110  VAL111  MET112  CYS114  THR115 
 CYS181  SER182  ILE183  PHE188  VAL189  ILE190  SER192  SER193  SER196  TRP342 
 PHE345  PHE346  HIS349  VAL350  TYR365  THR369  GLY372  TYR373 

> <Gold.Protein.RotatedAtoms>
    4.5951   -9.9655    4.9236 H   0  0  0  0  0  0  0  0  0  0  0  0  # atno 1303 bound_to 1298
    0.7042   -9.2351    8.1587 H   0  0  0  0  0  0  0  0  0  0  0  0  # atno 2461 bound_to 2456
   -5.0125   -4.8923    7.7476 H   0  0  0  0  0  0  0  0  0  0  0  0  # atno 2472 bound_to 2467
    2.8309   -8.5848    4.4091 H   0  0  0  0  0  0  0  0  0  0  0  0  # atno 2515 bound_to 2510
   -3.3330  -16.5299   13.9207 H   0  0  0  0  0  0  0  0  0  0  0  0  # atno 3721 bound_to 3712
   -5.2360  -21.9218   11.1991 H   0  0  0  0  0  0  0  0  0  0  0  0  # atno 3767 bound_to 3762
    3.0879  -20.2802    8.5370 H   0  0  0  0  0  0  0  0  0  0  0  0  # atno 3841 bound_to 3832
    3.3352   -9.6629    3.9300 LP  0  0  0  0  0  0  0  0  0  0  0  0  # atno 4297 bound_to 1298
    4.4317   -8.4926    4.2378 LP  0  0  0  0  0  0  0  0  0  0  0  0  # atno 4298 bound_to 1298
    2.1557   -8.5169    7.9479 LP  0  0  0  0  0  0  0  0  0  0  0  0  # atno 4299 bound_to 2456
    0.8777   -8.0564    7.0417 LP  0  0  0  0  0  0  0  0  0  0  0  0  # atno 4300 bound_to 2456
    2.2874   -8.9777    5.8977 LP  0  0  0  0  0  0  0  0  0  0  0  0  # atno 4301 bound_to 2510
    2.1782   -7.4366    5.3689 LP  0  0  0  0  0  0  0  0  0  0  0  0  # atno 4302 bound_to 2510
   -2.9066  -17.8309   13.0820 LP  0  0  0  0  0  0  0  0  0  0  0  0  # atno 4306 bound_to 3712
   -2.7731  -17.8113   14.7094 LP  0  0  0  0  0  0  0  0  0  0  0  0  # atno 4307 bound_to 3712
    2.0796  -21.0389    9.5289 LP  0  0  0  0  0  0  0  0  0  0  0  0  # atno 4314 bound_to 3832
    1.5827  -19.7397    8.6733 LP  0  0  0  0  0  0  0  0  0  0  0  0  # atno 4315 bound_to 3832
   -3.9221  -22.8857   11.3059 LP  0  0  0  0  0  0  0  0  0  0  0  0  # atno 4318 bound_to 3762
   -4.9694  -23.0673   10.0662 LP  0  0  0  0  0  0  0  0  0  0  0  0  # atno 4319 bound_to 3762
   -3.6352   -5.0508    8.6103 LP  0  0  0  0  0  0  0  0  0  0  0  0  # atno 4320 bound_to 2467
   -5.0694   -5.4504    9.2811 LP  0  0  0  0  0  0  0  0  0  0  0  0  # atno 4321 bound_to 2467

> <Gold.Score>
     Score     S(PLP)   S(hbond)     S(cho)   S(metal)  DE(clash)   DE(tors)     intcor
     32.37     -22.27       3.86       0.00       0.00       0.00       0.73       0.00

> <Gold.PLP.Fitness>
32.3688

> <Gold.PLP.PLP>
-22.2671

> <Gold.PLP.part.hbond>
-3.0000

> <Gold.PLP.part.metal>
0.0000

> <Gold.PLP.part.buried>
-2.0956

> <Gold.PLP.part.nonpolar>
-17.7908

> <Gold.PLP.part.repulsive>
0.0509

> <Gold.PLP.ligand.clash>
0.0000

> <Gold.PLP.ligand.torsion>
0.7339

> <Gold.PLP.Chemscore.Hbond>
3.8560

> <Gold.PLP.Chemscore.CHOScore>
0.0000

> <Gold.PLP.Chemscore.Metal>
0.0000

> <Gold.Chemscore.Hbonds>
donor molecule, donor type, donor heavy atom, donor atom, acceptor molecule, acceptor atom, score
      L1  H     5    19       P1  1223  1.00
      L1  H     5    20       P1  1227  1.86
      L1  H     7    21       P1  1227  1.00

> <Gold.PLP.Chemscore.Internal.Correction>
0.0015

