#       Name:                EN300-683278_i002
#       Creating user name   fsindt
#       Creation time:       Tue Feb 28 13:54:36 2023


#       File generated by GOLD software.
#

@<TRIPOS>MOLECULE
EN300-683278_i002|amine_1|mol2|4697|dock4
    21    20     1
SMALL
USER_CHARGES


@<TRIPOS>ATOM
      1 C1           1.2887 -12.9595   6.8995 C.3            1 <1>                0.0000
      2 C2           0.0680 -12.9947   7.8213 C.3            1 <1>                0.0000
      3 C3           0.0201 -14.3375   8.5530 C.3            1 <1>                0.0000
      4 C4           0.2287 -15.4731   7.5491 C.3            1 <1>                0.0000
      5 N5           0.2084 -16.7610   8.2556 N.4            1 <1>                1.0000
      6 C6           1.1253 -14.3819   9.6102 C.3            1 <1>                0.0000
      7 O7           0.9329 -15.5199  10.4529 O.3            1 <1>                0.0000
      8 H8           2.1981 -12.9887   7.4995 H              1 <1>                0.0000
      9 H9           1.2654 -13.8215   6.2327 H              1 <1>                0.0000
     10 H10          1.2720 -12.0432   6.3092 H              1 <1>                0.0000
     11 H11          0.1391 -12.1865   8.5493 H              1 <1>                0.0000
     12 H12         -0.8384 -12.8711   7.2287 H              1 <1>                0.0000
     13 H13         -0.9499 -14.4534   9.0364 H              1 <1>                0.0000
     14 H14         -0.5694 -15.4531   6.8070 H              1 <1>                0.0000
     15 H15          1.1904 -15.3465   7.0520 H              1 <1>                0.0000
     16 H16          2.0955 -14.4537   9.1186 H              1 <1>                0.0000
     17 H17          1.0891 -13.4739  10.2120 H              1 <1>                0.0000
     18 H18          0.0348 -17.5040   7.5954 H              1 <1>                0.0000
     19 H19          1.0989 -16.9119   8.7055 H              1 <1>                0.0000
     20 H20         -0.5225 -16.7515   8.9511 H              1 <1>                0.0000
     21 H21          1.6258 -16.1897  10.3736 H              1 <1>                0.0000
@<TRIPOS>BOND
    1    1    2 1     
    2    1    8 1     
    3    1    9 1     
    4    1   10 1     
    5    2    3 1     
    6    2   11 1     
    7    2   12 1     
    8    3    4 1     
    9    3    6 1     
   10    3   13 1     
   11    4    5 1     
   12    4   14 1     
   13    4   15 1     
   14    5   18 1     
   15    5   19 1     
   16    5   20 1     
   17    6    7 1     
   18    6   16 1     
   19    6   17 1     
   20    7   21 1     
@<TRIPOS>SUBSTRUCTURE
      1 ****           1
@<TRIPOS>SET
DONOR_HYDROGENS      STATIC     ATOMS    <user>   **** ""
4 18 19 20 21
ATOM$RED        STATIC     ATOMS    COLORGROUP SYSTEM
4 18 19 20 21
@<TRIPOS>COMMENT
> <Gold.Version>
2022.2.0

> <Gold.Id.Protein>
3pbl|protein|mol2

> <Gold.Protein.RotatedTorsions>
[ 1303 1298 1297 1294 ] final  109.15 input  179.99 | X-H torsion
[ 2461 2456 2455 2452 ] final  107.85 input   30.03 | X-H torsion
[ 2515 2510 2509 2506 ] final   50.15 input  -89.99 | X-H torsion
[ 3721 3712 3711 3710 ] final   39.43 input -179.91 | X-H torsion
[ 3841 3832 3831 3830 ] final  -24.00 input -179.91 | X-H torsion
[ 3767 3762 3761 3758 ] final  162.79 input  -89.99 | X-H torsion
[ 2472 2467 2466 2463 ] final   22.44 input  -89.97 | X-H torsion

> <Gold.Protein.ActiveResidues>
 VAL82   VAL86   LEU89   PHE106  VAL107  ASP110  VAL111  MET112  CYS114  THR115 
 CYS181  SER182  ILE183  PHE188  VAL189  ILE190  SER192  SER193  SER196  TRP342 
 PHE345  PHE346  HIS349  VAL350  TYR365  THR369  GLY372  TYR373 

> <Gold.Protein.RotatedAtoms>
    4.6393   -9.9155    4.9349 H   0  0  0  0  0  0  0  0  0  0  0  0  # atno 1303 bound_to 1298
    2.1581   -8.5006    7.9325 H   0  0  0  0  0  0  0  0  0  0  0  0  # atno 2461 bound_to 2456
   -4.0583   -4.8142    7.8224 H   0  0  0  0  0  0  0  0  0  0  0  0  # atno 2472 bound_to 2467
    2.2036   -7.4220    5.3018 H   0  0  0  0  0  0  0  0  0  0  0  0  # atno 2515 bound_to 2510
   -2.5054  -18.0146   13.6611 H   0  0  0  0  0  0  0  0  0  0  0  0  # atno 3721 bound_to 3712
   -3.9694  -22.7453   11.4293 H   0  0  0  0  0  0  0  0  0  0  0  0  # atno 3767 bound_to 3762
    1.5882  -20.2021    9.3957 H   0  0  0  0  0  0  0  0  0  0  0  0  # atno 3841 bound_to 3832
    3.3440   -9.7232    3.9595 LP  0  0  0  0  0  0  0  0  0  0  0  0  # atno 4297 bound_to 1298
    4.3786   -8.4824    4.1970 LP  0  0  0  0  0  0  0  0  0  0  0  0  # atno 4298 bound_to 1298
    0.8579   -8.0664    7.0448 LP  0  0  0  0  0  0  0  0  0  0  0  0  # atno 4299 bound_to 2456
    0.7220   -9.2411    8.1709 LP  0  0  0  0  0  0  0  0  0  0  0  0  # atno 4300 bound_to 2456
    2.8346   -8.6532    4.4348 LP  0  0  0  0  0  0  0  0  0  0  0  0  # atno 4301 bound_to 2510
    2.2587   -8.9244    5.9386 LP  0  0  0  0  0  0  0  0  0  0  0  0  # atno 4302 bound_to 2510
   -3.1554  -17.1254   14.8293 LP  0  0  0  0  0  0  0  0  0  0  0  0  # atno 4306 bound_to 3712
   -3.4798  -16.8026   13.2617 LP  0  0  0  0  0  0  0  0  0  0  0  0  # atno 4307 bound_to 3712
    2.5050  -19.7877    8.1452 LP  0  0  0  0  0  0  0  0  0  0  0  0  # atno 4314 bound_to 3832
    2.8898  -21.0810    9.0650 LP  0  0  0  0  0  0  0  0  0  0  0  0  # atno 4315 bound_to 3832
   -4.8095  -23.1713   10.0953 LP  0  0  0  0  0  0  0  0  0  0  0  0  # atno 4318 bound_to 3762
   -5.3483  -21.9584   11.0467 LP  0  0  0  0  0  0  0  0  0  0  0  0  # atno 4319 bound_to 3762
   -4.1500   -5.3752    9.3531 LP  0  0  0  0  0  0  0  0  0  0  0  0  # atno 4320 bound_to 2467
   -5.5086   -5.2040    8.4635 LP  0  0  0  0  0  0  0  0  0  0  0  0  # atno 4321 bound_to 2467

> <Gold.Score>
     Score     S(PLP)   S(hbond)     S(cho)   S(metal)  DE(clash)   DE(tors)     intcor
     33.20     -24.46       3.00       0.00       0.00       0.00       0.13       0.00

> <Gold.PLP.Fitness>
33.1966

> <Gold.PLP.PLP>
-24.4575

> <Gold.PLP.part.hbond>
-2.0000

> <Gold.PLP.part.metal>
0.0000

> <Gold.PLP.part.buried>
-3.0130

> <Gold.PLP.part.nonpolar>
-19.4416

> <Gold.PLP.part.repulsive>
0.0000

> <Gold.PLP.ligand.clash>
0.0000

> <Gold.PLP.ligand.torsion>
0.1312

> <Gold.PLP.Chemscore.Hbond>
3.0000

> <Gold.PLP.Chemscore.CHOScore>
0.0000

> <Gold.PLP.Chemscore.Metal>
0.0000

> <Gold.Chemscore.Hbonds>
donor molecule, donor type, donor heavy atom, donor atom, acceptor molecule, acceptor atom, score
      L1  H     5    19       P1  1227  2.00
      L1  H     7    21       P1  1227  1.00

> <Gold.PLP.Chemscore.Internal.Correction>
0.0015

