#       Name:                EN300-683278_i002
#       Creating user name   fsindt
#       Creation time:       Tue Feb 28 13:54:35 2023


#       File generated by GOLD software.
#

@<TRIPOS>MOLECULE
EN300-683278_i002|amine_1|mol2|4697|dock3
    21    20     1
SMALL
USER_CHARGES


@<TRIPOS>ATOM
      1 C1           1.1532 -12.8077   6.6558 C.3            1 <1>                0.0000
      2 C2           0.5971 -12.9359   8.0754 C.3            1 <1>                0.0000
      3 C3           0.8652 -14.3470   8.6026 C.3            1 <1>                0.0000
      4 C4           0.4091 -14.4420  10.0600 C.3            1 <1>                0.0000
      5 N5           1.0579 -15.5931  10.7019 N.4            1 <1>                1.0000
      6 C6           0.0916 -15.3621   7.7589 C.3            1 <1>                0.0000
      7 O7           0.2208 -16.6613   8.3398 O.3            1 <1>                0.0000
      8 H8           2.2390 -12.9001   6.6811 H              1 <1>                0.0000
      9 H9           0.7360 -13.5964   6.0296 H              1 <1>                0.0000
     10 H10          0.8808 -11.8354   6.2452 H              1 <1>                0.0000
     11 H11          1.0842 -12.2072   8.7235 H              1 <1>                0.0000
     12 H12         -0.4769 -12.7505   8.0630 H              1 <1>                0.0000
     13 H13          1.9321 -14.5612   8.5410 H              1 <1>                0.0000
     14 H14          0.6850 -13.5288  10.5873 H              1 <1>                0.0000
     15 H15         -0.6729 -14.5689  10.0946 H              1 <1>                0.0000
     16 H16         -0.9612 -15.0813   7.7275 H              1 <1>                0.0000
     17 H17          0.4946 -15.3752   6.7463 H              1 <1>                0.0000
     18 H18          1.6926 -15.2668  11.4152 H              1 <1>                0.0000
     19 H19          0.3559 -16.1842  11.1212 H              1 <1>                0.0000
     20 H20          1.5710 -16.1189  10.0102 H              1 <1>                0.0000
     21 H21          1.0728 -16.8169   8.7699 H              1 <1>                0.0000
@<TRIPOS>BOND
    1    1    2 1     
    2    1    8 1     
    3    1    9 1     
    4    1   10 1     
    5    2    3 1     
    6    2   11 1     
    7    2   12 1     
    8    3    4 1     
    9    3    6 1     
   10    3   13 1     
   11    4    5 1     
   12    4   14 1     
   13    4   15 1     
   14    5   18 1     
   15    5   19 1     
   16    5   20 1     
   17    6    7 1     
   18    6   16 1     
   19    6   17 1     
   20    7   21 1     
@<TRIPOS>SUBSTRUCTURE
      1 ****           1
@<TRIPOS>SET
DONOR_HYDROGENS      STATIC     ATOMS    <user>   **** ""
4 18 19 20 21
ATOM$RED        STATIC     ATOMS    COLORGROUP SYSTEM
4 18 19 20 21
@<TRIPOS>COMMENT
> <Gold.Version>
2022.2.0

> <Gold.Id.Protein>
3pbl|protein|mol2

> <Gold.Protein.RotatedTorsions>
[ 1303 1298 1297 1294 ] final  162.57 input  179.99 | X-H torsion
[ 2461 2456 2455 2452 ] final  -44.55 input   30.03 | X-H torsion
[ 2515 2510 2509 2506 ] final  165.79 input  -89.99 | X-H torsion
[ 3721 3712 3711 3710 ] final   28.75 input -179.91 | X-H torsion
[ 3841 3832 3831 3830 ] final  -95.68 input -179.91 | X-H torsion
[ 3767 3762 3761 3758 ] final  151.83 input  -89.99 | X-H torsion
[ 2472 2467 2466 2463 ] final  -58.13 input  -89.97 | X-H torsion

> <Gold.Protein.ActiveResidues>
 VAL82   VAL86   LEU89   PHE106  VAL107  ASP110  VAL111  MET112  CYS114  THR115 
 CYS181  SER182  ILE183  PHE188  VAL189  ILE190  SER192  SER193  SER196  TRP342 
 PHE345  PHE346  HIS349  VAL350  TYR365  THR369  GLY372  TYR373 

> <Gold.Protein.RotatedAtoms>
    4.9093   -9.1214    4.8144 H   0  0  0  0  0  0  0  0  0  0  0  0  # atno 1303 bound_to 1298
    0.4739   -8.3788    7.2229 H   0  0  0  0  0  0  0  0  0  0  0  0  # atno 2461 bound_to 2456
   -3.7142   -5.1771    8.9343 H   0  0  0  0  0  0  0  0  0  0  0  0  # atno 2472 bound_to 2467
    2.2317   -8.8684    5.9744 H   0  0  0  0  0  0  0  0  0  0  0  0  # atno 2515 bound_to 2510
   -2.4804  -18.0337   13.8192 H   0  0  0  0  0  0  0  0  0  0  0  0  # atno 3721 bound_to 3712
   -3.9237  -22.8763   11.3144 H   0  0  0  0  0  0  0  0  0  0  0  0  # atno 3767 bound_to 3762
    1.9151  -19.5967    8.6512 H   0  0  0  0  0  0  0  0  0  0  0  0  # atno 3841 bound_to 3832
    3.7788  -10.2466    4.4648 LP  0  0  0  0  0  0  0  0  0  0  0  0  # atno 4297 bound_to 1298
    3.6737   -8.7534    3.8123 LP  0  0  0  0  0  0  0  0  0  0  0  0  # atno 4298 bound_to 1298
    1.2057   -9.2761    8.3747 LP  0  0  0  0  0  0  0  0  0  0  0  0  # atno 4299 bound_to 2456
    2.0580   -8.1532    7.5504 LP  0  0  0  0  0  0  0  0  0  0  0  0  # atno 4300 bound_to 2456
    2.2293   -7.4124    5.2355 LP  0  0  0  0  0  0  0  0  0  0  0  0  # atno 4301 bound_to 2510
    2.8359   -8.7181    4.4650 LP  0  0  0  0  0  0  0  0  0  0  0  0  # atno 4302 bound_to 2510
   -3.2423  -16.9837   14.7652 LP  0  0  0  0  0  0  0  0  0  0  0  0  # atno 4306 bound_to 3712
   -3.4217  -16.9224   13.1433 LP  0  0  0  0  0  0  0  0  0  0  0  0  # atno 4307 bound_to 3712
    3.1278  -20.6402    8.5228 LP  0  0  0  0  0  0  0  0  0  0  0  0  # atno 4314 bound_to 3832
    1.8893  -20.9280    9.5474 LP  0  0  0  0  0  0  0  0  0  0  0  0  # atno 4315 bound_to 3832
   -4.9589  -23.0749   10.0671 LP  0  0  0  0  0  0  0  0  0  0  0  0  # atno 4318 bound_to 3762
   -5.2444  -21.9239   11.1897 LP  0  0  0  0  0  0  0  0  0  0  0  0  # atno 4319 bound_to 3762
   -5.3291   -5.3934    9.0437 LP  0  0  0  0  0  0  0  0  0  0  0  0  # atno 4320 bound_to 2467
   -4.6735   -4.8230    7.6612 LP  0  0  0  0  0  0  0  0  0  0  0  0  # atno 4321 bound_to 2467

> <Gold.Score>
     Score     S(PLP)   S(hbond)     S(cho)   S(metal)  DE(clash)   DE(tors)     intcor
     33.32     -24.73       3.00       0.00       0.00       0.00       0.20       0.00

> <Gold.PLP.Fitness>
33.3220

> <Gold.PLP.PLP>
-24.7275

> <Gold.PLP.part.hbond>
-2.0000

> <Gold.PLP.part.metal>
0.0000

> <Gold.PLP.part.buried>
-3.1561

> <Gold.PLP.part.nonpolar>
-19.6014

> <Gold.PLP.part.repulsive>
0.0000

> <Gold.PLP.ligand.clash>
0.0000

> <Gold.PLP.ligand.torsion>
0.2035

> <Gold.PLP.Chemscore.Hbond>
3.0000

> <Gold.PLP.Chemscore.CHOScore>
0.0000

> <Gold.PLP.Chemscore.Metal>
0.0000

> <Gold.Chemscore.Hbonds>
donor molecule, donor type, donor heavy atom, donor atom, acceptor molecule, acceptor atom, score
      L1  H     5    20       P1  1227  2.00
      L1  H     7    21       P1  1227  1.00

> <Gold.PLP.Chemscore.Internal.Correction>
0.0015

