#       Name:                EN300-683278_i002
#       Creating user name   fsindt
#       Creation time:       Tue Feb 28 13:54:50 2023


#       File generated by GOLD software.
#

@<TRIPOS>MOLECULE
EN300-683278_i002|amine_1|mol2|4697|dock20
    21    20     1
SMALL
USER_CHARGES


@<TRIPOS>ATOM
      1 C1           0.2411 -11.8748   7.7944 C.3            1 <1>                0.0000
      2 C2          -0.0174 -13.3160   7.3503 C.3            1 <1>                0.0000
      3 C3           0.2163 -14.2626   8.5293 C.3            1 <1>                0.0000
      4 C4          -0.0980 -15.6975   8.1013 C.3            1 <1>                0.0000
      5 N5           0.0273 -16.5925   9.2595 N.4            1 <1>                1.0000
      6 C6           1.6772 -14.1716   8.9747 C.3            1 <1>                0.0000
      7 O7           1.8779 -14.9996  10.1220 O.3            1 <1>                0.0000
      8 H8          -0.4986 -11.5865   8.5412 H              1 <1>                0.0000
      9 H9           1.2399 -11.8009   8.2249 H              1 <1>                0.0000
     10 H10          0.1665 -11.2103   6.9336 H              1 <1>                0.0000
     11 H11         -1.0475 -13.4110   7.0066 H              1 <1>                0.0000
     12 H12          0.6619 -13.5731   6.5376 H              1 <1>                0.0000
     13 H13         -0.4341 -13.9796   9.3570 H              1 <1>                0.0000
     14 H14         -1.1153 -15.7462   7.7129 H              1 <1>                0.0000
     15 H15          0.6024 -16.0070   7.3256 H              1 <1>                0.0000
     16 H16          2.3253 -14.5086   8.1656 H              1 <1>                0.0000
     17 H17          1.9168 -13.1385   9.2259 H              1 <1>                0.0000
     18 H18          0.9565 -16.9849   9.2824 H              1 <1>                0.0000
     19 H19         -0.1385 -16.0708  10.1072 H              1 <1>                0.0000
     20 H20         -0.6502 -17.3365   9.1845 H              1 <1>                0.0000
     21 H21          2.1497 -15.9036   9.9120 H              1 <1>                0.0000
@<TRIPOS>BOND
    1    1    2 1     
    2    1    8 1     
    3    1    9 1     
    4    1   10 1     
    5    2    3 1     
    6    2   11 1     
    7    2   12 1     
    8    3    4 1     
    9    3    6 1     
   10    3   13 1     
   11    4    5 1     
   12    4   14 1     
   13    4   15 1     
   14    5   18 1     
   15    5   19 1     
   16    5   20 1     
   17    6    7 1     
   18    6   16 1     
   19    6   17 1     
   20    7   21 1     
@<TRIPOS>SUBSTRUCTURE
      1 ****           1
@<TRIPOS>SET
DONOR_HYDROGENS      STATIC     ATOMS    <user>   **** ""
4 18 19 20 21
ATOM$RED        STATIC     ATOMS    COLORGROUP SYSTEM
4 18 19 20 21
@<TRIPOS>COMMENT
> <Gold.Version>
2022.2.0

> <Gold.Id.Protein>
3pbl|protein|mol2

> <Gold.Protein.RotatedTorsions>
[ 1303 1298 1297 1294 ] final   59.36 input  179.99 | X-H torsion
[ 2461 2456 2455 2452 ] final  -57.33 input   30.03 | X-H torsion
[ 2515 2510 2509 2506 ] final   90.55 input  -89.99 | X-H torsion
[ 3721 3712 3711 3710 ] final   43.94 input -179.91 | X-H torsion
[ 3841 3832 3831 3830 ] final   92.22 input -179.91 | X-H torsion
[ 3767 3762 3761 3758 ] final -161.67 input  -89.99 | X-H torsion
[ 2472 2467 2466 2463 ] final -130.78 input  -89.97 | X-H torsion

> <Gold.Protein.ActiveResidues>
 VAL82   VAL86   LEU89   PHE106  VAL107  ASP110  VAL111  MET112  CYS114  THR115 
 CYS181  SER182  ILE183  PHE188  VAL189  ILE190  SER192  SER193  SER196  TRP342 
 PHE345  PHE346  HIS349  VAL350  TYR365  THR369  GLY372  TYR373 

> <Gold.Protein.RotatedAtoms>
    3.9994  -10.2705    4.6279 H   0  0  0  0  0  0  0  0  0  0  0  0  # atno 1303 bound_to 1298
    0.3841   -8.5278    7.3405 H   0  0  0  0  0  0  0  0  0  0  0  0  # atno 2461 bound_to 2456
   -4.6776   -5.4595    9.4239 H   0  0  0  0  0  0  0  0  0  0  0  0  # atno 2472 bound_to 2467
    2.0427   -7.7407    5.8460 H   0  0  0  0  0  0  0  0  0  0  0  0  # atno 2515 bound_to 2510
   -2.5202  -17.9989   13.5964 H   0  0  0  0  0  0  0  0  0  0  0  0  # atno 3721 bound_to 3712
   -4.2880  -22.3157   11.6420 H   0  0  0  0  0  0  0  0  0  0  0  0  # atno 3767 bound_to 3762
    2.8656  -20.9127    9.2409 H   0  0  0  0  0  0  0  0  0  0  0  0  # atno 3841 bound_to 3832
    3.5043   -8.9674    3.7776 LP  0  0  0  0  0  0  0  0  0  0  0  0  # atno 4297 bound_to 1298
    4.8586   -8.8832    4.6860 LP  0  0  0  0  0  0  0  0  0  0  0  0  # atno 4298 bound_to 1298
    1.4091   -9.2306    8.4002 LP  0  0  0  0  0  0  0  0  0  0  0  0  # atno 4299 bound_to 2456
    1.9443   -8.0497    7.4074 LP  0  0  0  0  0  0  0  0  0  0  0  0  # atno 4300 bound_to 2456
    2.7179   -8.0146    4.3849 LP  0  0  0  0  0  0  0  0  0  0  0  0  # atno 4301 bound_to 2510
    2.5363   -9.2442    5.4440 LP  0  0  0  0  0  0  0  0  0  0  0  0  # atno 4302 bound_to 2510
   -3.1178  -17.1883   14.8469 LP  0  0  0  0  0  0  0  0  0  0  0  0  # atno 4306 bound_to 3712
   -3.5003  -16.7579   13.3188 LP  0  0  0  0  0  0  0  0  0  0  0  0  # atno 4307 bound_to 3712
    1.4022  -20.2536    9.2452 LP  0  0  0  0  0  0  0  0  0  0  0  0  # atno 4314 bound_to 3832
    2.5169  -19.7943    8.1438 LP  0  0  0  0  0  0  0  0  0  0  0  0  # atno 4315 bound_to 3832
   -4.3282  -23.3338   10.3658 LP  0  0  0  0  0  0  0  0  0  0  0  0  # atno 4318 bound_to 3762
   -5.5110  -22.2254   10.5636 LP  0  0  0  0  0  0  0  0  0  0  0  0  # atno 4319 bound_to 3762
   -5.3267   -5.0145    7.9931 LP  0  0  0  0  0  0  0  0  0  0  0  0  # atno 4320 bound_to 2467
   -3.7127   -4.9195    8.2223 LP  0  0  0  0  0  0  0  0  0  0  0  0  # atno 4321 bound_to 2467

> <Gold.Score>
     Score     S(PLP)   S(hbond)     S(cho)   S(metal)  DE(clash)   DE(tors)     intcor
     32.24     -23.27       3.00       0.00       0.00       0.00       0.02       0.00

> <Gold.PLP.Fitness>
32.2397

> <Gold.PLP.PLP>
-23.2733

> <Gold.PLP.part.hbond>
-2.0000

> <Gold.PLP.part.metal>
0.0000

> <Gold.PLP.part.buried>
-2.8047

> <Gold.PLP.part.nonpolar>
-18.4937

> <Gold.PLP.part.repulsive>
0.0000

> <Gold.PLP.ligand.clash>
0.0000

> <Gold.PLP.ligand.torsion>
0.0171

> <Gold.PLP.Chemscore.Hbond>
3.0000

> <Gold.PLP.Chemscore.CHOScore>
0.0000

> <Gold.PLP.Chemscore.Metal>
0.0000

> <Gold.Chemscore.Hbonds>
donor molecule, donor type, donor heavy atom, donor atom, acceptor molecule, acceptor atom, score
      L1  H     5    18       P1  1227  2.00
      L1  H     7    21       P1  1227  1.00

> <Gold.PLP.Chemscore.Internal.Correction>
0.0005

