#       Name:                EN300-683278_i002
#       Creating user name   fsindt
#       Creation time:       Tue Feb 28 13:54:45 2023


#       File generated by GOLD software.
#

@<TRIPOS>MOLECULE
EN300-683278_i002|amine_1|mol2|4697|dock14
    21    20     1
SMALL
USER_CHARGES


@<TRIPOS>ATOM
      1 C1          -4.3012 -10.5018  10.1785 C.3            1 <1>                0.0000
      2 C2          -2.8434 -10.3352   9.7449 C.3            1 <1>                0.0000
      3 C3          -2.1023 -11.6612   9.9275 C.3            1 <1>                0.0000
      4 C4          -0.9110 -11.7158   8.9691 C.3            1 <1>                0.0000
      5 N5           0.1287 -10.7842   9.4267 N.4            1 <1>                1.0000
      6 C6          -1.6024 -11.7716  11.3693 C.3            1 <1>                0.0000
      7 O7          -1.1968 -13.1166  11.6312 O.3            1 <1>                0.0000
      8 H8          -4.8017 -11.2015   9.5092 H              1 <1>                0.0000
      9 H9          -4.3353 -10.8864  11.1979 H              1 <1>                0.0000
     10 H10         -4.8051  -9.5361  10.1375 H              1 <1>                0.0000
     11 H11         -2.8077 -10.0405   8.6960 H              1 <1>                0.0000
     12 H12         -2.3686  -9.5665  10.3545 H              1 <1>                0.0000
     13 H13         -2.7792 -12.4883   9.7134 H              1 <1>                0.0000
     14 H14         -0.5077 -12.7282   8.9480 H              1 <1>                0.0000
     15 H15         -1.2367 -11.4334   7.9680 H              1 <1>                0.0000
     16 H16         -0.7542 -11.1020  11.5120 H              1 <1>                0.0000
     17 H17         -2.4037 -11.4940  12.0540 H              1 <1>                0.0000
     18 H18          0.3945 -10.1768   8.6661 H              1 <1>                0.0000
     19 H19         -0.2288 -10.2300  10.1904 H              1 <1>                0.0000
     20 H20          0.9343 -11.3058   9.7380 H              1 <1>                0.0000
     21 H21         -0.8868 -13.2651  12.5351 H              1 <1>                0.0000
@<TRIPOS>BOND
    1    1    2 1     
    2    1    8 1     
    3    1    9 1     
    4    1   10 1     
    5    2    3 1     
    6    2   11 1     
    7    2   12 1     
    8    3    4 1     
    9    3    6 1     
   10    3   13 1     
   11    4    5 1     
   12    4   14 1     
   13    4   15 1     
   14    5   18 1     
   15    5   19 1     
   16    5   20 1     
   17    6    7 1     
   18    6   16 1     
   19    6   17 1     
   20    7   21 1     
@<TRIPOS>SUBSTRUCTURE
      1 ****           1
@<TRIPOS>SET
DONOR_HYDROGENS      STATIC     ATOMS    <user>   **** ""
4 18 19 20 21
ATOM$RED        STATIC     ATOMS    COLORGROUP SYSTEM
4 18 19 20 21
@<TRIPOS>COMMENT
> <Gold.Version>
2022.2.0

> <Gold.Id.Protein>
3pbl|protein|mol2

> <Gold.Protein.RotatedTorsions>
[ 1303 1298 1297 1294 ] final   86.31 input  179.99 | X-H torsion
[ 2461 2456 2455 2452 ] final  -13.86 input   30.03 | X-H torsion
[ 2515 2510 2509 2506 ] final  157.91 input  -89.99 | X-H torsion
[ 3721 3712 3711 3710 ] final  -87.34 input -179.91 | X-H torsion
[ 3841 3832 3831 3830 ] final    9.25 input -179.91 | X-H torsion
[ 3767 3762 3761 3758 ] final   12.60 input  -89.99 | X-H torsion
[ 2472 2467 2466 2463 ] final   -1.41 input  -89.97 | X-H torsion

> <Gold.Protein.ActiveResidues>
 VAL82   VAL86   LEU89   PHE106  VAL107  ASP110  VAL111  MET112  CYS114  THR115 
 CYS181  SER182  ILE183  PHE188  VAL189  ILE190  SER192  SER193  SER196  TRP342 
 PHE345  PHE346  HIS349  VAL350  TYR365  THR369  GLY372  TYR373 

> <Gold.Protein.RotatedAtoms>
    4.3667  -10.1511    4.8369 H   0  0  0  0  0  0  0  0  0  0  0  0  # atno 1303 bound_to 1298
    0.8331   -8.0792    7.0490 H   0  0  0  0  0  0  0  0  0  0  0  0  # atno 2461 bound_to 2456
   -3.7851   -4.8813    8.0918 H   0  0  0  0  0  0  0  0  0  0  0  0  # atno 2472 bound_to 2467
    2.1856   -8.7600    6.0282 H   0  0  0  0  0  0  0  0  0  0  0  0  # atno 2515 bound_to 2510
   -3.0054  -16.9807   14.7003 H   0  0  0  0  0  0  0  0  0  0  0  0  # atno 3721 bound_to 3712
   -5.1958  -22.8682   10.0868 H   0  0  0  0  0  0  0  0  0  0  0  0  # atno 3767 bound_to 3762
    1.8242  -20.5889    9.5958 H   0  0  0  0  0  0  0  0  0  0  0  0  # atno 3841 bound_to 3832
    3.3464   -9.3745    3.8259 LP  0  0  0  0  0  0  0  0  0  0  0  0  # atno 4297 bound_to 1298
    4.6489   -8.5954    4.4286 LP  0  0  0  0  0  0  0  0  0  0  0  0  # atno 4298 bound_to 1298
    0.7447   -9.2483    8.1860 LP  0  0  0  0  0  0  0  0  0  0  0  0  # atno 4299 bound_to 2456
    2.1598   -8.4805    7.9129 LP  0  0  0  0  0  0  0  0  0  0  0  0  # atno 4300 bound_to 2456
    2.2790   -7.4092    5.1160 LP  0  0  0  0  0  0  0  0  0  0  0  0  # atno 4301 bound_to 2510
    2.8322   -8.8297    4.5307 LP  0  0  0  0  0  0  0  0  0  0  0  0  # atno 4302 bound_to 2510
   -3.4273  -16.9111   13.1527 LP  0  0  0  0  0  0  0  0  0  0  0  0  # atno 4306 bound_to 3712
   -2.6306  -18.2106   13.7386 LP  0  0  0  0  0  0  0  0  0  0  0  0  # atno 4307 bound_to 3712
    2.0076  -19.6360    8.3173 LP  0  0  0  0  0  0  0  0  0  0  0  0  # atno 4314 bound_to 3832
    3.1145  -20.7861    8.6617 LP  0  0  0  0  0  0  0  0  0  0  0  0  # atno 4315 bound_to 3832
   -5.0179  -21.9254   11.4083 LP  0  0  0  0  0  0  0  0  0  0  0  0  # atno 4318 bound_to 3762
   -3.9138  -23.0816   11.0757 LP  0  0  0  0  0  0  0  0  0  0  0  0  # atno 4319 bound_to 3762
   -4.5244   -5.4455    9.4339 LP  0  0  0  0  0  0  0  0  0  0  0  0  # atno 4320 bound_to 2467
   -5.4073   -5.0667    8.1134 LP  0  0  0  0  0  0  0  0  0  0  0  0  # atno 4321 bound_to 2467

> <Gold.Score>
     Score     S(PLP)   S(hbond)     S(cho)   S(metal)  DE(clash)   DE(tors)     intcor
     31.60     -29.47       1.00       0.00       0.00       0.00       0.44       0.00

> <Gold.PLP.Fitness>
31.5981

> <Gold.PLP.PLP>
-29.4713

> <Gold.PLP.part.hbond>
-1.1718

> <Gold.PLP.part.metal>
0.0000

> <Gold.PLP.part.buried>
-3.1524

> <Gold.PLP.part.nonpolar>
-25.5457

> <Gold.PLP.part.repulsive>
0.0026

> <Gold.PLP.ligand.clash>
0.0000

> <Gold.PLP.ligand.torsion>
0.4369

> <Gold.PLP.Chemscore.Hbond>
1.0000

> <Gold.PLP.Chemscore.CHOScore>
0.0000

> <Gold.PLP.Chemscore.Metal>
0.0000

> <Gold.Chemscore.Hbonds>
donor molecule, donor type, donor heavy atom, donor atom, acceptor molecule, acceptor atom, score
      L1  H     5    18       P1  2456  1.00

> <Gold.PLP.Chemscore.Internal.Correction>
0.0006

