#       Name:                EN300-683278_i002
#       Creating user name   fsindt
#       Creation time:       Tue Feb 28 13:54:43 2023


#       File generated by GOLD software.
#

@<TRIPOS>MOLECULE
EN300-683278_i002|amine_1|mol2|4697|dock12
    21    20     1
SMALL
USER_CHARGES


@<TRIPOS>ATOM
      1 C1           1.1002 -12.4834   7.0099 C.3            1 <1>                0.0000
      2 C2           0.6751 -13.9486   6.8944 C.3            1 <1>                0.0000
      3 C3          -0.0756 -14.3632   8.1615 C.3            1 <1>                0.0000
      4 C4          -0.3900 -15.8593   8.1014 C.3            1 <1>                0.0000
      5 N5           0.8222 -16.5995   7.7261 N.4            1 <1>                1.0000
      6 C6           0.7933 -14.0733   9.3870 C.3            1 <1>                0.0000
      7 O7           2.0660 -14.7035   9.2283 O.3            1 <1>                0.0000
      8 H8           0.2143 -11.8489   7.0356 H              1 <1>                0.0000
      9 H9           1.6745 -12.3428   7.9257 H              1 <1>                0.0000
     10 H10          1.7148 -12.2145   6.1508 H              1 <1>                0.0000
     11 H11          0.0232 -14.0706   6.0294 H              1 <1>                0.0000
     12 H12          1.5590 -14.5749   6.7744 H              1 <1>                0.0000
     13 H13         -1.0055 -13.7991   8.2337 H              1 <1>                0.0000
     14 H14         -0.7343 -16.1977   9.0787 H              1 <1>                0.0000
     15 H15         -1.1687 -16.0376   7.3600 H              1 <1>                0.0000
     16 H16          0.9310 -12.9968   9.4883 H              1 <1>                0.0000
     17 H17          0.3039 -14.4627  10.2796 H              1 <1>                0.0000
     18 H18          1.4108 -16.0130   7.1537 H              1 <1>                0.0000
     19 H19          1.3238 -16.8683   8.5594 H              1 <1>                0.0000
     20 H20          0.5646 -17.4258   7.2074 H              1 <1>                0.0000
     21 H21          2.0968 -15.6146   9.5509 H              1 <1>                0.0000
@<TRIPOS>BOND
    1    1    2 1     
    2    1    8 1     
    3    1    9 1     
    4    1   10 1     
    5    2    3 1     
    6    2   11 1     
    7    2   12 1     
    8    3    4 1     
    9    3    6 1     
   10    3   13 1     
   11    4    5 1     
   12    4   14 1     
   13    4   15 1     
   14    5   18 1     
   15    5   19 1     
   16    5   20 1     
   17    6    7 1     
   18    6   16 1     
   19    6   17 1     
   20    7   21 1     
@<TRIPOS>SUBSTRUCTURE
      1 ****           1
@<TRIPOS>SET
DONOR_HYDROGENS      STATIC     ATOMS    <user>   **** ""
4 18 19 20 21
ATOM$RED        STATIC     ATOMS    COLORGROUP SYSTEM
4 18 19 20 21
@<TRIPOS>COMMENT
> <Gold.Version>
2022.2.0

> <Gold.Id.Protein>
3pbl|protein|mol2

> <Gold.Protein.RotatedTorsions>
[ 1303 1298 1297 1294 ] final  145.08 input  179.99 | X-H torsion
[ 2461 2456 2455 2452 ] final -122.31 input   30.03 | X-H torsion
[ 2515 2510 2509 2506 ] final   64.25 input  -89.99 | X-H torsion
[ 3721 3712 3711 3710 ] final  -31.52 input -179.91 | X-H torsion
[ 3841 3832 3831 3830 ] final -167.69 input -179.91 | X-H torsion
[ 3767 3762 3761 3758 ] final -107.23 input  -89.99 | X-H torsion
[ 2472 2467 2466 2463 ] final  -71.56 input  -89.97 | X-H torsion

> <Gold.Protein.ActiveResidues>
 VAL82   VAL86   LEU89   PHE106  VAL107  ASP110  VAL111  MET112  CYS114  THR115 
 CYS181  SER182  ILE183  PHE188  VAL189  ILE190  SER192  SER193  SER196  TRP342 
 PHE345  PHE346  HIS349  VAL350  TYR365  THR369  GLY372  TYR373 

> <Gold.Protein.RotatedAtoms>
    4.8911   -9.3922    4.9068 H   0  0  0  0  0  0  0  0  0  0  0  0  # atno 1303 bound_to 1298
    0.6013   -9.1890    8.0767 H   0  0  0  0  0  0  0  0  0  0  0  0  # atno 2461 bound_to 2456
   -3.8255   -5.2523    9.1090 H   0  0  0  0  0  0  0  0  0  0  0  0  # atno 2472 bound_to 2467
    2.1295   -7.4876    5.5110 H   0  0  0  0  0  0  0  0  0  0  0  0  # atno 2515 bound_to 2510
   -2.6115  -17.6831   14.6043 H   0  0  0  0  0  0  0  0  0  0  0  0  # atno 3721 bound_to 3712
   -5.0197  -21.9244   11.4064 H   0  0  0  0  0  0  0  0  0  0  0  0  # atno 3767 bound_to 3762
    2.8382  -19.9158    8.3653 H   0  0  0  0  0  0  0  0  0  0  0  0  # atno 3841 bound_to 3832
    3.5801  -10.1423    4.2862 LP  0  0  0  0  0  0  0  0  0  0  0  0  # atno 4297 bound_to 1298
    3.8907   -8.5868    3.8984 LP  0  0  0  0  0  0  0  0  0  0  0  0  # atno 4298 bound_to 1298
    2.1310   -8.6181    8.0404 LP  0  0  0  0  0  0  0  0  0  0  0  0  # atno 4299 bound_to 2456
    1.0052   -8.0012    7.0311 LP  0  0  0  0  0  0  0  0  0  0  0  0  # atno 4300 bound_to 2456
    2.8147   -8.4322    4.3690 LP  0  0  0  0  0  0  0  0  0  0  0  0  # atno 4301 bound_to 2510
    2.3527   -9.0798    5.7951 LP  0  0  0  0  0  0  0  0  0  0  0  0  # atno 4302 bound_to 2510
   -3.5589  -16.5554   13.9649 LP  0  0  0  0  0  0  0  0  0  0  0  0  # atno 4306 bound_to 3712
   -2.9538  -17.7554   13.0373 LP  0  0  0  0  0  0  0  0  0  0  0  0  # atno 4307 bound_to 3712
    2.5545  -21.1579    9.3414 LP  0  0  0  0  0  0  0  0  0  0  0  0  # atno 4314 bound_to 3832
    1.3964  -20.0417    9.0591 LP  0  0  0  0  0  0  0  0  0  0  0  0  # atno 4315 bound_to 3832
   -3.9135  -23.0799   11.0781 LP  0  0  0  0  0  0  0  0  0  0  0  0  # atno 4318 bound_to 3762
   -5.1942  -22.8706   10.0869 LP  0  0  0  0  0  0  0  0  0  0  0  0  # atno 4319 bound_to 3762
   -5.4369   -5.3389    8.8595 LP  0  0  0  0  0  0  0  0  0  0  0  0  # atno 4320 bound_to 2467
   -4.4543   -4.8024    7.6707 LP  0  0  0  0  0  0  0  0  0  0  0  0  # atno 4321 bound_to 2467

> <Gold.Score>
     Score     S(PLP)   S(hbond)     S(cho)   S(metal)  DE(clash)   DE(tors)     intcor
     32.55     -23.74       3.00       0.00       0.00       0.00       0.10       0.00

> <Gold.PLP.Fitness>
32.5468

> <Gold.PLP.PLP>
-23.7423

> <Gold.PLP.part.hbond>
-2.0000

> <Gold.PLP.part.metal>
0.0000

> <Gold.PLP.part.buried>
-2.7076

> <Gold.PLP.part.nonpolar>
-18.4581

> <Gold.PLP.part.repulsive>
0.0000

> <Gold.PLP.ligand.clash>
0.0000

> <Gold.PLP.ligand.torsion>
0.0984

> <Gold.PLP.Chemscore.Hbond>
3.0000

> <Gold.PLP.Chemscore.CHOScore>
0.0000

> <Gold.PLP.Chemscore.Metal>
0.0000

> <Gold.Chemscore.Hbonds>
donor molecule, donor type, donor heavy atom, donor atom, acceptor molecule, acceptor atom, score
      L1  H     5    19       P1  1227  2.00
      L1  H     7    21       P1  1227  1.00

> <Gold.PLP.Chemscore.Internal.Correction>
0.0015

