#       Name:                EN300-683278_i002
#       Creating user name   fsindt
#       Creation time:       Tue Feb 28 13:54:34 2023


#       File generated by GOLD software.
#

@<TRIPOS>MOLECULE
EN300-683278_i002|amine_1|mol2|4697|dock2
    21    20     1
SMALL
USER_CHARGES


@<TRIPOS>ATOM
      1 C1           0.8133 -11.7361   7.2016 C.3            1 <1>                0.0000
      2 C2           0.9624 -13.1446   6.6231 C.3            1 <1>                0.0000
      3 C3           0.5538 -14.1750   7.6777 C.3            1 <1>                0.0000
      4 C4           0.7784 -15.5847   7.1273 C.3            1 <1>                0.0000
      5 N5           0.2835 -16.5728   8.0952 N.4            1 <1>                1.0000
      6 C6           1.3998 -13.9785   8.9373 C.3            1 <1>                0.0000
      7 O7           1.0937 -15.0063   9.8819 O.3            1 <1>                0.0000
      8 H8          -0.2391 -11.5352   7.4023 H              1 <1>                0.0000
      9 H9           1.3806 -11.6624   8.1294 H              1 <1>                0.0000
     10 H10          1.1922 -11.0070   6.4853 H              1 <1>                0.0000
     11 H11          0.3216 -13.2474   5.7472 H              1 <1>                0.0000
     12 H12          2.0004 -13.3111   6.3353 H              1 <1>                0.0000
     13 H13         -0.5000 -14.0446   7.9239 H              1 <1>                0.0000
     14 H14          0.2403 -15.6972   6.1860 H              1 <1>                0.0000
     15 H15          1.8434 -15.7434   6.9583 H              1 <1>                0.0000
     16 H16          2.4569 -14.0281   8.6763 H              1 <1>                0.0000
     17 H17          1.1789 -13.0052   9.3752 H              1 <1>                0.0000
     18 H18          0.0856 -17.4402   7.6191 H              1 <1>                0.0000
     19 H19          0.9848 -16.7303   8.8034 H              1 <1>                0.0000
     20 H20         -0.5597 -16.2267   8.5279 H              1 <1>                0.0000
     21 H21          1.6615 -15.7859   9.8126 H              1 <1>                0.0000
@<TRIPOS>BOND
    1    1    2 1     
    2    1    8 1     
    3    1    9 1     
    4    1   10 1     
    5    2    3 1     
    6    2   11 1     
    7    2   12 1     
    8    3    4 1     
    9    3    6 1     
   10    3   13 1     
   11    4    5 1     
   12    4   14 1     
   13    4   15 1     
   14    5   18 1     
   15    5   19 1     
   16    5   20 1     
   17    6    7 1     
   18    6   16 1     
   19    6   17 1     
   20    7   21 1     
@<TRIPOS>SUBSTRUCTURE
      1 ****           1
@<TRIPOS>SET
DONOR_HYDROGENS      STATIC     ATOMS    <user>   **** ""
4 18 19 20 21
ATOM$RED        STATIC     ATOMS    COLORGROUP SYSTEM
4 18 19 20 21
@<TRIPOS>COMMENT
> <Gold.Version>
2022.2.0

> <Gold.Id.Protein>
3pbl|protein|mol2

> <Gold.Protein.RotatedTorsions>
[ 1303 1298 1297 1294 ] final  118.92 input  179.99 | X-H torsion
[ 2461 2456 2455 2452 ] final  -23.60 input   30.03 | X-H torsion
[ 2515 2510 2509 2506 ] final  -45.34 input  -89.99 | X-H torsion
[ 3721 3712 3711 3710 ] final   13.57 input -179.91 | X-H torsion
[ 3841 3832 3831 3830 ] final  151.59 input -179.91 | X-H torsion
[ 3767 3762 3761 3758 ] final -107.81 input  -89.99 | X-H torsion
[ 2472 2467 2466 2463 ] final   20.84 input  -89.97 | X-H torsion

> <Gold.Protein.ActiveResidues>
 VAL82   VAL86   LEU89   PHE106  VAL107  ASP110  VAL111  MET112  CYS114  THR115 
 CYS181  SER182  ILE183  PHE188  VAL189  ILE190  SER192  SER193  SER196  TRP342 
 PHE345  PHE346  HIS349  VAL350  TYR365  THR369  GLY372  TYR373 

> <Gold.Protein.RotatedAtoms>
    4.7331   -9.7862    4.9499 H   0  0  0  0  0  0  0  0  0  0  0  0  # atno 1303 bound_to 1298
    0.7008   -8.1618    7.0853 H   0  0  0  0  0  0  0  0  0  0  0  0  # atno 2461 bound_to 2456
   -4.0367   -4.8171    7.8369 H   0  0  0  0  0  0  0  0  0  0  0  0  # atno 2472 bound_to 2467
    2.7851   -8.2644    4.3539 H   0  0  0  0  0  0  0  0  0  0  0  0  # atno 2515 bound_to 2510
   -2.4703  -18.0160   14.0472 H   0  0  0  0  0  0  0  0  0  0  0  0  # atno 3721 bound_to 3712
   -5.0123  -21.9256   11.4121 H   0  0  0  0  0  0  0  0  0  0  0  0  # atno 3767 bound_to 3762
    3.1198  -20.3872    8.6130 H   0  0  0  0  0  0  0  0  0  0  0  0  # atno 3841 bound_to 3832
    3.3808   -9.8585    4.0376 LP  0  0  0  0  0  0  0  0  0  0  0  0  # atno 4297 bound_to 1298
    4.2480   -8.4765    4.1039 LP  0  0  0  0  0  0  0  0  0  0  0  0  # atno 4298 bound_to 1298
    0.8815   -9.2782    8.2636 LP  0  0  0  0  0  0  0  0  0  0  0  0  # atno 4299 bound_to 2456
    2.1553   -8.3681    7.7990 LP  0  0  0  0  0  0  0  0  0  0  0  0  # atno 4300 bound_to 2456
    2.4255   -9.1660    5.6667 LP  0  0  0  0  0  0  0  0  0  0  0  0  # atno 4301 bound_to 2510
    2.0860   -7.5688    5.6551 LP  0  0  0  0  0  0  0  0  0  0  0  0  # atno 4302 bound_to 2510
   -3.3560  -16.8073   14.6239 LP  0  0  0  0  0  0  0  0  0  0  0  0  # atno 4306 bound_to 3712
   -3.3197  -17.1193   13.0214 LP  0  0  0  0  0  0  0  0  0  0  0  0  # atno 4307 bound_to 3712
    1.9494  -20.9674    9.5455 LP  0  0  0  0  0  0  0  0  0  0  0  0  # atno 4314 bound_to 3832
    1.6760  -19.6876    8.5689 LP  0  0  0  0  0  0  0  0  0  0  0  0  # atno 4315 bound_to 3832
   -3.9145  -23.0853   11.0704 LP  0  0  0  0  0  0  0  0  0  0  0  0  # atno 4318 bound_to 3762
   -5.2006  -22.8639   10.0888 LP  0  0  0  0  0  0  0  0  0  0  0  0  # atno 4319 bound_to 3762
   -4.1734   -5.3814    9.3631 LP  0  0  0  0  0  0  0  0  0  0  0  0  # atno 4320 bound_to 2467
   -5.5067   -5.1950    8.4390 LP  0  0  0  0  0  0  0  0  0  0  0  0  # atno 4321 bound_to 2467

> <Gold.Score>
     Score     S(PLP)   S(hbond)     S(cho)   S(metal)  DE(clash)   DE(tors)     intcor
     35.83     -26.88       3.00       0.00       0.00       0.00       0.03       0.00

> <Gold.PLP.Fitness>
35.8260

> <Gold.PLP.PLP>
-26.8776

> <Gold.PLP.part.hbond>
-2.0000

> <Gold.PLP.part.metal>
0.0000

> <Gold.PLP.part.buried>
-3.4610

> <Gold.PLP.part.nonpolar>
-21.7528

> <Gold.PLP.part.repulsive>
0.0000

> <Gold.PLP.ligand.clash>
0.0000

> <Gold.PLP.ligand.torsion>
0.0266

> <Gold.PLP.Chemscore.Hbond>
3.0000

> <Gold.PLP.Chemscore.CHOScore>
0.0000

> <Gold.PLP.Chemscore.Metal>
0.0000

> <Gold.Chemscore.Hbonds>
donor molecule, donor type, donor heavy atom, donor atom, acceptor molecule, acceptor atom, score
      L1  H     5    19       P1  1227  2.00
      L1  H     7    21       P1  1227  1.00

> <Gold.PLP.Chemscore.Internal.Correction>
0.0016

