#       Name:                EN300-683278_i002
#       Creating user name   fsindt
#       Creation time:       Tue Feb 28 13:54:38 2023


#       File generated by GOLD software.
#

@<TRIPOS>MOLECULE
EN300-683278_i002|amine_1|mol2|4697|dock6
    21    20     1
SMALL
USER_CHARGES


@<TRIPOS>ATOM
      1 C1           0.8035 -15.4239   6.8967 C.3            1 <1>                0.0000
      2 C2          -0.3703 -14.6502   7.5004 C.3            1 <1>                0.0000
      3 C3           0.1633 -13.5486   8.4184 C.3            1 <1>                0.0000
      4 C4           1.3201 -14.0981   9.2554 C.3            1 <1>                0.0000
      5 N5           0.8566 -15.2571  10.0301 N.4            1 <1>                1.0000
      6 C6           0.6590 -12.3747   7.5716 C.3            1 <1>                0.0000
      7 O7           1.0615 -11.3050   8.4294 O.3            1 <1>                0.0000
      8 H8           1.3770 -14.7643   6.2455 H              1 <1>                0.0000
      9 H9           1.4455 -15.7926   7.6968 H              1 <1>                0.0000
     10 H10          0.4243 -16.2661   6.3179 H              1 <1>                0.0000
     11 H11         -0.9602 -14.2025   6.7005 H              1 <1>                0.0000
     12 H12         -0.9967 -15.3314   8.0762 H              1 <1>                0.0000
     13 H13         -0.6341 -13.2086   9.0793 H              1 <1>                0.0000
     14 H14          2.1327 -14.4033   8.5961 H              1 <1>                0.0000
     15 H15          1.6755 -13.3247   9.9362 H              1 <1>                0.0000
     16 H16          1.5079 -12.6953   6.9678 H              1 <1>                0.0000
     17 H17         -0.1437 -12.0337   6.9179 H              1 <1>                0.0000
     18 H18         -0.1328 -15.3872   9.8812 H              1 <1>                0.0000
     19 H19          1.3533 -16.0826   9.7301 H              1 <1>                0.0000
     20 H20          1.0310 -15.0975  11.0110 H              1 <1>                0.0000
     21 H21          1.2153 -10.4684   7.9694 H              1 <1>                0.0000
@<TRIPOS>BOND
    1    1    2 1     
    2    1    8 1     
    3    1    9 1     
    4    1   10 1     
    5    2    3 1     
    6    2   11 1     
    7    2   12 1     
    8    3    4 1     
    9    3    6 1     
   10    3   13 1     
   11    4    5 1     
   12    4   14 1     
   13    4   15 1     
   14    5   18 1     
   15    5   19 1     
   16    5   20 1     
   17    6    7 1     
   18    6   16 1     
   19    6   17 1     
   20    7   21 1     
@<TRIPOS>SUBSTRUCTURE
      1 ****           1
@<TRIPOS>SET
DONOR_HYDROGENS      STATIC     ATOMS    <user>   **** ""
4 18 19 20 21
ATOM$RED        STATIC     ATOMS    COLORGROUP SYSTEM
4 18 19 20 21
@<TRIPOS>COMMENT
> <Gold.Version>
2022.2.0

> <Gold.Id.Protein>
3pbl|protein|mol2

> <Gold.Protein.RotatedTorsions>
[ 1303 1298 1297 1294 ] final   38.88 input  179.99 | X-H torsion
[ 2461 2456 2455 2452 ] final   42.93 input   30.03 | X-H torsion
[ 2515 2510 2509 2506 ] final   -9.93 input  -89.99 | X-H torsion
[ 3721 3712 3711 3710 ] final  100.67 input -179.91 | X-H torsion
[ 3841 3832 3831 3830 ] final  -66.36 input -179.91 | X-H torsion
[ 3767 3762 3761 3758 ] final -174.59 input  -89.99 | X-H torsion
[ 2472 2467 2466 2463 ] final  -53.75 input  -89.97 | X-H torsion

> <Gold.Protein.ActiveResidues>
 VAL82   VAL86   LEU89   PHE106  VAL107  ASP110  VAL111  MET112  CYS114  THR115 
 CYS181  SER182  ILE183  PHE188  VAL189  ILE190  SER192  SER193  SER196  TRP342 
 PHE345  PHE346  HIS349  VAL350  TYR365  THR369  GLY372  TYR373 

> <Gold.Protein.RotatedAtoms>
    3.7334  -10.2308    4.4277 H   0  0  0  0  0  0  0  0  0  0  0  0  # atno 1303 bound_to 1298
    1.7037   -7.9450    7.2188 H   0  0  0  0  0  0  0  0  0  0  0  0  # atno 2461 bound_to 2456
   -3.6878   -5.1518    8.8721 H   0  0  0  0  0  0  0  0  0  0  0  0  # atno 2472 bound_to 2467
    2.6063   -7.7430    4.5111 H   0  0  0  0  0  0  0  0  0  0  0  0  # atno 2515 bound_to 2510
   -2.8632  -17.4844   13.0533 H   0  0  0  0  0  0  0  0  0  0  0  0  # atno 3721 bound_to 3712
   -4.1459  -22.4667   11.5966 H   0  0  0  0  0  0  0  0  0  0  0  0  # atno 3767 bound_to 3762
    1.6489  -19.7575    8.9600 H   0  0  0  0  0  0  0  0  0  0  0  0  # atno 3841 bound_to 3832
    3.7169   -8.7127    3.8265 LP  0  0  0  0  0  0  0  0  0  0  0  0  # atno 4297 bound_to 1298
    4.9121   -9.1775    4.8374 LP  0  0  0  0  0  0  0  0  0  0  0  0  # atno 4298 bound_to 1298
    0.3306   -8.7625    7.5561 LP  0  0  0  0  0  0  0  0  0  0  0  0  # atno 4299 bound_to 2456
    1.7036   -9.1005    8.3730 LP  0  0  0  0  0  0  0  0  0  0  0  0  # atno 4300 bound_to 2456
    2.6606   -9.2447    5.1496 LP  0  0  0  0  0  0  0  0  0  0  0  0  # atno 4301 bound_to 2510
    2.0297   -8.0118    6.0148 LP  0  0  0  0  0  0  0  0  0  0  0  0  # atno 4302 bound_to 2510
   -2.7033  -17.9531   14.5806 LP  0  0  0  0  0  0  0  0  0  0  0  0  # atno 4306 bound_to 3712
   -3.5187  -16.5871   14.2122 LP  0  0  0  0  0  0  0  0  0  0  0  0  # atno 4307 bound_to 3712
    3.0026  -20.2555    8.2559 LP  0  0  0  0  0  0  0  0  0  0  0  0  # atno 4314 bound_to 3832
    2.3220  -21.1269    9.4576 LP  0  0  0  0  0  0  0  0  0  0  0  0  # atno 4315 bound_to 3832
   -4.4957  -23.3041   10.2389 LP  0  0  0  0  0  0  0  0  0  0  0  0  # atno 4318 bound_to 3762
   -5.4855  -22.1042   10.7359 LP  0  0  0  0  0  0  0  0  0  0  0  0  # atno 4319 bound_to 3762
   -5.2845   -5.4082    9.0985 LP  0  0  0  0  0  0  0  0  0  0  0  0  # atno 4320 bound_to 2467
   -4.7445   -4.8335    7.6686 LP  0  0  0  0  0  0  0  0  0  0  0  0  # atno 4321 bound_to 2467

> <Gold.Score>
     Score     S(PLP)   S(hbond)     S(cho)   S(metal)  DE(clash)   DE(tors)     intcor
     33.83     -25.16       3.00       0.00       0.00       0.00       0.16       0.00

> <Gold.PLP.Fitness>
33.8345

> <Gold.PLP.PLP>
-25.1586

> <Gold.PLP.part.hbond>
-2.0000

> <Gold.PLP.part.metal>
0.0000

> <Gold.PLP.part.buried>
-2.8979

> <Gold.PLP.part.nonpolar>
-20.0914

> <Gold.PLP.part.repulsive>
0.0000

> <Gold.PLP.ligand.clash>
0.0000

> <Gold.PLP.ligand.torsion>
0.1628

> <Gold.PLP.Chemscore.Hbond>
3.0000

> <Gold.PLP.Chemscore.CHOScore>
0.0000

> <Gold.PLP.Chemscore.Metal>
0.0000

> <Gold.Chemscore.Hbonds>
donor molecule, donor type, donor heavy atom, donor atom, acceptor molecule, acceptor atom, score
      L1  H     5    19       P1  1227  2.00
      L1  H     7    21       P1  2456  1.00

> <Gold.PLP.Chemscore.Internal.Correction>
0.0015

