#       Name:                EN300-683278_i002
#       Creating user name   fsindt
#       Creation time:       Tue Feb 28 13:54:39 2023


#       File generated by GOLD software.
#

@<TRIPOS>MOLECULE
EN300-683278_i002|amine_1|mol2|4697|dock7
    21    20     1
SMALL
USER_CHARGES


@<TRIPOS>ATOM
      1 C1           1.1302 -13.4865   6.8956 C.3            1 <1>                0.0000
      2 C2          -0.1522 -13.6853   7.7060 C.3            1 <1>                0.0000
      3 C3           0.0718 -13.2047   9.1412 C.3            1 <1>                0.0000
      4 C4           1.1049 -14.1029   9.8244 C.3            1 <1>                0.0000
      5 N5           0.6159 -15.4881   9.8391 N.4            1 <1>                1.0000
      6 C6           0.5829 -11.7626   9.1222 C.3            1 <1>                0.0000
      7 O7          -0.3439 -10.9382   8.4126 O.3            1 <1>                0.0000
      8 H8           1.3436 -12.4212   6.8084 H              1 <1>                0.0000
      9 H9           1.9593 -13.9831   7.3999 H              1 <1>                0.0000
     10 H10          1.0015 -13.9139   5.9011 H              1 <1>                0.0000
     11 H11         -0.9609 -13.1118   7.2529 H              1 <1>                0.0000
     12 H12         -0.4168 -14.7426   7.7139 H              1 <1>                0.0000
     13 H13         -0.8687 -13.2496   9.6904 H              1 <1>                0.0000
     14 H14          2.0462 -14.0557   9.2767 H              1 <1>                0.0000
     15 H15          1.2625 -13.7623  10.8477 H              1 <1>                0.0000
     16 H16          0.6832 -11.3993  10.1449 H              1 <1>                0.0000
     17 H17          1.5533 -11.7276   8.6272 H              1 <1>                0.0000
     18 H18          0.1452 -15.6693  10.7130 H              1 <1>                0.0000
     19 H19         -0.0288 -15.6253   9.0751 H              1 <1>                0.0000
     20 H20          1.3953 -16.1210   9.7393 H              1 <1>                0.0000
     21 H21          0.0271 -10.0967   8.1137 H              1 <1>                0.0000
@<TRIPOS>BOND
    1    1    2 1     
    2    1    8 1     
    3    1    9 1     
    4    1   10 1     
    5    2    3 1     
    6    2   11 1     
    7    2   12 1     
    8    3    4 1     
    9    3    6 1     
   10    3   13 1     
   11    4    5 1     
   12    4   14 1     
   13    4   15 1     
   14    5   18 1     
   15    5   19 1     
   16    5   20 1     
   17    6    7 1     
   18    6   16 1     
   19    6   17 1     
   20    7   21 1     
@<TRIPOS>SUBSTRUCTURE
      1 ****           1
@<TRIPOS>SET
DONOR_HYDROGENS      STATIC     ATOMS    <user>   **** ""
4 18 19 20 21
ATOM$RED        STATIC     ATOMS    COLORGROUP SYSTEM
4 18 19 20 21
@<TRIPOS>COMMENT
> <Gold.Version>
2022.2.0

> <Gold.Id.Protein>
3pbl|protein|mol2

> <Gold.Protein.RotatedTorsions>
[ 1303 1298 1297 1294 ] final  -29.64 input  179.99 | X-H torsion
[ 2461 2456 2455 2452 ] final  112.43 input   30.03 | X-H torsion
[ 2515 2510 2509 2506 ] final  137.54 input  -89.99 | X-H torsion
[ 3721 3712 3711 3710 ] final  -93.91 input -179.91 | X-H torsion
[ 3841 3832 3831 3830 ] final  102.96 input -179.91 | X-H torsion
[ 3767 3762 3761 3758 ] final  -97.35 input  -89.99 | X-H torsion
[ 2472 2467 2466 2463 ] final   44.02 input  -89.97 | X-H torsion

> <Gold.Protein.ActiveResidues>
 VAL82   VAL86   LEU89   PHE106  VAL107  ASP110  VAL111  MET112  CYS114  THR115 
 CYS181  SER182  ILE183  PHE188  VAL189  ILE190  SER192  SER193  SER196  TRP342 
 PHE345  PHE346  HIS349  VAL350  TYR365  THR369  GLY372  TYR373 

> <Gold.Protein.RotatedAtoms>
    3.3368   -9.4378    3.8444 H   0  0  0  0  0  0  0  0  0  0  0  0  # atno 1303 bound_to 1298
    2.1489   -8.5552    7.9838 H   0  0  0  0  0  0  0  0  0  0  0  0  # atno 2461 bound_to 2456
   -4.3829   -4.8001    7.6842 H   0  0  0  0  0  0  0  0  0  0  0  0  # atno 2472 bound_to 2467
    2.0899   -8.4478    6.0956 H   0  0  0  0  0  0  0  0  0  0  0  0  # atno 2515 bound_to 2510
   -3.0531  -16.9039   14.6594 H   0  0  0  0  0  0  0  0  0  0  0  0  # atno 3721 bound_to 3712
   -5.1421  -21.9140   11.3000 H   0  0  0  0  0  0  0  0  0  0  0  0  # atno 3767 bound_to 3762
    2.9667  -20.8560    9.1275 H   0  0  0  0  0  0  0  0  0  0  0  0  # atno 3841 bound_to 3832
    4.6060   -8.5658    4.3874 LP  0  0  0  0  0  0  0  0  0  0  0  0  # atno 4297 bound_to 1298
    4.4196  -10.1177    4.8600 LP  0  0  0  0  0  0  0  0  0  0  0  0  # atno 4298 bound_to 1298
    0.9253   -8.0339    7.0359 LP  0  0  0  0  0  0  0  0  0  0  0  0  # atno 4299 bound_to 2456
    0.6638   -9.2190    8.1285 LP  0  0  0  0  0  0  0  0  0  0  0  0  # atno 4300 bound_to 2456
    2.4186   -7.4810    4.8217 LP  0  0  0  0  0  0  0  0  0  0  0  0  # atno 4301 bound_to 2510
    2.7884   -9.0703    4.7575 LP  0  0  0  0  0  0  0  0  0  0  0  0  # atno 4302 bound_to 2510
   -3.3863  -16.9923   13.0913 LP  0  0  0  0  0  0  0  0  0  0  0  0  # atno 4306 bound_to 3712
   -2.6166  -18.2182   13.8472 LP  0  0  0  0  0  0  0  0  0  0  0  0  # atno 4307 bound_to 3712
    1.4448  -20.3956    9.3460 LP  0  0  0  0  0  0  0  0  0  0  0  0  # atno 4314 bound_to 3832
    2.3576  -19.7178    8.1739 LP  0  0  0  0  0  0  0  0  0  0  0  0  # atno 4315 bound_to 3832
   -3.9081  -22.9794   11.2056 LP  0  0  0  0  0  0  0  0  0  0  0  0  # atno 4318 bound_to 3762
   -5.0774  -22.9814   10.0657 LP  0  0  0  0  0  0  0  0  0  0  0  0  # atno 4319 bound_to 3762
   -3.8716   -5.2751    9.1604 LP  0  0  0  0  0  0  0  0  0  0  0  0  # atno 4320 bound_to 2467
   -5.4624   -5.3182    8.7944 LP  0  0  0  0  0  0  0  0  0  0  0  0  # atno 4321 bound_to 2467

> <Gold.Score>
     Score     S(PLP)   S(hbond)     S(cho)   S(metal)  DE(clash)   DE(tors)     intcor
     31.71     -22.75       3.00       0.00       0.00       0.00       0.02       0.00

> <Gold.PLP.Fitness>
31.7065

> <Gold.PLP.PLP>
-22.7518

> <Gold.PLP.part.hbond>
-2.0000

> <Gold.PLP.part.metal>
0.0000

> <Gold.PLP.part.buried>
-2.4221

> <Gold.PLP.part.nonpolar>
-18.2836

> <Gold.PLP.part.repulsive>
0.0000

> <Gold.PLP.ligand.clash>
0.0000

> <Gold.PLP.ligand.torsion>
0.0234

> <Gold.PLP.Chemscore.Hbond>
3.0000

> <Gold.PLP.Chemscore.CHOScore>
0.0000

> <Gold.PLP.Chemscore.Metal>
0.0000

> <Gold.Chemscore.Hbonds>
donor molecule, donor type, donor heavy atom, donor atom, acceptor molecule, acceptor atom, score
      L1  H     5    20       P1  1227  2.00
      L1  H     7    21       P1  2456  1.00

> <Gold.PLP.Chemscore.Internal.Correction>
0.0015

