#       Name:                EN300-683278_i002
#       Creating user name   fsindt
#       Creation time:       Tue Feb 28 13:54:40 2023


#       File generated by GOLD software.
#

@<TRIPOS>MOLECULE
EN300-683278_i002|amine_1|mol2|4697|dock9
    21    20     1
SMALL
USER_CHARGES


@<TRIPOS>ATOM
      1 C1           1.7006 -12.0315   6.2641 C.3            1 <1>                0.0000
      2 C2           0.5052 -12.9275   6.5943 C.3            1 <1>                0.0000
      3 C3           0.5020 -13.2424   8.0915 C.3            1 <1>                0.0000
      4 C4           1.6737 -14.1697   8.4201 C.3            1 <1>                0.0000
      5 N5           1.4851 -14.7408   9.7604 N.4            1 <1>                1.0000
      6 C6           0.6419 -11.9425   8.8863 C.3            1 <1>                0.0000
      7 O7          -0.3197 -10.9936   8.4205 O.3            1 <1>                0.0000
      8 H8           1.5789 -11.0670   6.7570 H              1 <1>                0.0000
      9 H9           2.6176 -12.5054   6.6144 H              1 <1>                0.0000
     10 H10          1.7572 -11.8838   5.1856 H              1 <1>                0.0000
     11 H11         -0.4186 -12.4131   6.3292 H              1 <1>                0.0000
     12 H12          0.5795 -13.8557   6.0278 H              1 <1>                0.0000
     13 H13         -0.4348 -13.7320   8.3578 H              1 <1>                0.0000
     14 H14          1.7177 -14.9738   7.6855 H              1 <1>                0.0000
     15 H15          2.6042 -13.6027   8.3944 H              1 <1>                0.0000
     16 H16          0.4713 -12.1433   9.9440 H              1 <1>                0.0000
     17 H17          1.6454 -11.5396   8.7501 H              1 <1>                0.0000
     18 H18          1.9260 -15.6473   9.8049 H              1 <1>                0.0000
     19 H19          1.9011 -14.1303  10.4477 H              1 <1>                0.0000
     20 H20          0.4986 -14.8370   9.9492 H              1 <1>                0.0000
     21 H21          0.0586 -10.1379   8.1759 H              1 <1>                0.0000
@<TRIPOS>BOND
    1    1    2 1     
    2    1    8 1     
    3    1    9 1     
    4    1   10 1     
    5    2    3 1     
    6    2   11 1     
    7    2   12 1     
    8    3    4 1     
    9    3    6 1     
   10    3   13 1     
   11    4    5 1     
   12    4   14 1     
   13    4   15 1     
   14    5   18 1     
   15    5   19 1     
   16    5   20 1     
   17    6    7 1     
   18    6   16 1     
   19    6   17 1     
   20    7   21 1     
@<TRIPOS>SUBSTRUCTURE
      1 ****           1
@<TRIPOS>SET
DONOR_HYDROGENS      STATIC     ATOMS    <user>   **** ""
4 18 19 20 21
ATOM$RED        STATIC     ATOMS    COLORGROUP SYSTEM
4 18 19 20 21
@<TRIPOS>COMMENT
> <Gold.Version>
2022.2.0

> <Gold.Id.Protein>
3pbl|protein|mol2

> <Gold.Protein.RotatedTorsions>
[ 1303 1298 1297 1294 ] final   55.85 input  179.99 | X-H torsion
[ 2461 2456 2455 2452 ] final   70.13 input   30.03 | X-H torsion
[ 2515 2510 2509 2506 ] final   -8.95 input  -89.99 | X-H torsion
[ 3721 3712 3711 3710 ] final  -62.08 input -179.91 | X-H torsion
[ 3841 3832 3831 3830 ] final -161.92 input -179.91 | X-H torsion
[ 3767 3762 3761 3758 ] final -125.15 input  -89.99 | X-H torsion
[ 2472 2467 2466 2463 ] final  -79.73 input  -89.97 | X-H torsion

> <Gold.Protein.ActiveResidues>
 VAL82   VAL86   LEU89   PHE106  VAL107  ASP110  VAL111  MET112  CYS114  THR115 
 CYS181  SER182  ILE183  PHE188  VAL189  ILE190  SER192  SER193  SER196  TRP342 
 PHE345  PHE346  HIS349  VAL350  TYR365  THR369  GLY372  TYR373 

> <Gold.Protein.RotatedAtoms>
    3.9517  -10.2718    4.5953 H   0  0  0  0  0  0  0  0  0  0  0  0  # atno 1303 bound_to 1298
    2.0155   -8.1069    7.4894 H   0  0  0  0  0  0  0  0  0  0  0  0  # atno 2461 bound_to 2456
   -3.9138   -5.2951    9.2009 H   0  0  0  0  0  0  0  0  0  0  0  0  # atno 2472 bound_to 2467
    2.6000   -7.7308    4.5198 H   0  0  0  0  0  0  0  0  0  0  0  0  # atno 2515 bound_to 2510
   -2.8154  -17.3037   14.7559 H   0  0  0  0  0  0  0  0  0  0  0  0  # atno 3721 bound_to 3712
   -4.7771  -21.9955   11.5558 H   0  0  0  0  0  0  0  0  0  0  0  0  # atno 3767 bound_to 3762
    2.7740  -19.8581    8.3534 H   0  0  0  0  0  0  0  0  0  0  0  0  # atno 3841 bound_to 3832
    3.5358   -8.9190    3.7807 LP  0  0  0  0  0  0  0  0  0  0  0  0  # atno 4297 bound_to 1298
    4.8747   -8.9302    4.7155 LP  0  0  0  0  0  0  0  0  0  0  0  0  # atno 4298 bound_to 1298
    0.4318   -8.4400    7.2693 LP  0  0  0  0  0  0  0  0  0  0  0  0  # atno 4299 bound_to 2456
    1.2907   -9.2611    8.3894 LP  0  0  0  0  0  0  0  0  0  0  0  0  # atno 4300 bound_to 2456
    2.6663   -9.2419    5.1347 LP  0  0  0  0  0  0  0  0  0  0  0  0  # atno 4301 bound_to 2510
    2.0303   -8.0267    6.0211 LP  0  0  0  0  0  0  0  0  0  0  0  0  # atno 4302 bound_to 2510
   -3.5395  -16.6656   13.4728 LP  0  0  0  0  0  0  0  0  0  0  0  0  # atno 4306 bound_to 3712
   -2.7378  -18.0832   13.3544 LP  0  0  0  0  0  0  0  0  0  0  0  0  # atno 4307 bound_to 3712
    2.6351  -21.1549    9.2888 LP  0  0  0  0  0  0  0  0  0  0  0  0  # atno 4314 bound_to 3832
    1.3898  -20.1113    9.1254 LP  0  0  0  0  0  0  0  0  0  0  0  0  # atno 4315 bound_to 3832
   -3.9830  -23.2258   10.8329 LP  0  0  0  0  0  0  0  0  0  0  0  0  # atno 4318 bound_to 3762
   -5.3673  -22.6535   10.1826 LP  0  0  0  0  0  0  0  0  0  0  0  0  # atno 4319 bound_to 3762
   -5.4798   -5.2999    8.7383 LP  0  0  0  0  0  0  0  0  0  0  0  0  # atno 4320 bound_to 2467
   -4.3232   -4.7985    7.7001 LP  0  0  0  0  0  0  0  0  0  0  0  0  # atno 4321 bound_to 2467

> <Gold.Score>
     Score     S(PLP)   S(hbond)     S(cho)   S(metal)  DE(clash)   DE(tors)     intcor
     33.86     -25.24       3.00       0.00       0.00       0.00       0.19       0.00

> <Gold.PLP.Fitness>
33.8598

> <Gold.PLP.PLP>
-25.2395

> <Gold.PLP.part.hbond>
-2.0000

> <Gold.PLP.part.metal>
0.0000

> <Gold.PLP.part.buried>
-3.5325

> <Gold.PLP.part.nonpolar>
-19.9701

> <Gold.PLP.part.repulsive>
0.0390

> <Gold.PLP.ligand.clash>
0.0000

> <Gold.PLP.ligand.torsion>
0.1906

> <Gold.PLP.Chemscore.Hbond>
3.0000

> <Gold.PLP.Chemscore.CHOScore>
0.0000

> <Gold.PLP.Chemscore.Metal>
0.0000

> <Gold.Chemscore.Hbonds>
donor molecule, donor type, donor heavy atom, donor atom, acceptor molecule, acceptor atom, score
      L1  H     5    18       P1  1227  2.00
      L1  H     7    21       P1  2456  1.00

> <Gold.PLP.Chemscore.Internal.Correction>
0.0015

