#       Name:                EN300-683278_i002
#       Creating user name   fsindt
#       Creation time:       Tue Feb 28 13:54:42 2023


#       File generated by GOLD software.
#

@<TRIPOS>MOLECULE
EN300-683278_i002|amine_1|mol2|4697|dock11
    21    20     1
SMALL
USER_CHARGES


@<TRIPOS>ATOM
      1 C1           0.7978 -15.2984   6.9029 C.3            1 <1>                0.0000
      2 C2           1.3760 -13.9587   7.3634 C.3            1 <1>                0.0000
      3 C3           0.6010 -13.4619   8.5854 C.3            1 <1>                0.0000
      4 C4           1.1189 -14.1686   9.8397 C.3            1 <1>                0.0000
      5 N5           0.5833 -15.5356   9.8878 N.4            1 <1>                1.0000
      6 C6           0.7962 -11.9516   8.7336 C.3            1 <1>                0.0000
      7 O7           0.5075 -11.3097   7.4900 O.3            1 <1>                0.0000
      8 H8           0.9678 -16.0513   7.6725 H              1 <1>                0.0000
      9 H9          -0.2730 -15.1915   6.7293 H              1 <1>                0.0000
     10 H10          1.2866 -15.6067   5.9787 H              1 <1>                0.0000
     11 H11          2.4259 -14.0874   7.6266 H              1 <1>                0.0000
     12 H12          1.2902 -13.2298   6.5576 H              1 <1>                0.0000
     13 H13         -0.4591 -13.6803   8.4568 H              1 <1>                0.0000
     14 H14          2.2079 -14.2058   9.8122 H              1 <1>                0.0000
     15 H15          0.7963 -13.6206  10.7249 H              1 <1>                0.0000
     16 H16          0.1239 -11.5722   9.5031 H              1 <1>                0.0000
     17 H17          1.8278 -11.7448   9.0183 H              1 <1>                0.0000
     18 H18          0.1665 -15.7020  10.7915 H              1 <1>                0.0000
     19 H19         -0.1158 -15.6485   9.1690 H              1 <1>                0.0000
     20 H20          1.3314 -16.1955   9.7359 H              1 <1>                0.0000
     21 H21          0.7329 -10.3695   7.4709 H              1 <1>                0.0000
@<TRIPOS>BOND
    1    1    2 1     
    2    1    8 1     
    3    1    9 1     
    4    1   10 1     
    5    2    3 1     
    6    2   11 1     
    7    2   12 1     
    8    3    4 1     
    9    3    6 1     
   10    3   13 1     
   11    4    5 1     
   12    4   14 1     
   13    4   15 1     
   14    5   18 1     
   15    5   19 1     
   16    5   20 1     
   17    6    7 1     
   18    6   16 1     
   19    6   17 1     
   20    7   21 1     
@<TRIPOS>SUBSTRUCTURE
      1 ****           1
@<TRIPOS>SET
DONOR_HYDROGENS      STATIC     ATOMS    <user>   **** ""
4 18 19 20 21
ATOM$RED        STATIC     ATOMS    COLORGROUP SYSTEM
4 18 19 20 21
@<TRIPOS>COMMENT
> <Gold.Version>
2022.2.0

> <Gold.Id.Protein>
3pbl|protein|mol2

> <Gold.Protein.RotatedTorsions>
[ 1303 1298 1297 1294 ] final    1.87 input  179.99 | X-H torsion
[ 2461 2456 2455 2452 ] final   44.21 input   30.03 | X-H torsion
[ 2515 2510 2509 2506 ] final  105.85 input  -89.99 | X-H torsion
[ 3721 3712 3711 3710 ] final   46.39 input -179.91 | X-H torsion
[ 3841 3832 3831 3830 ] final -124.57 input -179.91 | X-H torsion
[ 3767 3762 3761 3758 ] final  130.79 input  -89.99 | X-H torsion
[ 2472 2467 2466 2463 ] final  -45.30 input  -89.97 | X-H torsion

> <Gold.Protein.ActiveResidues>
 VAL82   VAL86   LEU89   PHE106  VAL107  ASP110  VAL111  MET112  CYS114  THR115 
 CYS181  SER182  ILE183  PHE188  VAL189  ILE190  SER192  SER193  SER196  TRP342 
 PHE345  PHE346  HIS349  VAL350  TYR365  THR369  GLY372  TYR373 

> <Gold.Protein.RotatedAtoms>
    3.3961   -9.8966    4.0636 H   0  0  0  0  0  0  0  0  0  0  0  0  # atno 1303 bound_to 1298
    1.7212   -7.9495    7.2295 H   0  0  0  0  0  0  0  0  0  0  0  0  # atno 2461 bound_to 2456
   -3.6516   -5.1029    8.7474 H   0  0  0  0  0  0  0  0  0  0  0  0  # atno 2472 bound_to 2467
    2.0288   -7.9489    5.9853 H   0  0  0  0  0  0  0  0  0  0  0  0  # atno 2515 bound_to 2510
   -2.5292  -17.9885   13.5621 H   0  0  0  0  0  0  0  0  0  0  0  0  # atno 3721 bound_to 3712
   -3.9169  -23.0981   11.0512 H   0  0  0  0  0  0  0  0  0  0  0  0  # atno 3767 bound_to 3762
    2.2860  -19.6066    8.4304 H   0  0  0  0  0  0  0  0  0  0  0  0  # atno 3841 bound_to 3832
    4.2078   -8.4798    4.0772 LP  0  0  0  0  0  0  0  0  0  0  0  0  # atno 4297 bound_to 1298
    4.7585   -9.7447    4.9508 LP  0  0  0  0  0  0  0  0  0  0  0  0  # atno 4298 bound_to 1298
    0.3309   -8.7476    7.5413 LP  0  0  0  0  0  0  0  0  0  0  0  0  # atno 4299 bound_to 2456
    1.6858   -9.1109    8.3772 LP  0  0  0  0  0  0  0  0  0  0  0  0  # atno 4300 bound_to 2456
    2.6326   -7.7968    4.4760 LP  0  0  0  0  0  0  0  0  0  0  0  0  # atno 4301 bound_to 2510
    2.6355   -9.2536    5.2136 LP  0  0  0  0  0  0  0  0  0  0  0  0  # atno 4302 bound_to 2510
   -3.0973  -17.2231   14.8540 LP  0  0  0  0  0  0  0  0  0  0  0  0  # atno 4306 bound_to 3712
   -3.5104  -16.7352   13.3514 LP  0  0  0  0  0  0  0  0  0  0  0  0  # atno 4307 bound_to 3712
    3.0335  -20.9584    8.8662 LP  0  0  0  0  0  0  0  0  0  0  0  0  # atno 4314 bound_to 3832
    1.5552  -20.5983    9.4591 LP  0  0  0  0  0  0  0  0  0  0  0  0  # atno 4315 bound_to 3832
   -5.2159  -22.8475   10.0938 LP  0  0  0  0  0  0  0  0  0  0  0  0  # atno 4318 bound_to 3762
   -4.9943  -21.9296   11.4261 LP  0  0  0  0  0  0  0  0  0  0  0  0  # atno 4319 bound_to 3762
   -5.1872   -5.4322    9.1946 LP  0  0  0  0  0  0  0  0  0  0  0  0  # atno 4320 bound_to 2467
   -4.8780   -4.8585    7.6972 LP  0  0  0  0  0  0  0  0  0  0  0  0  # atno 4321 bound_to 2467

> <Gold.Score>
     Score     S(PLP)   S(hbond)     S(cho)   S(metal)  DE(clash)   DE(tors)     intcor
     32.78     -24.54       3.00       0.00       0.00       0.00       0.38       0.00

> <Gold.PLP.Fitness>
32.7834

> <Gold.PLP.PLP>
-24.5428

> <Gold.PLP.part.hbond>
-2.0000

> <Gold.PLP.part.metal>
0.0000

> <Gold.PLP.part.buried>
-3.0643

> <Gold.PLP.part.nonpolar>
-19.5980

> <Gold.PLP.part.repulsive>
0.0000

> <Gold.PLP.ligand.clash>
0.0000

> <Gold.PLP.ligand.torsion>
0.3804

> <Gold.PLP.Chemscore.Hbond>
3.0000

> <Gold.PLP.Chemscore.CHOScore>
0.0000

> <Gold.PLP.Chemscore.Metal>
0.0000

> <Gold.Chemscore.Hbonds>
donor molecule, donor type, donor heavy atom, donor atom, acceptor molecule, acceptor atom, score
      L1  H     5    20       P1  1227  2.00
      L1  H     7    21       P1  2456  1.00

> <Gold.PLP.Chemscore.Internal.Correction>
0.0015

