#       Name:                EN300-683278_i002
#       Creating user name   fsindt
#       Creation time:       Tue Feb 28 13:54:39 2023


#       File generated by GOLD software.
#

@<TRIPOS>MOLECULE
EN300-683278_i002|amine_1|mol2|4697|dock8
    21    20     1
SMALL
USER_CHARGES


@<TRIPOS>ATOM
      1 C1           1.1767 -11.9739   6.6771 C.3            1 <1>                0.0000
      2 C2           0.8880 -12.4549   8.1005 C.3            1 <1>                0.0000
      3 C3           1.4052 -13.8848   8.2705 C.3            1 <1>                0.0000
      4 C4           1.0334 -14.3995   9.6625 C.3            1 <1>                0.0000
      5 N5           2.2159 -14.9997  10.2945 N.4            1 <1>                1.0000
      6 C6           0.7726 -14.7856   7.2078 C.3            1 <1>                0.0000
      7 O7           1.5518 -15.9752   7.0666 O.3            1 <1>                0.0000
      8 H8           2.2543 -11.9059   6.5281 H              1 <1>                0.0000
      9 H9           0.7550 -12.6806   5.9623 H              1 <1>                0.0000
     10 H10          0.7264 -10.9927   6.5267 H              1 <1>                0.0000
     11 H11          1.3887 -11.8002   8.8139 H              1 <1>                0.0000
     12 H12         -0.1868 -12.4335   8.2803 H              1 <1>                0.0000
     13 H13          2.4892 -13.8949   8.1569 H              1 <1>                0.0000
     14 H14          0.6766 -13.5702  10.2732 H              1 <1>                0.0000
     15 H15          0.2480 -15.1502   9.5745 H              1 <1>                0.0000
     16 H16         -0.2407 -15.0488   7.5111 H              1 <1>                0.0000
     17 H17          0.7411 -14.2568   6.2553 H              1 <1>                0.0000
     18 H18          3.0269 -14.4328  10.0974 H              1 <1>                0.0000
     19 H19          2.0750 -15.0498  11.2925 H              1 <1>                0.0000
     20 H20          2.3580 -15.9290   9.9279 H              1 <1>                0.0000
     21 H21          2.4255 -15.8294   6.6789 H              1 <1>                0.0000
@<TRIPOS>BOND
    1    1    2 1     
    2    1    8 1     
    3    1    9 1     
    4    1   10 1     
    5    2    3 1     
    6    2   11 1     
    7    2   12 1     
    8    3    4 1     
    9    3    6 1     
   10    3   13 1     
   11    4    5 1     
   12    4   14 1     
   13    4   15 1     
   14    5   18 1     
   15    5   19 1     
   16    5   20 1     
   17    6    7 1     
   18    6   16 1     
   19    6   17 1     
   20    7   21 1     
@<TRIPOS>SUBSTRUCTURE
      1 ****           1
@<TRIPOS>SET
DONOR_HYDROGENS      STATIC     ATOMS    <user>   **** ""
4 18 19 20 21
ATOM$RED        STATIC     ATOMS    COLORGROUP SYSTEM
4 18 19 20 21
@<TRIPOS>COMMENT
> <Gold.Version>
2022.2.0

> <Gold.Id.Protein>
3pbl|protein|mol2

> <Gold.Protein.RotatedTorsions>
[ 1303 1298 1297 1294 ] final -136.46 input  179.99 | X-H torsion
[ 2461 2456 2455 2452 ] final -135.92 input   30.03 | X-H torsion
[ 2515 2510 2509 2506 ] final   50.47 input  -89.99 | X-H torsion
[ 3721 3712 3711 3710 ] final  -78.38 input -179.91 | X-H torsion
[ 3841 3832 3831 3830 ] final  -56.07 input -179.91 | X-H torsion
[ 3767 3762 3761 3758 ] final  -28.21 input  -89.99 | X-H torsion
[ 2472 2467 2466 2463 ] final  145.83 input  -89.97 | X-H torsion

> <Gold.Protein.ActiveResidues>
 VAL82   VAL86   LEU89   PHE106  VAL107  ASP110  VAL111  MET112  CYS114  THR115 
 CYS181  SER182  ILE183  PHE188  VAL189  ILE190  SER192  SER193  SER196  TRP342 
 PHE345  PHE346  HIS349  VAL350  TYR365  THR369  GLY372  TYR373 

> <Gold.Protein.RotatedAtoms>
    4.4503   -8.4976    4.2533 H   0  0  0  0  0  0  0  0  0  0  0  0  # atno 1303 bound_to 1298
    0.7724   -9.2564    8.2038 H   0  0  0  0  0  0  0  0  0  0  0  0  # atno 2461 bound_to 2456
   -5.5100   -5.2238    8.5157 H   0  0  0  0  0  0  0  0  0  0  0  0  # atno 2472 bound_to 2467
    2.2017   -7.4229    5.3067 H   0  0  0  0  0  0  0  0  0  0  0  0  # atno 2515 bound_to 2510
   -2.9383  -17.0918   14.7389 H   0  0  0  0  0  0  0  0  0  0  0  0  # atno 3721 bound_to 3712
   -5.4941  -22.3726   10.3996 H   0  0  0  0  0  0  0  0  0  0  0  0  # atno 3767 bound_to 3762
    1.5957  -19.8483    9.0742 H   0  0  0  0  0  0  0  0  0  0  0  0  # atno 3841 bound_to 3832
    4.5788   -9.9833    4.9185 LP  0  0  0  0  0  0  0  0  0  0  0  0  # atno 4297 bound_to 1298
    3.3330   -9.6407    3.9198 LP  0  0  0  0  0  0  0  0  0  0  0  0  # atno 4298 bound_to 1298
    2.1610   -8.4563    7.8892 LP  0  0  0  0  0  0  0  0  0  0  0  0  # atno 4299 bound_to 2456
    0.8042   -8.0957    7.0553 LP  0  0  0  0  0  0  0  0  0  0  0  0  # atno 4300 bound_to 2456
    2.8344   -8.6483    4.4327 LP  0  0  0  0  0  0  0  0  0  0  0  0  # atno 4301 bound_to 2510
    2.2607   -8.9284    5.9357 LP  0  0  0  0  0  0  0  0  0  0  0  0  # atno 4302 bound_to 2510
   -3.4760  -16.8107   13.2523 LP  0  0  0  0  0  0  0  0  0  0  0  0  # atno 4306 bound_to 3712
   -2.6593  -18.1828   13.5945 LP  0  0  0  0  0  0  0  0  0  0  0  0  # atno 4307 bound_to 3712
    2.9102  -20.1240    8.1954 LP  0  0  0  0  0  0  0  0  0  0  0  0  # atno 4314 bound_to 3832
    2.4759  -21.1536    9.3862 LP  0  0  0  0  0  0  0  0  0  0  0  0  # atno 4315 bound_to 3832
   -4.4590  -22.1758   11.6473 LP  0  0  0  0  0  0  0  0  0  0  0  0  # atno 4318 bound_to 3762
   -4.1745  -23.3265   10.5241 LP  0  0  0  0  0  0  0  0  0  0  0  0  # atno 4319 bound_to 3762
   -4.1058   -4.8082    7.7935 LP  0  0  0  0  0  0  0  0  0  0  0  0  # atno 4320 bound_to 2467
   -4.1013   -5.3615    9.3299 LP  0  0  0  0  0  0  0  0  0  0  0  0  # atno 4321 bound_to 2467

> <Gold.Score>
     Score     S(PLP)   S(hbond)     S(cho)   S(metal)  DE(clash)   DE(tors)     intcor
     34.11     -26.83       3.00       0.00       0.00       0.00       0.86       0.00

> <Gold.PLP.Fitness>
34.1057

> <Gold.PLP.PLP>
-26.8282

> <Gold.PLP.part.hbond>
-2.7691

> <Gold.PLP.part.metal>
0.0000

> <Gold.PLP.part.buried>
-3.5451

> <Gold.PLP.part.nonpolar>
-20.8981

> <Gold.PLP.part.repulsive>
0.0587

> <Gold.PLP.ligand.clash>
0.0000

> <Gold.PLP.ligand.torsion>
0.8620

> <Gold.PLP.Chemscore.Hbond>
3.0000

> <Gold.PLP.Chemscore.CHOScore>
0.0000

> <Gold.PLP.Chemscore.Metal>
0.0000

> <Gold.Chemscore.Hbonds>
donor molecule, donor type, donor heavy atom, donor atom, acceptor molecule, acceptor atom, score
      L1  H     5    20       P1  1227  2.00
      L1  H     7    21       P1  1223  1.00

> <Gold.PLP.Chemscore.Internal.Correction>
0.0015

