#       Name:                EN300-683278_i002
#       Creating user name   fsindt
#       Creation time:       Tue Feb 28 13:54:44 2023


#       File generated by GOLD software.
#

@<TRIPOS>MOLECULE
EN300-683278_i002|amine_1|mol2|4697|dock13
    21    20     1
SMALL
USER_CHARGES


@<TRIPOS>ATOM
      1 C1          -5.0852 -10.8076   9.6033 C.3            1 <1>                0.0000
      2 C2          -3.9859 -10.4561  10.6077 C.3            1 <1>                0.0000
      3 C3          -2.6472 -11.0069  10.1121 C.3            1 <1>                0.0000
      4 C4          -1.9218  -9.9310   9.3015 C.3            1 <1>                0.0000
      5 N5          -0.7055 -10.5022   8.7079 N.4            1 <1>                1.0000
      6 C6          -1.7861 -11.4094  11.3111 C.3            1 <1>                0.0000
      7 O7          -0.6610 -12.1646  10.8574 O.3            1 <1>                0.0000
      8 H8          -4.8963 -10.2910   8.6623 H              1 <1>                0.0000
      9 H9          -5.0903 -11.8841   9.4322 H              1 <1>                0.0000
     10 H10         -6.0522 -10.4982   9.9999 H              1 <1>                0.0000
     11 H11         -3.9183  -9.3728  10.7081 H              1 <1>                0.0000
     12 H12         -4.2240 -10.8965  11.5759 H              1 <1>                0.0000
     13 H13         -2.8239 -11.8790   9.4826 H              1 <1>                0.0000
     14 H14         -2.5773  -9.5692   8.5094 H              1 <1>                0.0000
     15 H15         -1.6519  -9.1027   9.9565 H              1 <1>                0.0000
     16 H16         -1.4387 -10.5137  11.8259 H              1 <1>                0.0000
     17 H17         -2.3783 -12.0158  11.9964 H              1 <1>                0.0000
     18 H18         -0.2078 -11.0336   9.4065 H              1 <1>                0.0000
     19 H19         -0.9578 -11.1078   7.9412 H              1 <1>                0.0000
     20 H20         -0.1154  -9.7576   8.3682 H              1 <1>                0.0000
     21 H21         -0.7781 -13.1223  10.9224 H              1 <1>                0.0000
@<TRIPOS>BOND
    1    1    2 1     
    2    1    8 1     
    3    1    9 1     
    4    1   10 1     
    5    2    3 1     
    6    2   11 1     
    7    2   12 1     
    8    3    4 1     
    9    3    6 1     
   10    3   13 1     
   11    4    5 1     
   12    4   14 1     
   13    4   15 1     
   14    5   18 1     
   15    5   19 1     
   16    5   20 1     
   17    6    7 1     
   18    6   16 1     
   19    6   17 1     
   20    7   21 1     
@<TRIPOS>SUBSTRUCTURE
      1 ****           1
@<TRIPOS>SET
DONOR_HYDROGENS      STATIC     ATOMS    <user>   **** ""
4 18 19 20 21
ATOM$RED        STATIC     ATOMS    COLORGROUP SYSTEM
4 18 19 20 21
@<TRIPOS>COMMENT
> <Gold.Version>
2022.2.0

> <Gold.Id.Protein>
3pbl|protein|mol2

> <Gold.Protein.RotatedTorsions>
[ 1303 1298 1297 1294 ] final -139.38 input  179.99 | X-H torsion
[ 2461 2456 2455 2452 ] final   -0.28 input   30.03 | X-H torsion
[ 2515 2510 2509 2506 ] final  -35.04 input  -89.99 | X-H torsion
[ 3721 3712 3711 3710 ] final   16.48 input -179.91 | X-H torsion
[ 3841 3832 3831 3830 ] final -146.56 input -179.91 | X-H torsion
[ 3767 3762 3761 3758 ] final   21.30 input  -89.99 | X-H torsion
[ 2472 2467 2466 2463 ] final  -16.72 input  -89.97 | X-H torsion

> <Gold.Protein.ActiveResidues>
 VAL82   VAL86   LEU89   PHE106  VAL107  ASP110  VAL111  MET112  CYS114  THR115 
 CYS181  SER182  ILE183  PHE188  VAL189  ILE190  SER192  SER193  SER196  TRP342 
 PHE345  PHE346  HIS349  VAL350  TYR365  THR369  GLY372  TYR373 

> <Gold.Protein.RotatedAtoms>
    4.4864   -8.5088    4.2828 H   0  0  0  0  0  0  0  0  0  0  0  0  # atno 1303 bound_to 1298
    1.0366   -7.9897    7.0306 H   0  0  0  0  0  0  0  0  0  0  0  0  # atno 2461 bound_to 2456
   -3.6784   -4.9479    8.3092 H   0  0  0  0  0  0  0  0  0  0  0  0  # atno 2472 bound_to 2467
    2.7444   -8.1006    4.3667 H   0  0  0  0  0  0  0  0  0  0  0  0  # atno 2515 bound_to 2510
   -2.4699  -18.0234   14.0038 H   0  0  0  0  0  0  0  0  0  0  0  0  # atno 3721 bound_to 3712
   -5.0937  -22.9665   10.0666 H   0  0  0  0  0  0  0  0  0  0  0  0  # atno 3767 bound_to 3762
    2.5839  -19.7262    8.3530 H   0  0  0  0  0  0  0  0  0  0  0  0  # atno 3841 bound_to 3832
    4.5454  -10.0161    4.9080 LP  0  0  0  0  0  0  0  0  0  0  0  0  # atno 4297 bound_to 1298
    3.3302   -9.5968    3.9009 LP  0  0  0  0  0  0  0  0  0  0  0  0  # atno 4298 bound_to 1298
    0.5789   -9.1759    8.0557 LP  0  0  0  0  0  0  0  0  0  0  0  0  # atno 4299 bound_to 2456
    2.1222   -8.6424    8.0616 LP  0  0  0  0  0  0  0  0  0  0  0  0  # atno 4300 bound_to 2456
    2.4978   -9.2244    5.5252 LP  0  0  0  0  0  0  0  0  0  0  0  0  # atno 4301 bound_to 2510
    2.0544   -7.6742    5.7837 LP  0  0  0  0  0  0  0  0  0  0  0  0  # atno 4302 bound_to 2510
   -3.3354  -16.8384   14.6553 LP  0  0  0  0  0  0  0  0  0  0  0  0  # atno 4306 bound_to 3712
   -3.3408  -17.0796   13.0402 LP  0  0  0  0  0  0  0  0  0  0  0  0  # atno 4307 bound_to 3712
    2.8293  -21.1099    9.1283 LP  0  0  0  0  0  0  0  0  0  0  0  0  # atno 4314 bound_to 3832
    1.4153  -20.3086    9.2864 LP  0  0  0  0  0  0  0  0  0  0  0  0  # atno 4315 bound_to 3832
   -5.1264  -21.9148   11.3156 LP  0  0  0  0  0  0  0  0  0  0  0  0  # atno 4318 bound_to 3762
   -3.9074  -22.9939   11.1886 LP  0  0  0  0  0  0  0  0  0  0  0  0  # atno 4319 bound_to 3762
   -4.7734   -5.4627    9.4057 LP  0  0  0  0  0  0  0  0  0  0  0  0  # atno 4320 bound_to 2467
   -5.2649   -4.9829    7.9242 LP  0  0  0  0  0  0  0  0  0  0  0  0  # atno 4321 bound_to 2467

> <Gold.Score>
     Score     S(PLP)   S(hbond)     S(cho)   S(metal)  DE(clash)   DE(tors)     intcor
     34.26     -32.28       1.00       0.00       0.00       0.00       0.51       0.00

> <Gold.PLP.Fitness>
34.2560

> <Gold.PLP.PLP>
-32.2844

> <Gold.PLP.part.hbond>
-1.0000

> <Gold.PLP.part.metal>
0.0000

> <Gold.PLP.part.buried>
-3.5119

> <Gold.PLP.part.nonpolar>
-28.4602

> <Gold.PLP.part.repulsive>
0.0440

> <Gold.PLP.ligand.clash>
0.0000

> <Gold.PLP.ligand.torsion>
0.5145

> <Gold.PLP.Chemscore.Hbond>
1.0000

> <Gold.PLP.Chemscore.CHOScore>
0.0000

> <Gold.PLP.Chemscore.Metal>
0.0000

> <Gold.Chemscore.Hbonds>
donor molecule, donor type, donor heavy atom, donor atom, acceptor molecule, acceptor atom, score
      L1  H     5    20       P1  2456  1.00

> <Gold.PLP.Chemscore.Internal.Correction>
0.0006

