#       Name:                EN300-683278_i002
#       Creating user name   fsindt
#       Creation time:       Tue Feb 28 13:54:34 2023


#       File generated by GOLD software.
#

@<TRIPOS>MOLECULE
EN300-683278_i002|amine_1|mol2|4697|dock1
    21    20     1
SMALL
USER_CHARGES


@<TRIPOS>ATOM
      1 C1           1.4079 -12.4274   6.6040 C.3            1 <1>                0.0000
      2 C2           0.3793 -13.5500   6.7543 C.3            1 <1>                0.0000
      3 C3           0.8628 -14.5468   7.8096 C.3            1 <1>                0.0000
      4 C4           1.1113 -13.8126   9.1287 C.3            1 <1>                0.0000
      5 N5           1.6646 -14.7508  10.1145 N.4            1 <1>                1.0000
      6 C6          -0.2025 -15.6249   8.0188 C.3            1 <1>                0.0000
      7 O7           0.2046 -16.4985   9.0738 O.3            1 <1>                0.0000
      8 H8           1.4607 -11.8565   7.5311 H              1 <1>                0.0000
      9 H9           2.3856 -12.8572   6.3858 H              1 <1>                0.0000
     10 H10          1.1103 -11.7687   5.7881 H              1 <1>                0.0000
     11 H11         -0.5767 -13.1278   7.0643 H              1 <1>                0.0000
     12 H12          0.2579 -14.0617   5.7996 H              1 <1>                0.0000
     13 H13          1.7892 -15.0120   7.4725 H              1 <1>                0.0000
     14 H14          1.8184 -12.9995   8.9643 H              1 <1>                0.0000
     15 H15          0.1710 -13.4066   9.5013 H              1 <1>                0.0000
     16 H16         -1.1494 -15.1536   8.2823 H              1 <1>                0.0000
     17 H17         -0.3251 -16.1977   7.0997 H              1 <1>                0.0000
     18 H18          1.9456 -15.6008   9.6491 H              1 <1>                0.0000
     19 H19          2.4655 -14.3328  10.5640 H              1 <1>                0.0000
     20 H20          0.9626 -14.9631  10.8075 H              1 <1>                0.0000
     21 H21          1.1580 -16.6567   9.1077 H              1 <1>                0.0000
@<TRIPOS>BOND
    1    1    2 1     
    2    1    8 1     
    3    1    9 1     
    4    1   10 1     
    5    2    3 1     
    6    2   11 1     
    7    2   12 1     
    8    3    4 1     
    9    3    6 1     
   10    3   13 1     
   11    4    5 1     
   12    4   14 1     
   13    4   15 1     
   14    5   18 1     
   15    5   19 1     
   16    5   20 1     
   17    6    7 1     
   18    6   16 1     
   19    6   17 1     
   20    7   21 1     
@<TRIPOS>SUBSTRUCTURE
      1 ****           1
@<TRIPOS>SET
DONOR_HYDROGENS      STATIC     ATOMS    <user>   **** ""
4 18 19 20 21
ATOM$RED        STATIC     ATOMS    COLORGROUP SYSTEM
4 18 19 20 21
@<TRIPOS>COMMENT
> <Gold.Version>
2022.2.0

> <Gold.Id.Protein>
3pbl|protein|mol2

> <Gold.Protein.RotatedTorsions>
[ 1303 1298 1297 1294 ] final  -29.54 input  179.99 | X-H torsion
[ 2461 2456 2455 2452 ] final  149.43 input   30.03 | X-H torsion
[ 2515 2510 2509 2506 ] final   94.89 input  -89.99 | X-H torsion
[ 3721 3712 3711 3710 ] final  -23.83 input -179.91 | X-H torsion
[ 3841 3832 3831 3830 ] final   51.22 input -179.91 | X-H torsion
[ 3767 3762 3761 3758 ] final -111.54 input  -89.99 | X-H torsion
[ 2472 2467 2466 2463 ] final  111.90 input  -89.97 | X-H torsion

> <Gold.Protein.ActiveResidues>
 VAL82   VAL86   LEU89   PHE106  VAL107  ASP110  VAL111  MET112  CYS114  THR115 
 CYS181  SER182  ILE183  PHE188  VAL189  ILE190  SER192  SER193  SER196  TRP342 
 PHE345  PHE346  HIS349  VAL350  TYR365  THR369  GLY372  TYR373 

> <Gold.Protein.RotatedAtoms>
    3.3366   -9.4394    3.8449 H   0  0  0  0  0  0  0  0  0  0  0  0  # atno 1303 bound_to 1298
    1.8762   -8.9766    8.3096 H   0  0  0  0  0  0  0  0  0  0  0  0  # atno 2461 bound_to 2456
   -5.3518   -5.0299    8.0258 H   0  0  0  0  0  0  0  0  0  0  0  0  # atno 2472 bound_to 2467
    2.0359   -7.7961    5.8905 H   0  0  0  0  0  0  0  0  0  0  0  0  # atno 2515 bound_to 2510
   -2.5712  -17.7647   14.5320 H   0  0  0  0  0  0  0  0  0  0  0  0  # atno 3721 bound_to 3712
   -4.9633  -21.9354   11.4478 H   0  0  0  0  0  0  0  0  0  0  0  0  # atno 3767 bound_to 3762
    2.3508  -20.9144    9.5612 H   0  0  0  0  0  0  0  0  0  0  0  0  # atno 3841 bound_to 3832
    4.6049   -8.5651    4.3863 LP  0  0  0  0  0  0  0  0  0  0  0  0  # atno 4297 bound_to 1298
    4.4209  -10.1168    4.8606 LP  0  0  0  0  0  0  0  0  0  0  0  0  # atno 4298 bound_to 1298
    1.5058   -7.9178    7.1226 LP  0  0  0  0  0  0  0  0  0  0  0  0  # atno 4299 bound_to 2456
    0.3559   -8.9138    7.7161 LP  0  0  0  0  0  0  0  0  0  0  0  0  # atno 4300 bound_to 2456
    2.6955   -7.9497    4.4049 LP  0  0  0  0  0  0  0  0  0  0  0  0  # atno 4301 bound_to 2510
    2.5655   -9.2535    5.3795 LP  0  0  0  0  0  0  0  0  0  0  0  0  # atno 4302 bound_to 2510
   -3.5425  -16.5643   14.0920 LP  0  0  0  0  0  0  0  0  0  0  0  0  # atno 4306 bound_to 3712
   -3.0167  -17.6524   12.9936 LP  0  0  0  0  0  0  0  0  0  0  0  0  # atno 4307 bound_to 3712
    1.5155  -19.7976    8.7668 LP  0  0  0  0  0  0  0  0  0  0  0  0  # atno 4314 bound_to 3832
    2.9983  -20.2484    8.2523 LP  0  0  0  0  0  0  0  0  0  0  0  0  # atno 4315 bound_to 3832
   -3.9233  -23.1196   11.0202 LP  0  0  0  0  0  0  0  0  0  0  0  0  # atno 4318 bound_to 3762
   -5.2408  -22.8198   10.1033 LP  0  0  0  0  0  0  0  0  0  0  0  0  # atno 4319 bound_to 3762
   -3.7312   -4.9077    8.1839 LP  0  0  0  0  0  0  0  0  0  0  0  0  # atno 4320 bound_to 2467
   -4.6341   -5.4559    9.4293 LP  0  0  0  0  0  0  0  0  0  0  0  0  # atno 4321 bound_to 2467

> <Gold.Score>
     Score     S(PLP)   S(hbond)     S(cho)   S(metal)  DE(clash)   DE(tors)     intcor
     35.35     -26.39       3.00       0.00       0.00       0.00       0.02       0.00

> <Gold.PLP.Fitness>
35.3492

> <Gold.PLP.PLP>
-26.3918

> <Gold.PLP.part.hbond>
-2.0000

> <Gold.PLP.part.metal>
0.0000

> <Gold.PLP.part.buried>
-3.4717

> <Gold.PLP.part.nonpolar>
-21.1785

> <Gold.PLP.part.repulsive>
0.0397

> <Gold.PLP.ligand.clash>
0.0000

> <Gold.PLP.ligand.torsion>
0.0221

> <Gold.PLP.Chemscore.Hbond>
3.0000

> <Gold.PLP.Chemscore.CHOScore>
0.0000

> <Gold.PLP.Chemscore.Metal>
0.0000

> <Gold.Chemscore.Hbonds>
donor molecule, donor type, donor heavy atom, donor atom, acceptor molecule, acceptor atom, score
      L1  H     5    18       P1  1227  2.00
      L1  H     7    21       P1  1227  1.00

> <Gold.PLP.Chemscore.Internal.Correction>
0.0016

