#       Name:                EN300-683278_i002
#       Creating user name   fsindt
#       Creation time:       Tue Feb 28 13:54:33 2023


#       File generated by GOLD software.
#

@<TRIPOS>MOLECULE
EN300-683278_i002
    21    20     1
SMALL
USER_CHARGES


@<TRIPOS>ATOM
      1 C1           0.7891  -2.2809   0.3057 C.3            1 <1>                0.0000
      2 C2          -0.3431  -1.4462  -0.2962 C.3            1 <1>                0.0000
      3 C3          -0.2443  -0.0079   0.2161 C.3            1 <1>                0.0000
      4 C4           1.0408   0.6339  -0.3106 C.3            1 <1>                0.0000
      5 N5           1.1977   1.9704   0.2787 N.4            1 <1>                1.0000
      6 C6          -1.4524   0.7924  -0.2748 C.3            1 <1>                0.0000
      7 O7          -2.6439   0.2635   0.3106 O.3            1 <1>                0.0000
      8 H8           1.7469  -1.9133  -0.0625 H              1 <1>                0.0000
      9 H9           0.7622  -2.1997   1.3924 H              1 <1>                0.0000
     10 H10          0.6648  -3.3244   0.0162 H              1 <1>                0.0000
     11 H11         -0.2600  -1.4513  -1.3831 H              1 <1>                0.0000
     12 H12         -1.3031  -1.8712  -0.0033 H              1 <1>                0.0000
     13 H13         -0.2289  -0.0107   1.3060 H              1 <1>                0.0000
     14 H14          1.8948   0.0140  -0.0377 H              1 <1>                0.0000
     15 H15          0.9859   0.7195  -1.3958 H              1 <1>                0.0000
     16 H16         -1.3381   1.8370   0.0147 H              1 <1>                0.0000
     17 H17         -1.5185   0.7213  -1.3604 H              1 <1>                0.0000
     18 H18          0.4529   2.5698  -0.0439 H              1 <1>                0.0000
     19 H19          1.1616   1.9008   1.2847 H              1 <1>                0.0000
     20 H20          2.0864   2.3586   0.0001 H              1 <1>                0.0000
     21 H21         -3.4513   0.7236   0.0432 H              1 <1>                0.0000
@<TRIPOS>BOND
    1    1    2 1     
    2    1    8 1     
    3    1    9 1     
    4    1   10 1     
    5    2    3 1     
    6    2   11 1     
    7    2   12 1     
    8    3    4 1     
    9    3    6 1     
   10    3   13 1     
   11    4    5 1     
   12    4   14 1     
   13    4   15 1     
   14    5   18 1     
   15    5   19 1     
   16    5   20 1     
   17    6    7 1     
   18    6   16 1     
   19    6   17 1     
   20    7   21 1     
@<TRIPOS>SUBSTRUCTURE
      1 ****           1
@<TRIPOS>SET
DONOR_HYDROGENS      STATIC     ATOMS    <user>   **** ""
4 18 19 20 21
ATOM$RED        STATIC     ATOMS    COLORGROUP SYSTEM
4 18 19 20 21
