#       Name:                EN300-683278_i002
#       Creating user name   fsindt
#       Creation time:       Tue Feb 28 13:54:48 2023


#       File generated by GOLD software.
#

@<TRIPOS>MOLECULE
EN300-683278_i002|amine_1|mol2|4697|dock18
    21    20     1
SMALL
USER_CHARGES


@<TRIPOS>ATOM
      1 C1           1.1272 -12.0658   6.6411 C.3            1 <1>                0.0000
      2 C2           1.1004 -12.4997   8.1081 C.3            1 <1>                0.0000
      3 C3           0.4383 -13.8744   8.2213 C.3            1 <1>                0.0000
      4 C4           1.1074 -14.8446   7.2456 C.3            1 <1>                0.0000
      5 N5           0.7326 -16.2224   7.5910 N.4            1 <1>                1.0000
      6 C6           0.5941 -14.3994   9.6500 C.3            1 <1>                0.0000
      7 O7           1.9686 -14.7006   9.8995 O.3            1 <1>                0.0000
      8 H8           1.7711 -12.7388   6.0749 H              1 <1>                0.0000
      9 H9           0.1169 -12.1008   6.2334 H              1 <1>                0.0000
     10 H10          1.5127 -11.0487   6.5700 H              1 <1>                0.0000
     11 H11          2.1201 -12.5551   8.4893 H              1 <1>                0.0000
     12 H12          0.5334 -11.7742   8.6913 H              1 <1>                0.0000
     13 H13         -0.6210 -13.7885   7.9793 H              1 <1>                0.0000
     14 H14          0.7794 -14.6226   6.2302 H              1 <1>                0.0000
     15 H15          2.1900 -14.7356   7.3099 H              1 <1>                0.0000
     16 H16          0.2547 -13.6405  10.3549 H              1 <1>                0.0000
     17 H17         -0.0037 -15.3025   9.7724 H              1 <1>                0.0000
     18 H18          1.4809 -16.6540   8.1123 H              1 <1>                0.0000
     19 H19         -0.1060 -16.2123   8.1521 H              1 <1>                0.0000
     20 H20          0.5653 -16.7474   6.7457 H              1 <1>                0.0000
     21 H21          2.1720 -15.6459   9.8907 H              1 <1>                0.0000
@<TRIPOS>BOND
    1    1    2 1     
    2    1    8 1     
    3    1    9 1     
    4    1   10 1     
    5    2    3 1     
    6    2   11 1     
    7    2   12 1     
    8    3    4 1     
    9    3    6 1     
   10    3   13 1     
   11    4    5 1     
   12    4   14 1     
   13    4   15 1     
   14    5   18 1     
   15    5   19 1     
   16    5   20 1     
   17    6    7 1     
   18    6   16 1     
   19    6   17 1     
   20    7   21 1     
@<TRIPOS>SUBSTRUCTURE
      1 ****           1
@<TRIPOS>SET
DONOR_HYDROGENS      STATIC     ATOMS    <user>   **** ""
4 18 19 20 21
ATOM$RED        STATIC     ATOMS    COLORGROUP SYSTEM
4 18 19 20 21
@<TRIPOS>COMMENT
> <Gold.Version>
2022.2.0

> <Gold.Id.Protein>
3pbl|protein|mol2

> <Gold.Protein.RotatedTorsions>
[ 1303 1298 1297 1294 ] final  154.37 input  179.99 | X-H torsion
[ 2461 2456 2455 2452 ] final  123.28 input   30.03 | X-H torsion
[ 2515 2510 2509 2506 ] final  -78.94 input  -89.99 | X-H torsion
[ 3721 3712 3711 3710 ] final    9.77 input -179.91 | X-H torsion
[ 3841 3832 3831 3830 ] final -179.36 input -179.91 | X-H torsion
[ 3767 3762 3761 3758 ] final    5.54 input  -89.99 | X-H torsion
[ 2472 2467 2466 2463 ] final  -57.90 input  -89.97 | X-H torsion

> <Gold.Protein.ActiveResidues>
 VAL82   VAL86   LEU89   PHE106  VAL107  ASP110  VAL111  MET112  CYS114  THR115 
 CYS181  SER182  ILE183  PHE188  VAL189  ILE190  SER192  SER193  SER196  TRP342 
 PHE345  PHE346  HIS349  VAL350  TYR365  THR369  GLY372  TYR373 

> <Gold.Protein.RotatedAtoms>
    4.9099   -9.2469    4.8635 H   0  0  0  0  0  0  0  0  0  0  0  0  # atno 1303 bound_to 1298
    2.1044   -8.6848    8.0978 H   0  0  0  0  0  0  0  0  0  0  0  0  # atno 2461 bound_to 2456
   -3.7127   -5.1758    8.9311 H   0  0  0  0  0  0  0  0  0  0  0  0  # atno 2472 bound_to 2467
    2.8346   -8.7860    4.5032 H   0  0  0  0  0  0  0  0  0  0  0  0  # atno 2515 bound_to 2510
   -2.4725  -18.0034   14.1031 H   0  0  0  0  0  0  0  0  0  0  0  0  # atno 3721 bound_to 3712
   -5.2705  -22.7843   10.1163 H   0  0  0  0  0  0  0  0  0  0  0  0  # atno 3767 bound_to 3762
    2.9522  -20.0427    8.4084 H   0  0  0  0  0  0  0  0  0  0  0  0  # atno 3841 bound_to 3832
    3.6806  -10.2074    4.3813 LP  0  0  0  0  0  0  0  0  0  0  0  0  # atno 4297 bound_to 1298
    3.7714   -8.6671    3.8467 LP  0  0  0  0  0  0  0  0  0  0  0  0  # atno 4298 bound_to 1298
    1.0924   -7.9720    7.0323 LP  0  0  0  0  0  0  0  0  0  0  0  0  # atno 4299 bound_to 2456
    0.5413   -9.1514    8.0182 LP  0  0  0  0  0  0  0  0  0  0  0  0  # atno 4300 bound_to 2456
    2.2032   -8.8046    6.0088 LP  0  0  0  0  0  0  0  0  0  0  0  0  # atno 4301 bound_to 2510
    2.2587   -7.4084    5.1637 LP  0  0  0  0  0  0  0  0  0  0  0  0  # atno 4302 bound_to 2510
   -3.3817  -16.7691   14.5803 LP  0  0  0  0  0  0  0  0  0  0  0  0  # atno 4306 bound_to 3712
   -3.2914  -17.1720   13.0004 LP  0  0  0  0  0  0  0  0  0  0  0  0  # atno 4307 bound_to 3712
    2.3830  -21.1403    9.4318 LP  0  0  0  0  0  0  0  0  0  0  0  0  # atno 4314 bound_to 3832
    1.4361  -19.9126    8.9189 LP  0  0  0  0  0  0  0  0  0  0  0  0  # atno 4315 bound_to 3832
   -4.9246  -21.9458   11.4742 LP  0  0  0  0  0  0  0  0  0  0  0  0  # atno 4318 bound_to 3762
   -3.9325  -23.1451   10.9803 LP  0  0  0  0  0  0  0  0  0  0  0  0  # atno 4319 bound_to 3762
   -5.3268   -5.3942    9.0467 LP  0  0  0  0  0  0  0  0  0  0  0  0  # atno 4320 bound_to 2467
   -4.6773   -4.8235    7.6614 LP  0  0  0  0  0  0  0  0  0  0  0  0  # atno 4321 bound_to 2467

> <Gold.Score>
     Score     S(PLP)   S(hbond)     S(cho)   S(metal)  DE(clash)   DE(tors)     intcor
     34.28     -25.64       3.00       0.00       0.00       0.00       0.18       0.00

> <Gold.PLP.Fitness>
34.2808

> <Gold.PLP.PLP>
-25.6392

> <Gold.PLP.part.hbond>
-2.0000

> <Gold.PLP.part.metal>
0.0000

> <Gold.PLP.part.buried>
-3.6151

> <Gold.PLP.part.nonpolar>
-20.1687

> <Gold.PLP.part.repulsive>
0.0000

> <Gold.PLP.ligand.clash>
0.0000

> <Gold.PLP.ligand.torsion>
0.1795

> <Gold.PLP.Chemscore.Hbond>
3.0000

> <Gold.PLP.Chemscore.CHOScore>
0.0000

> <Gold.PLP.Chemscore.Metal>
0.0000

> <Gold.Chemscore.Hbonds>
donor molecule, donor type, donor heavy atom, donor atom, acceptor molecule, acceptor atom, score
      L1  H     5    18       P1  1227  2.00
      L1  H     7    21       P1  1227  1.00

> <Gold.PLP.Chemscore.Internal.Correction>
0.0005

