#       Name:                EN300-683278_i002
#       Creating user name   fsindt
#       Creation time:       Tue Feb 28 13:54:49 2023


#       File generated by GOLD software.
#

@<TRIPOS>MOLECULE
EN300-683278_i002|amine_1|mol2|4697|dock19
    21    20     1
SMALL
USER_CHARGES


@<TRIPOS>ATOM
      1 C1           0.2907 -11.9971   7.8998 C.3            1 <1>                0.0000
      2 C2          -0.1576 -13.4148   7.5390 C.3            1 <1>                0.0000
      3 C3           1.0579 -14.3438   7.5164 C.3            1 <1>                0.0000
      4 C4           1.7389 -14.3261   8.8863 C.3            1 <1>                0.0000
      5 N5           0.9370 -15.1020   9.8418 N.4            1 <1>                1.0000
      6 C6           0.6049 -15.7684   7.1905 C.3            1 <1>                0.0000
      7 O7           1.6977 -16.4995   6.6307 O.3            1 <1>                0.0000
      8 H8           0.6758 -11.9862   8.9194 H              1 <1>                0.0000
      9 H9           1.0739 -11.6778   7.2122 H              1 <1>                0.0000
     10 H10         -0.5581 -11.3174   7.8246 H              1 <1>                0.0000
     11 H11         -0.8724 -13.7698   8.2815 H              1 <1>                0.0000
     12 H12         -0.6281 -13.4080   6.5559 H              1 <1>                0.0000
     13 H13          1.7612 -14.0034   6.7564 H              1 <1>                0.0000
     14 H14          2.7325 -14.7666   8.8039 H              1 <1>                0.0000
     15 H15          1.8254 -13.2973   9.2358 H              1 <1>                0.0000
     16 H16          0.2682 -16.2603   8.1030 H              1 <1>                0.0000
     17 H17         -0.2146 -15.7338   6.4727 H              1 <1>                0.0000
     18 H18          1.2770 -16.0515   9.8732 H              1 <1>                0.0000
     19 H19          1.0120 -14.6874  10.7587 H              1 <1>                0.0000
     20 H20         -0.0289 -15.1001   9.5498 H              1 <1>                0.0000
     21 H21          2.5452 -16.0360   6.6758 H              1 <1>                0.0000
@<TRIPOS>BOND
    1    1    2 1     
    2    1    8 1     
    3    1    9 1     
    4    1   10 1     
    5    2    3 1     
    6    2   11 1     
    7    2   12 1     
    8    3    4 1     
    9    3    6 1     
   10    3   13 1     
   11    4    5 1     
   12    4   14 1     
   13    4   15 1     
   14    5   18 1     
   15    5   19 1     
   16    5   20 1     
   17    6    7 1     
   18    6   16 1     
   19    6   17 1     
   20    7   21 1     
@<TRIPOS>SUBSTRUCTURE
      1 ****           1
@<TRIPOS>SET
DONOR_HYDROGENS      STATIC     ATOMS    <user>   **** ""
4 18 19 20 21
ATOM$RED        STATIC     ATOMS    COLORGROUP SYSTEM
4 18 19 20 21
@<TRIPOS>COMMENT
> <Gold.Version>
2022.2.0

> <Gold.Id.Protein>
3pbl|protein|mol2

> <Gold.Protein.RotatedTorsions>
[ 1303 1298 1297 1294 ] final -129.30 input  179.99 | X-H torsion
[ 2461 2456 2455 2452 ] final -138.60 input   30.03 | X-H torsion
[ 2515 2510 2509 2506 ] final  138.56 input  -89.99 | X-H torsion
[ 3721 3712 3711 3710 ] final  145.75 input -179.91 | X-H torsion
[ 3841 3832 3831 3830 ] final  -68.65 input -179.91 | X-H torsion
[ 3767 3762 3761 3758 ] final  147.48 input  -89.99 | X-H torsion
[ 2472 2467 2466 2463 ] final  -51.95 input  -89.97 | X-H torsion

> <Gold.Protein.ActiveResidues>
 VAL82   VAL86   LEU89   PHE106  VAL107  ASP110  VAL111  MET112  CYS114  THR115 
 CYS181  SER182  ILE183  PHE188  VAL189  ILE190  SER192  SER193  SER196  TRP342 
 PHE345  PHE346  HIS349  VAL350  TYR365  THR369  GLY372  TYR373 

> <Gold.Protein.RotatedAtoms>
    4.3581   -8.4798    4.1823 H   0  0  0  0  0  0  0  0  0  0  0  0  # atno 1303 bound_to 1298
    0.8095   -9.2654    8.2257 H   0  0  0  0  0  0  0  0  0  0  0  0  # atno 2461 bound_to 2456
   -3.6785   -5.1414    8.8461 H   0  0  0  0  0  0  0  0  0  0  0  0  # atno 2472 bound_to 2467
    2.0937   -8.4642    6.0948 H   0  0  0  0  0  0  0  0  0  0  0  0  # atno 2515 bound_to 2510
   -3.1816  -16.9119   13.1621 H   0  0  0  0  0  0  0  0  0  0  0  0  # atno 3721 bound_to 3712
   -3.9135  -22.9260   11.2639 H   0  0  0  0  0  0  0  0  0  0  0  0  # atno 3767 bound_to 3762
    1.6639  -19.7394    8.9345 H   0  0  0  0  0  0  0  0  0  0  0  0  # atno 3841 bound_to 3832
    4.6556   -9.8963    4.9381 LP  0  0  0  0  0  0  0  0  0  0  0  0  # atno 4297 bound_to 1298
    3.3484   -9.7456    3.9712 LP  0  0  0  0  0  0  0  0  0  0  0  0  # atno 4298 bound_to 1298
    2.1609   -8.4252    7.8581 LP  0  0  0  0  0  0  0  0  0  0  0  0  # atno 4299 bound_to 2456
    0.7673   -8.1177    7.0645 LP  0  0  0  0  0  0  0  0  0  0  0  0  # atno 4300 bound_to 2456
    2.4114   -7.4747    4.8356 LP  0  0  0  0  0  0  0  0  0  0  0  0  # atno 4301 bound_to 2510
    2.7917   -9.0602    4.7445 LP  0  0  0  0  0  0  0  0  0  0  0  0  # atno 4302 bound_to 2510
   -2.6119  -18.2179   13.9022 LP  0  0  0  0  0  0  0  0  0  0  0  0  # atno 4306 bound_to 3712
   -3.2426  -16.9833   14.7650 LP  0  0  0  0  0  0  0  0  0  0  0  0  # atno 4307 bound_to 3712
    3.0200  -20.2855    8.2720 LP  0  0  0  0  0  0  0  0  0  0  0  0  # atno 4314 bound_to 3832
    2.2873  -21.1178    9.4709 LP  0  0  0  0  0  0  0  0  0  0  0  0  # atno 4315 bound_to 3832
   -5.0160  -23.0319   10.0639 LP  0  0  0  0  0  0  0  0  0  0  0  0  # atno 4318 bound_to 3762
   -5.1976  -21.9173   11.2434 LP  0  0  0  0  0  0  0  0  0  0  0  0  # atno 4319 bound_to 3762
   -5.2650   -5.4139    9.1200 LP  0  0  0  0  0  0  0  0  0  0  0  0  # atno 4320 bound_to 2467
   -4.7733   -4.8383    7.6731 LP  0  0  0  0  0  0  0  0  0  0  0  0  # atno 4321 bound_to 2467

> <Gold.Score>
     Score     S(PLP)   S(hbond)     S(cho)   S(metal)  DE(clash)   DE(tors)     intcor
     32.92     -24.65       3.00       0.00       0.00       0.00       0.36       0.00

> <Gold.PLP.Fitness>
32.9221

> <Gold.PLP.PLP>
-24.6502

> <Gold.PLP.part.hbond>
-3.4230

> <Gold.PLP.part.metal>
0.0000

> <Gold.PLP.part.buried>
-1.6809

> <Gold.PLP.part.nonpolar>
-20.0442

> <Gold.PLP.part.repulsive>
0.0066

> <Gold.PLP.ligand.clash>
0.0000

> <Gold.PLP.ligand.torsion>
0.3643

> <Gold.PLP.Chemscore.Hbond>
3.0000

> <Gold.PLP.Chemscore.CHOScore>
0.0000

> <Gold.PLP.Chemscore.Metal>
0.0000

> <Gold.Chemscore.Hbonds>
donor molecule, donor type, donor heavy atom, donor atom, acceptor molecule, acceptor atom, score
      L1  H     5    18       P1  1227  2.00
      L1  H     7    21       P1  1223  1.00

> <Gold.PLP.Chemscore.Internal.Correction>
0.0005

