#       Name:                EN300-683278_i002
#       Creating user name   fsindt
#       Creation time:       Tue Feb 28 13:54:47 2023


#       File generated by GOLD software.
#

@<TRIPOS>MOLECULE
EN300-683278_i002|amine_1|mol2|4697|dock16
    21    20     1
SMALL
USER_CHARGES


@<TRIPOS>ATOM
      1 C1           0.4372 -11.4111   9.5510 C.3            1 <1>                0.0000
      2 C2           0.0644 -12.3672   8.4162 C.3            1 <1>                0.0000
      3 C3           1.0101 -13.5698   8.4310 C.3            1 <1>                0.0000
      4 C4           0.7626 -14.3976   9.6937 C.3            1 <1>                0.0000
      5 N5           2.0286 -14.9892  10.1472 N.4            1 <1>                1.0000
      6 C6           0.7541 -14.4352   7.1955 C.3            1 <1>                0.0000
      7 O7           1.5765 -15.6024   7.2528 O.3            1 <1>                0.0000
      8 H8           0.2614 -11.8990  10.5097 H              1 <1>                0.0000
      9 H9           1.4902 -11.1418   9.4680 H              1 <1>                0.0000
     10 H10         -0.1743 -10.5112   9.4837 H              1 <1>                0.0000
     11 H11         -0.9615 -12.7100   8.5521 H              1 <1>                0.0000
     12 H12          0.1506 -11.8488   7.4612 H              1 <1>                0.0000
     13 H13          2.0425 -13.2202   8.4222 H              1 <1>                0.0000
     14 H14          0.3610 -13.7546  10.4768 H              1 <1>                0.0000
     15 H15          0.0489 -15.1914   9.4737 H              1 <1>                0.0000
     16 H16         -0.2947 -14.7306   7.1699 H              1 <1>                0.0000
     17 H17          0.9934 -13.8660   6.2973 H              1 <1>                0.0000
     18 H18          2.7925 -14.5945   9.6192 H              1 <1>                0.0000
     19 H19          2.1600 -14.7915  11.1279 H              1 <1>                0.0000
     20 H20          2.0027 -15.9879  10.0059 H              1 <1>                0.0000
     21 H21          2.5045 -15.4410   7.0340 H              1 <1>                0.0000
@<TRIPOS>BOND
    1    1    2 1     
    2    1    8 1     
    3    1    9 1     
    4    1   10 1     
    5    2    3 1     
    6    2   11 1     
    7    2   12 1     
    8    3    4 1     
    9    3    6 1     
   10    3   13 1     
   11    4    5 1     
   12    4   14 1     
   13    4   15 1     
   14    5   18 1     
   15    5   19 1     
   16    5   20 1     
   17    6    7 1     
   18    6   16 1     
   19    6   17 1     
   20    7   21 1     
@<TRIPOS>SUBSTRUCTURE
      1 ****           1
@<TRIPOS>SET
DONOR_HYDROGENS      STATIC     ATOMS    <user>   **** ""
4 18 19 20 21
ATOM$RED        STATIC     ATOMS    COLORGROUP SYSTEM
4 18 19 20 21
@<TRIPOS>COMMENT
> <Gold.Version>
2022.2.0

> <Gold.Id.Protein>
3pbl|protein|mol2

> <Gold.Protein.RotatedTorsions>
[ 1303 1298 1297 1294 ] final -110.66 input  179.99 | X-H torsion
[ 2461 2456 2455 2452 ] final   64.17 input   30.03 | X-H torsion
[ 2515 2510 2509 2506 ] final  -59.13 input  -89.99 | X-H torsion
[ 3721 3712 3711 3710 ] final  -53.68 input -179.91 | X-H torsion
[ 3841 3832 3831 3830 ] final   99.87 input -179.91 | X-H torsion
[ 3767 3762 3761 3758 ] final   51.04 input  -89.99 | X-H torsion
[ 2472 2467 2466 2463 ] final  142.95 input  -89.97 | X-H torsion

> <Gold.Protein.ActiveResidues>
 VAL82   VAL86   LEU89   PHE106  VAL107  ASP110  VAL111  MET112  CYS114  THR115 
 CYS181  SER182  ILE183  PHE188  VAL189  ILE190  SER192  SER193  SER196  TRP342 
 PHE345  PHE346  HIS349  VAL350  TYR365  THR369  GLY372  TYR373 

> <Gold.Protein.RotatedAtoms>
    4.1044   -8.4989    4.0134 H   0  0  0  0  0  0  0  0  0  0  0  0  # atno 1303 bound_to 1298
    1.9599   -8.0604    7.4235 H   0  0  0  0  0  0  0  0  0  0  0  0  # atno 2461 bound_to 2456
   -5.5090   -5.2077    8.4713 H   0  0  0  0  0  0  0  0  0  0  0  0  # atno 2472 bound_to 2467
    2.8216   -8.4861    4.3806 H   0  0  0  0  0  0  0  0  0  0  0  0  # atno 2515 bound_to 2510
   -2.7542  -17.4133   14.7374 H   0  0  0  0  0  0  0  0  0  0  0  0  # atno 3721 bound_to 3712
   -4.6939  -23.2305   10.1343 H   0  0  0  0  0  0  0  0  0  0  0  0  # atno 3767 bound_to 3762
    2.9397  -20.8746    9.1609 H   0  0  0  0  0  0  0  0  0  0  0  0  # atno 3841 bound_to 3832
    4.8140   -9.6353    4.9469 LP  0  0  0  0  0  0  0  0  0  0  0  0  # atno 4297 bound_to 1298
    3.4438   -9.9875    4.1314 LP  0  0  0  0  0  0  0  0  0  0  0  0  # atno 4298 bound_to 1298
    0.3928   -8.5100    7.3256 LP  0  0  0  0  0  0  0  0  0  0  0  0  # atno 4299 bound_to 2456
    1.3853   -9.2376    8.3989 LP  0  0  0  0  0  0  0  0  0  0  0  0  # atno 4300 bound_to 2456
    2.3294   -9.0462    5.8331 LP  0  0  0  0  0  0  0  0  0  0  0  0  # atno 4301 bound_to 2510
    2.1455   -7.4667    5.4619 LP  0  0  0  0  0  0  0  0  0  0  0  0  # atno 4302 bound_to 2510
   -3.5583  -16.6129   13.6014 LP  0  0  0  0  0  0  0  0  0  0  0  0  # atno 4306 bound_to 3712
   -2.7896  -18.0094   13.2471 LP  0  0  0  0  0  0  0  0  0  0  0  0  # atno 4307 bound_to 3712
    1.4295  -20.3545    9.3186 LP  0  0  0  0  0  0  0  0  0  0  0  0  # atno 4314 bound_to 3832
    2.4041  -19.7375    8.1627 LP  0  0  0  0  0  0  0  0  0  0  0  0  # atno 4315 bound_to 3832
   -5.4113  -22.0006   10.9341 LP  0  0  0  0  0  0  0  0  0  0  0  0  # atno 4318 bound_to 3762
   -4.0222  -22.6441   11.5024 LP  0  0  0  0  0  0  0  0  0  0  0  0  # atno 4319 bound_to 3762
   -4.0655   -4.8127    7.8180 LP  0  0  0  0  0  0  0  0  0  0  0  0  # atno 4320 bound_to 2467
   -4.1426   -5.3732    9.3498 LP  0  0  0  0  0  0  0  0  0  0  0  0  # atno 4321 bound_to 2467

> <Gold.Score>
     Score     S(PLP)   S(hbond)     S(cho)   S(metal)  DE(clash)   DE(tors)     intcor
     31.72     -23.67       3.00       0.00       0.00       0.00       0.47       0.00

> <Gold.PLP.Fitness>
31.7211

> <Gold.PLP.PLP>
-23.6689

> <Gold.PLP.part.hbond>
-2.5780

> <Gold.PLP.part.metal>
0.0000

> <Gold.PLP.part.buried>
-3.0650

> <Gold.PLP.part.nonpolar>
-18.2116

> <Gold.PLP.part.repulsive>
0.0545

> <Gold.PLP.ligand.clash>
0.0000

> <Gold.PLP.ligand.torsion>
0.4742

> <Gold.PLP.Chemscore.Hbond>
3.0000

> <Gold.PLP.Chemscore.CHOScore>
0.0000

> <Gold.PLP.Chemscore.Metal>
0.0000

> <Gold.Chemscore.Hbonds>
donor molecule, donor type, donor heavy atom, donor atom, acceptor molecule, acceptor atom, score
      L1  H     5    20       P1  1227  2.00
      L1  H     7    21       P1  1223  1.00

> <Gold.PLP.Chemscore.Internal.Correction>
0.0006

