#       Name:                EN300-683278_i002
#       Creating user name   fsindt
#       Creation time:       Tue Feb 28 13:54:48 2023


#       File generated by GOLD software.
#

@<TRIPOS>MOLECULE
EN300-683278_i002|amine_1|mol2|4697|dock17
    21    20     1
SMALL
USER_CHARGES


@<TRIPOS>ATOM
      1 C1          -0.1083 -14.0979   6.3539 C.3            1 <1>                0.0000
      2 C2           0.5059 -13.5547   7.6456 C.3            1 <1>                0.0000
      3 C3           0.9597 -14.7219   8.5247 C.3            1 <1>                0.0000
      4 C4           1.2041 -14.2219   9.9498 C.3            1 <1>                0.0000
      5 N5           1.9219 -15.2514  10.7135 N.4            1 <1>                1.0000
      6 C6          -0.1259 -15.7999   8.5415 C.3            1 <1>                0.0000
      7 O7           0.1940 -16.7827   9.5283 O.3            1 <1>                0.0000
      8 H8           0.6596 -14.6091   5.7733 H              1 <1>                0.0000
      9 H9          -0.9064 -14.7992   6.5979 H              1 <1>                0.0000
     10 H10         -0.5159 -13.2725   5.7701 H              1 <1>                0.0000
     11 H11          1.3636 -12.9268   7.4040 H              1 <1>                0.0000
     12 H12         -0.2374 -12.9641   8.1810 H              1 <1>                0.0000
     13 H13          1.8823 -15.1415   8.1235 H              1 <1>                0.0000
     14 H14          1.8015 -13.3108   9.9178 H              1 <1>                0.0000
     15 H15          0.2485 -14.0131  10.4306 H              1 <1>                0.0000
     16 H16         -1.0867 -15.3441   8.7807 H              1 <1>                0.0000
     17 H17         -0.1825 -16.2738   7.5616 H              1 <1>                0.0000
     18 H18          2.2840 -15.9485  10.0803 H              1 <1>                0.0000
     19 H19          2.6855 -14.8254  11.2172 H              1 <1>                0.0000
     20 H20          1.2892 -15.6873  11.3675 H              1 <1>                0.0000
     21 H21          1.1278 -17.0331   9.5458 H              1 <1>                0.0000
@<TRIPOS>BOND
    1    1    2 1     
    2    1    8 1     
    3    1    9 1     
    4    1   10 1     
    5    2    3 1     
    6    2   11 1     
    7    2   12 1     
    8    3    4 1     
    9    3    6 1     
   10    3   13 1     
   11    4    5 1     
   12    4   14 1     
   13    4   15 1     
   14    5   18 1     
   15    5   19 1     
   16    5   20 1     
   17    6    7 1     
   18    6   16 1     
   19    6   17 1     
   20    7   21 1     
@<TRIPOS>SUBSTRUCTURE
      1 ****           1
@<TRIPOS>SET
DONOR_HYDROGENS      STATIC     ATOMS    <user>   **** ""
4 18 19 20 21
ATOM$RED        STATIC     ATOMS    COLORGROUP SYSTEM
4 18 19 20 21
@<TRIPOS>COMMENT
> <Gold.Version>
2022.2.0

> <Gold.Id.Protein>
3pbl|protein|mol2

> <Gold.Protein.RotatedTorsions>
[ 1303 1298 1297 1294 ] final -174.24 input  179.99 | X-H torsion
[ 2461 2456 2455 2452 ] final -137.06 input   30.03 | X-H torsion
[ 2515 2510 2509 2506 ] final -129.15 input  -89.99 | X-H torsion
[ 3721 3712 3711 3710 ] final  108.42 input -179.91 | X-H torsion
[ 3841 3832 3831 3830 ] final  167.11 input -179.91 | X-H torsion
[ 3767 3762 3761 3758 ] final  154.13 input  -89.99 | X-H torsion
[ 2472 2467 2466 2463 ] final  -91.44 input  -89.97 | X-H torsion

> <Gold.Protein.ActiveResidues>
 VAL82   VAL86   LEU89   PHE106  VAL107  ASP110  VAL111  MET112  CYS114  THR115 
 CYS181  SER182  ILE183  PHE188  VAL189  ILE190  SER192  SER193  SER196  TRP342 
 PHE345  PHE346  HIS349  VAL350  TYR365  THR369  GLY372  TYR373 

> <Gold.Protein.RotatedAtoms>
    4.8217   -8.8024    4.6297 H   0  0  0  0  0  0  0  0  0  0  0  0  # atno 1303 bound_to 1298
    0.7880   -9.2604    8.2132 H   0  0  0  0  0  0  0  0  0  0  0  0  # atno 2461 bound_to 2456
   -4.0630   -5.3505    9.3089 H   0  0  0  0  0  0  0  0  0  0  0  0  # atno 2472 bound_to 2467
    2.6652   -9.2421    5.1379 H   0  0  0  0  0  0  0  0  0  0  0  0  # atno 2515 bound_to 2510
   -2.9219  -17.3849   13.0346 H   0  0  0  0  0  0  0  0  0  0  0  0  # atno 3721 bound_to 3712
   -3.9310  -22.8494   11.3401 H   0  0  0  0  0  0  0  0  0  0  0  0  # atno 3767 bound_to 3762
    3.0529  -20.2013    8.4880 H   0  0  0  0  0  0  0  0  0  0  0  0  # atno 3841 bound_to 3832
    4.0874  -10.2599    4.6843 LP  0  0  0  0  0  0  0  0  0  0  0  0  # atno 4297 bound_to 1298
    3.4528   -9.0592    3.7774 LP  0  0  0  0  0  0  0  0  0  0  0  0  # atno 4298 bound_to 1298
    2.1612   -8.4431    7.8761 LP  0  0  0  0  0  0  0  0  0  0  0  0  # atno 4299 bound_to 2456
    0.7884   -8.1049    7.0590 LP  0  0  0  0  0  0  0  0  0  0  0  0  # atno 4300 bound_to 2456
    2.0302   -8.0235    6.0197 LP  0  0  0  0  0  0  0  0  0  0  0  0  # atno 4301 bound_to 2510
    2.6012   -7.7331    4.5177 LP  0  0  0  0  0  0  0  0  0  0  0  0  # atno 4302 bound_to 2510
   -2.6679  -18.0300   14.4828 LP  0  0  0  0  0  0  0  0  0  0  0  0  # atno 4306 bound_to 3712
   -3.4864  -16.6251   14.3316 LP  0  0  0  0  0  0  0  0  0  0  0  0  # atno 4307 bound_to 3712
    2.1781  -21.0814    9.5060 LP  0  0  0  0  0  0  0  0  0  0  0  0  # atno 4314 bound_to 3832
    1.5247  -19.7883    8.7527 LP  0  0  0  0  0  0  0  0  0  0  0  0  # atno 4315 bound_to 3832
   -4.9281  -23.0967   10.0707 LP  0  0  0  0  0  0  0  0  0  0  0  0  # atno 4318 bound_to 3762
   -5.2680  -21.9291   11.1605 LP  0  0  0  0  0  0  0  0  0  0  0  0  # atno 4319 bound_to 3762
   -5.5089   -5.2383    8.5584 LP  0  0  0  0  0  0  0  0  0  0  0  0  # atno 4320 bound_to 2467
   -4.1449   -4.8048    7.7720 LP  0  0  0  0  0  0  0  0  0  0  0  0  # atno 4321 bound_to 2467

> <Gold.Score>
     Score     S(PLP)   S(hbond)     S(cho)   S(metal)  DE(clash)   DE(tors)     intcor
     30.56     -22.05       3.00       0.00       0.00       0.00       0.25       0.00

> <Gold.PLP.Fitness>
30.5596

> <Gold.PLP.PLP>
-22.0529

> <Gold.PLP.part.hbond>
-2.0000

> <Gold.PLP.part.metal>
0.0000

> <Gold.PLP.part.buried>
-2.7901

> <Gold.PLP.part.nonpolar>
-17.8067

> <Gold.PLP.part.repulsive>
0.0298

> <Gold.PLP.ligand.clash>
0.0000

> <Gold.PLP.ligand.torsion>
0.2470

> <Gold.PLP.Chemscore.Hbond>
3.0000

> <Gold.PLP.Chemscore.CHOScore>
0.0000

> <Gold.PLP.Chemscore.Metal>
0.0000

> <Gold.Chemscore.Hbonds>
donor molecule, donor type, donor heavy atom, donor atom, acceptor molecule, acceptor atom, score
      L1  H     5    18       P1  1227  2.00
      L1  H     7    21       P1  1227  1.00

> <Gold.PLP.Chemscore.Internal.Correction>
0.0006

