#       Name:                EN300-683278_i002
#       Creating user name   fsindt
#       Creation time:       Tue Feb 28 13:54:37 2023


#       File generated by GOLD software.
#

@<TRIPOS>MOLECULE
EN300-683278_i002|amine_1|mol2|4697|dock5
    21    20     1
SMALL
USER_CHARGES


@<TRIPOS>ATOM
      1 C1          -0.0872 -11.6948   8.7525 C.3            1 <1>                0.0000
      2 C2           0.5394 -12.7139   7.7987 C.3            1 <1>                0.0000
      3 C3           0.3248 -14.1256   8.3481 C.3            1 <1>                0.0000
      4 C4           0.8202 -15.1512   7.3265 C.3            1 <1>                0.0000
      5 N5           0.5019 -16.5055   7.7985 N.4            1 <1>                1.0000
      6 C6           1.1053 -14.2887   9.6540 C.3            1 <1>                0.0000
      7 O7           0.8632 -15.5893  10.1944 O.3            1 <1>                0.0000
      8 H8          -1.1684 -11.8312   8.7710 H              1 <1>                0.0000
      9 H9           0.3146 -11.8408   9.7552 H              1 <1>                0.0000
     10 H10          0.1460 -10.6862   8.4110 H              1 <1>                0.0000
     11 H11          0.0701 -12.6303   6.8184 H              1 <1>                0.0000
     12 H12          1.6077 -12.5177   7.7080 H              1 <1>                0.0000
     13 H13         -0.7369 -14.2845   8.5371 H              1 <1>                0.0000
     14 H14          0.3302 -14.9758   6.3688 H              1 <1>                0.0000
     15 H15          1.8990 -15.0525   7.2063 H              1 <1>                0.0000
     16 H16          2.1708 -14.1693   9.4578 H              1 <1>                0.0000
     17 H17          0.7803 -13.5323  10.3683 H              1 <1>                0.0000
     18 H18          1.2594 -16.8493   8.3696 H              1 <1>                0.0000
     19 H19         -0.3464 -16.4808   8.3443 H              1 <1>                0.0000
     20 H20          0.3741 -17.1165   7.0058 H              1 <1>                0.0000
     21 H21          1.5886 -16.2137  10.0568 H              1 <1>                0.0000
@<TRIPOS>BOND
    1    1    2 1     
    2    1    8 1     
    3    1    9 1     
    4    1   10 1     
    5    2    3 1     
    6    2   11 1     
    7    2   12 1     
    8    3    4 1     
    9    3    6 1     
   10    3   13 1     
   11    4    5 1     
   12    4   14 1     
   13    4   15 1     
   14    5   18 1     
   15    5   19 1     
   16    5   20 1     
   17    6    7 1     
   18    6   16 1     
   19    6   17 1     
   20    7   21 1     
@<TRIPOS>SUBSTRUCTURE
      1 ****           1
@<TRIPOS>SET
DONOR_HYDROGENS      STATIC     ATOMS    <user>   **** ""
4 18 19 20 21
ATOM$RED        STATIC     ATOMS    COLORGROUP SYSTEM
4 18 19 20 21
@<TRIPOS>COMMENT
> <Gold.Version>
2022.2.0

> <Gold.Id.Protein>
3pbl|protein|mol2

> <Gold.Protein.RotatedTorsions>
[ 1303 1298 1297 1294 ] final   58.39 input  179.99 | X-H torsion
[ 2461 2456 2455 2452 ] final  -48.09 input   30.03 | X-H torsion
[ 2515 2510 2509 2506 ] final  174.43 input  -89.99 | X-H torsion
[ 3721 3712 3711 3710 ] final  169.02 input -179.91 | X-H torsion
[ 3841 3832 3831 3830 ] final -132.04 input -179.91 | X-H torsion
[ 3767 3762 3761 3758 ] final    5.57 input  -89.99 | X-H torsion
[ 2472 2467 2466 2463 ] final   90.59 input  -89.97 | X-H torsion

> <Gold.Protein.ActiveResidues>
 VAL82   VAL86   LEU89   PHE106  VAL107  ASP110  VAL111  MET112  CYS114  THR115 
 CYS181  SER182  ILE183  PHE188  VAL189  ILE190  SER192  SER193  SER196  TRP342 
 PHE345  PHE346  HIS349  VAL350  TYR365  THR369  GLY372  TYR373 

> <Gold.Protein.RotatedAtoms>
    3.9861  -10.2712    4.6190 H   0  0  0  0  0  0  0  0  0  0  0  0  # atno 1303 bound_to 1298
    0.4449   -8.4193    7.2532 H   0  0  0  0  0  0  0  0  0  0  0  0  # atno 2461 bound_to 2456
   -5.1091   -4.9218    7.8001 H   0  0  0  0  0  0  0  0  0  0  0  0  # atno 2472 bound_to 2467
    2.2866   -8.9755    5.8991 H   0  0  0  0  0  0  0  0  0  0  0  0  # atno 2515 bound_to 2510
   -3.2912  -16.6834   13.4025 H   0  0  0  0  0  0  0  0  0  0  0  0  # atno 3721 bound_to 3712
   -5.2701  -22.7847   10.1161 H   0  0  0  0  0  0  0  0  0  0  0  0  # atno 3767 bound_to 3762
    2.3884  -19.6370    8.3942 H   0  0  0  0  0  0  0  0  0  0  0  0  # atno 3841 bound_to 3832
    3.5128   -8.9538    3.7782 LP  0  0  0  0  0  0  0  0  0  0  0  0  # atno 4297 bound_to 1298
    4.8633   -8.8960    4.6943 LP  0  0  0  0  0  0  0  0  0  0  0  0  # atno 4298 bound_to 1298
    1.2623   -9.2668    8.3851 LP  0  0  0  0  0  0  0  0  0  0  0  0  # atno 4299 bound_to 2456
    2.0303   -8.1220    7.5096 LP  0  0  0  0  0  0  0  0  0  0  0  0  # atno 4300 bound_to 2456
    2.1791   -7.4359    5.3663 LP  0  0  0  0  0  0  0  0  0  0  0  0  # atno 4301 bound_to 2510
    2.8311   -8.5875    4.4095 LP  0  0  0  0  0  0  0  0  0  0  0  0  # atno 4302 bound_to 2510
   -2.6775  -18.1619   13.5258 LP  0  0  0  0  0  0  0  0  0  0  0  0  # atno 4306 bound_to 3712
   -3.0505  -17.3032   14.8638 LP  0  0  0  0  0  0  0  0  0  0  0  0  # atno 4307 bound_to 3712
    2.9756  -21.0204    8.9576 LP  0  0  0  0  0  0  0  0  0  0  0  0  # atno 4314 bound_to 3832
    1.4948  -20.5011    9.4095 LP  0  0  0  0  0  0  0  0  0  0  0  0  # atno 4315 bound_to 3832
   -4.9251  -21.9456   11.4740 LP  0  0  0  0  0  0  0  0  0  0  0  0  # atno 4318 bound_to 3762
   -3.9324  -23.1448   10.9807 LP  0  0  0  0  0  0  0  0  0  0  0  0  # atno 4319 bound_to 3762
   -3.6380   -5.0125    8.5031 LP  0  0  0  0  0  0  0  0  0  0  0  0  # atno 4320 bound_to 2467
   -4.9699   -5.4591    9.3358 LP  0  0  0  0  0  0  0  0  0  0  0  0  # atno 4321 bound_to 2467

> <Gold.Score>
     Score     S(PLP)   S(hbond)     S(cho)   S(metal)  DE(clash)   DE(tors)     intcor
     33.30     -24.36       3.00       0.00       0.00       0.00       0.03       0.00

> <Gold.PLP.Fitness>
33.2981

> <Gold.PLP.PLP>
-24.3631

> <Gold.PLP.part.hbond>
-2.0000

> <Gold.PLP.part.metal>
0.0000

> <Gold.PLP.part.buried>
-2.8075

> <Gold.PLP.part.nonpolar>
-19.3648

> <Gold.PLP.part.repulsive>
0.0000

> <Gold.PLP.ligand.clash>
0.0000

> <Gold.PLP.ligand.torsion>
0.0332

> <Gold.PLP.Chemscore.Hbond>
3.0000

> <Gold.PLP.Chemscore.CHOScore>
0.0000

> <Gold.PLP.Chemscore.Metal>
0.0000

> <Gold.Chemscore.Hbonds>
donor molecule, donor type, donor heavy atom, donor atom, acceptor molecule, acceptor atom, score
      L1  H     5    18       P1  1227  2.00
      L1  H     7    21       P1  1227  1.00

> <Gold.PLP.Chemscore.Internal.Correction>
0.0015

