#       Name:                EN300-683278_i002
#       Creating user name   fsindt
#       Creation time:       Tue Feb 28 13:54:46 2023


#       File generated by GOLD software.
#

@<TRIPOS>MOLECULE
EN300-683278_i002|amine_1|mol2|4697|dock15
    21    20     1
SMALL
USER_CHARGES


@<TRIPOS>ATOM
      1 C1           0.5081 -11.6966   7.4917 C.3            1 <1>                0.0000
      2 C2           0.1129 -12.3690   8.8080 C.3            1 <1>                0.0000
      3 C3           0.2871 -13.8836   8.6794 C.3            1 <1>                0.0000
      4 C4           1.6561 -14.1895   8.0686 C.3            1 <1>                0.0000
      5 N5           1.6535 -15.5517   7.5186 N.4            1 <1>                1.0000
      6 C6           0.1910 -14.5274  10.0640 C.3            1 <1>                0.0000
      7 O7           0.2636 -15.9487   9.9346 O.3            1 <1>                0.0000
      8 H8           1.5728 -11.8460   7.3126 H              1 <1>                0.0000
      9 H9          -0.0631 -12.1357   6.6736 H              1 <1>                0.0000
     10 H10          0.2958 -10.6291   7.5509 H              1 <1>                0.0000
     11 H11          0.7490 -11.9970   9.6113 H              1 <1>                0.0000
     12 H12         -0.9286 -12.1408   9.0342 H              1 <1>                0.0000
     13 H13         -0.4958 -14.2860   8.0365 H              1 <1>                0.0000
     14 H14          1.8659 -13.4763   7.2715 H              1 <1>                0.0000
     15 H15          2.4234 -14.1100   8.8386 H              1 <1>                0.0000
     16 H16          1.0147 -14.1766  10.6857 H              1 <1>                0.0000
     17 H17         -0.7565 -14.2527  10.5274 H              1 <1>                0.0000
     18 H18          2.4397 -15.6647   6.8964 H              1 <1>                0.0000
     19 H19          1.7226 -16.2189   8.2725 H              1 <1>                0.0000
     20 H20          0.7964 -15.7072   7.0093 H              1 <1>                0.0000
     21 H21          1.1560 -16.2838   9.7725 H              1 <1>                0.0000
@<TRIPOS>BOND
    1    1    2 1     
    2    1    8 1     
    3    1    9 1     
    4    1   10 1     
    5    2    3 1     
    6    2   11 1     
    7    2   12 1     
    8    3    4 1     
    9    3    6 1     
   10    3   13 1     
   11    4    5 1     
   12    4   14 1     
   13    4   15 1     
   14    5   18 1     
   15    5   19 1     
   16    5   20 1     
   17    6    7 1     
   18    6   16 1     
   19    6   17 1     
   20    7   21 1     
@<TRIPOS>SUBSTRUCTURE
      1 ****           1
@<TRIPOS>SET
DONOR_HYDROGENS      STATIC     ATOMS    <user>   **** ""
4 18 19 20 21
ATOM$RED        STATIC     ATOMS    COLORGROUP SYSTEM
4 18 19 20 21
@<TRIPOS>COMMENT
> <Gold.Version>
2022.2.0

> <Gold.Id.Protein>
3pbl|protein|mol2

> <Gold.Protein.RotatedTorsions>
[ 1303 1298 1297 1294 ] final   84.08 input  179.99 | X-H torsion
[ 2461 2456 2455 2452 ] final  132.99 input   30.03 | X-H torsion
[ 2515 2510 2509 2506 ] final  -14.53 input  -89.99 | X-H torsion
[ 3721 3712 3711 3710 ] final    6.54 input -179.91 | X-H torsion
[ 3841 3832 3831 3830 ] final -149.29 input -179.91 | X-H torsion
[ 3767 3762 3761 3758 ] final   90.41 input  -89.99 | X-H torsion
[ 2472 2467 2466 2463 ] final  -58.94 input  -89.97 | X-H torsion

> <Gold.Protein.ActiveResidues>
 VAL82   VAL86   LEU89   PHE106  VAL107  ASP110  VAL111  MET112  CYS114  THR115 
 CYS181  SER182  ILE183  PHE188  VAL189  ILE190  SER192  SER193  SER196  TRP342 
 PHE345  PHE346  HIS349  VAL350  TYR365  THR369  GLY372  TYR373 

> <Gold.Protein.RotatedAtoms>
    4.3373  -10.1680    4.8230 H   0  0  0  0  0  0  0  0  0  0  0  0  # atno 1303 bound_to 1298
    2.0384   -8.7986    8.1883 H   0  0  0  0  0  0  0  0  0  0  0  0  # atno 2461 bound_to 2456
   -3.7197   -5.1818    8.9455 H   0  0  0  0  0  0  0  0  0  0  0  0  # atno 2472 bound_to 2467
    2.6350   -7.8020    4.4734 H   0  0  0  0  0  0  0  0  0  0  0  0  # atno 2515 bound_to 2510
   -2.4759  -17.9902   14.1501 H   0  0  0  0  0  0  0  0  0  0  0  0  # atno 3721 bound_to 3712
   -4.1884  -23.3287   10.5065 H   0  0  0  0  0  0  0  0  0  0  0  0  # atno 3767 bound_to 3762
    2.6193  -19.7470    8.3497 H   0  0  0  0  0  0  0  0  0  0  0  0  # atno 3841 bound_to 3832
    3.3534   -9.3396    3.8171 LP  0  0  0  0  0  0  0  0  0  0  0  0  # atno 4297 bound_to 1298
    4.6714   -8.6135    4.4513 LP  0  0  0  0  0  0  0  0  0  0  0  0  # atno 4298 bound_to 1298
    1.2468   -7.9356    7.0499 LP  0  0  0  0  0  0  0  0  0  0  0  0  # atno 4299 bound_to 2456
    0.4528   -9.0741    7.9101 LP  0  0  0  0  0  0  0  0  0  0  0  0  # atno 4300 bound_to 2456
    2.6331   -9.2542    5.2196 LP  0  0  0  0  0  0  0  0  0  0  0  0  # atno 4301 bound_to 2510
    2.0285   -7.9432    5.9827 LP  0  0  0  0  0  0  0  0  0  0  0  0  # atno 4302 bound_to 2510
   -3.4027  -16.7387   14.5409 LP  0  0  0  0  0  0  0  0  0  0  0  0  # atno 4306 bound_to 3712
   -3.2665  -17.2176   12.9857 LP  0  0  0  0  0  0  0  0  0  0  0  0  # atno 4307 bound_to 3712
    2.7974  -21.1218    9.1587 LP  0  0  0  0  0  0  0  0  0  0  0  0  # atno 4314 bound_to 3832
    1.4062  -20.2727    9.2598 LP  0  0  0  0  0  0  0  0  0  0  0  0  # atno 4315 bound_to 3832
   -5.4980  -22.3574   10.4157 LP  0  0  0  0  0  0  0  0  0  0  0  0  # atno 4318 bound_to 3762
   -4.4407  -22.1892   11.6488 LP  0  0  0  0  0  0  0  0  0  0  0  0  # atno 4319 bound_to 3762
   -5.3368   -5.3905    9.0333 LP  0  0  0  0  0  0  0  0  0  0  0  0  # atno 4320 bound_to 2467
   -4.6603   -4.8213    7.6604 LP  0  0  0  0  0  0  0  0  0  0  0  0  # atno 4321 bound_to 2467

> <Gold.Score>
     Score     S(PLP)   S(hbond)     S(cho)   S(metal)  DE(clash)   DE(tors)     intcor
     32.93     -21.45       4.00       0.00       0.00       0.00       0.26       0.00

> <Gold.PLP.Fitness>
32.9318

> <Gold.PLP.PLP>
-21.4498

> <Gold.PLP.part.hbond>
-3.0000

> <Gold.PLP.part.metal>
0.0000

> <Gold.PLP.part.buried>
-2.1149

> <Gold.PLP.part.nonpolar>
-17.1309

> <Gold.PLP.part.repulsive>
0.0537

> <Gold.PLP.ligand.clash>
0.0000

> <Gold.PLP.ligand.torsion>
0.2593

> <Gold.PLP.Chemscore.Hbond>
4.0000

> <Gold.PLP.Chemscore.CHOScore>
0.0000

> <Gold.PLP.Chemscore.Metal>
0.0000

> <Gold.Chemscore.Hbonds>
donor molecule, donor type, donor heavy atom, donor atom, acceptor molecule, acceptor atom, score
      L1  H     5    18       P1  1223  1.00
      L1  H     5    19       P1  1227  2.00
      L1  H     7    21       P1  1227  1.00

> <Gold.PLP.Chemscore.Internal.Correction>
0.0006

