#       Name:                EN300-18990_i001
#       Creating user name   aseyller
#       Creation time:       Fri Apr 21 16:30:40 2023


#       File generated by GOLD software.
#

@<TRIPOS>MOLECULE
EN300-18990_i001|benzaldehydes|mol2|30|dock12
    11    11     1
SMALL
USER_CHARGES


@<TRIPOS>ATOM
      1 O1          28.4299  38.1969  37.3578 O.2            1 <1>                0.0000
      2 C2          29.0931  37.5734  38.1617 C.2            1 <1>                0.0000
      3 C3          28.4599  36.9064  39.2336 C.2            1 <1>                0.0000
      4 C4          29.1014  36.2604  40.2599 C.2            1 <1>                0.0000
      5 C5          28.2404  35.6975  41.1675 C.2            1 <1>                0.0000
      6 C6          26.9384  35.8718  40.9014 C.2            1 <1>                0.0000
      7 S7          26.7226  36.7769  39.4714 S.3            1 <1>                0.0000
      8 H8          30.1667  37.5252  38.0545 H              1 <1>                0.0000
      9 H9          30.1764  36.2007  40.3445 H              1 <1>                0.0000
     10 H10         28.5865  35.1530  42.0337 H              1 <1>                0.0000
     11 H11         26.1330  35.4936  41.5135 H              1 <1>                0.0000
@<TRIPOS>BOND
    1    1    2 2     
    2    2    3 1     
    3    2    8 1     
    4    3    4 2     
    5    3    7 1     
    6    4    5 1     
    7    4    9 1     
    8    5    6 2     
    9    5   10 1     
   10    6    7 1     
   11    6   11 1     
@<TRIPOS>SUBSTRUCTURE
      1 ****           1
@<TRIPOS>COMMENT
> <Gold.Version>
2022.2.0

> <Gold.Id.Protein>
1qkm|1qkm_protein|mol2

> <Gold.Protein.RotatedTorsions>
[  496  491  490  487 ] final -167.71 input  -89.99 | X-H torsion

> <Gold.Protein.ActiveResidues>
 MET295  LEU298  THR299  LEU301  ALA302  GLU305  TRP335  MET336  LEU339  MET340 
 GLY342  LEU343  ARG346  PHE356  ILE373  ILE376  PHE377  LEU380  LYS471  GLY472 
 MET473  HIS475  LEU476  LEU477  ASN478  MET479  VAL484  VAL487 

> <Gold.Protein.RotatedAtoms>
   37.2990   33.6439   40.7825 H   0  0  0  0  0  0  0  0  0  0  0  0  # atno 496  bound_to 491 

> <Gold.Score>
     Score     S(PLP)   S(hbond)     S(cho)   S(metal)  DE(clash)   DE(tors)     intcor
     29.29     -26.31       0.00       1.00       0.00       0.00       0.01       0.00

> <Gold.PLP.Fitness>
29.2936

> <Gold.PLP.PLP>
-26.3062

> <Gold.PLP.part.hbond>
0.0000

> <Gold.PLP.part.metal>
0.0000

> <Gold.PLP.part.buried>
-1.7568

> <Gold.PLP.part.nonpolar>
-24.4400

> <Gold.PLP.part.repulsive>
0.0000

> <Gold.PLP.ligand.clash>
0.0000

> <Gold.PLP.ligand.torsion>
0.0063

> <Gold.PLP.Chemscore.Hbond>
0.0000

> <Gold.PLP.Chemscore.CHOScore>
1.0000

> <Gold.PLP.Chemscore.Metal>
0.0000

> <Gold.Chemscore.Hbonds>
donor molecule, donor type, donor heavy atom, donor atom, acceptor molecule, acceptor atom, score
      L1  C     6    11       P1   582  1.00

> <Gold.PLP.Chemscore.Internal.Correction>
0.0000

