#       Name:                EN300-18990_i001
#       Creating user name   aseyller
#       Creation time:       Fri Apr 21 16:30:42 2023


#       File generated by GOLD software.
#

@<TRIPOS>MOLECULE
EN300-18990_i001|benzaldehydes|mol2|30|dock17
    11    11     1
SMALL
USER_CHARGES


@<TRIPOS>ATOM
      1 O1          28.7627  35.5151  42.0986 O.2            1 <1>                0.0000
      2 C2          28.8737  36.1993  41.1014 C.2            1 <1>                0.0000
      3 C3          27.7213  36.6163  40.3992 C.2            1 <1>                0.0000
      4 C4          27.6810  36.9717  39.0748 C.2            1 <1>                0.0000
      5 C5          26.4284  37.3363  38.6500 C.2            1 <1>                0.0000
      6 C6          25.4716  37.2839  39.5869 C.2            1 <1>                0.0000
      7 S7          26.1063  36.7561  41.0800 S.3            1 <1>                0.0000
      8 H8          29.8533  36.4927  40.7540 H              1 <1>                0.0000
      9 H9          28.5482  36.9656  38.4313 H              1 <1>                0.0000
     10 H10         26.2280  37.6435  37.6341 H              1 <1>                0.0000
     11 H11         24.4355  37.5376  39.4180 H              1 <1>                0.0000
@<TRIPOS>BOND
    1    1    2 2     
    2    2    3 1     
    3    2    8 1     
    4    3    4 2     
    5    3    7 1     
    6    4    5 1     
    7    4    9 1     
    8    5    6 2     
    9    5   10 1     
   10    6    7 1     
   11    6   11 1     
@<TRIPOS>SUBSTRUCTURE
      1 ****           1
@<TRIPOS>COMMENT
> <Gold.Version>
2022.2.0

> <Gold.Id.Protein>
1qkm|1qkm_protein|mol2

> <Gold.Protein.RotatedTorsions>
[  496  491  490  487 ] final  -83.84 input  -89.99 | X-H torsion

> <Gold.Protein.ActiveResidues>
 MET295  LEU298  THR299  LEU301  ALA302  GLU305  TRP335  MET336  LEU339  MET340 
 GLY342  LEU343  ARG346  PHE356  ILE373  ILE376  PHE377  LEU380  LYS471  GLY472 
 MET473  HIS475  LEU476  LEU477  ASN478  MET479  VAL484  VAL487 

> <Gold.Protein.RotatedAtoms>
   36.7007   34.6889   41.1554 H   0  0  0  0  0  0  0  0  0  0  0  0  # atno 496  bound_to 491 

> <Gold.Score>
     Score     S(PLP)   S(hbond)     S(cho)   S(metal)  DE(clash)   DE(tors)     intcor
     30.31     -27.94       0.00       0.87       0.00       0.00       0.12       0.00

> <Gold.PLP.Fitness>
30.3062

> <Gold.PLP.PLP>
-27.9428

> <Gold.PLP.part.hbond>
-0.8581

> <Gold.PLP.part.metal>
0.0000

> <Gold.PLP.part.buried>
-1.9586

> <Gold.PLP.part.nonpolar>
-26.7879

> <Gold.PLP.part.repulsive>
0.6036

> <Gold.PLP.ligand.clash>
0.0000

> <Gold.PLP.ligand.torsion>
0.1197

> <Gold.PLP.Chemscore.Hbond>
0.0000

> <Gold.PLP.Chemscore.CHOScore>
0.8676

> <Gold.PLP.Chemscore.Metal>
0.0000

> <Gold.Chemscore.Hbonds>
donor molecule, donor type, donor heavy atom, donor atom, acceptor molecule, acceptor atom, score
      L1  C     6    11       P1  1131  0.87

> <Gold.PLP.Chemscore.Internal.Correction>
0.0000

