#       Name:                EN300-18990_i001
#       Creating user name   aseyller
#       Creation time:       Fri Apr 21 16:30:39 2023


#       File generated by GOLD software.
#

@<TRIPOS>MOLECULE
EN300-18990_i001|benzaldehydes|mol2|30|dock5
    11    11     1
SMALL
USER_CHARGES


@<TRIPOS>ATOM
      1 O1          28.6312  37.5821  37.3289 O.2            1 <1>                0.0000
      2 C2          27.4682  37.6056  37.6778 C.2            1 <1>                0.0000
      3 C3          27.1160  37.2144  38.9884 C.2            1 <1>                0.0000
      4 C4          25.8480  37.2338  39.5116 C.2            1 <1>                0.0000
      5 C5          25.7921  36.8000  40.8120 C.2            1 <1>                0.0000
      6 C6          26.9681  36.4364  41.3421 C.2            1 <1>                0.0000
      7 S7          28.2312  36.6171  40.2095 S.3            1 <1>                0.0000
      8 H8          26.7036  37.9299  36.9873 H              1 <1>                0.0000
      9 H9          24.9808  37.5584  38.9558 H              1 <1>                0.0000
     10 H10         24.8675  36.7550  41.3683 H              1 <1>                0.0000
     11 H11         27.0982  36.0729  42.3507 H              1 <1>                0.0000
@<TRIPOS>BOND
    1    1    2 2     
    2    2    3 1     
    3    2    8 1     
    4    3    4 2     
    5    3    7 1     
    6    4    5 1     
    7    4    9 1     
    8    5    6 2     
    9    5   10 1     
   10    6    7 1     
   11    6   11 1     
@<TRIPOS>SUBSTRUCTURE
      1 ****           1
@<TRIPOS>COMMENT
> <Gold.Version>
2022.2.0

> <Gold.Id.Protein>
1qkm|1qkm_protein|mol2

> <Gold.Protein.RotatedTorsions>
[  496  491  490  487 ] final  -57.57 input  -89.99 | X-H torsion

> <Gold.Protein.ActiveResidues>
 MET295  LEU298  THR299  LEU301  ALA302  GLU305  TRP335  MET336  LEU339  MET340 
 GLY342  LEU343  ARG346  PHE356  ILE373  ILE376  PHE377  LEU380  LYS471  GLY472 
 MET473  HIS475  LEU476  LEU477  ASN478  MET479  VAL484  VAL487 

> <Gold.Protein.RotatedAtoms>
   36.4785   34.7277   41.5200 H   0  0  0  0  0  0  0  0  0  0  0  0  # atno 496  bound_to 491 

> <Gold.Score>
     Score     S(PLP)   S(hbond)     S(cho)   S(metal)  DE(clash)   DE(tors)     intcor
     30.20     -27.20       0.00       1.00       0.00       0.00       0.00       0.00

> <Gold.PLP.Fitness>
30.1971

> <Gold.PLP.PLP>
-27.1991

> <Gold.PLP.part.hbond>
0.0000

> <Gold.PLP.part.metal>
0.0000

> <Gold.PLP.part.buried>
-1.6956

> <Gold.PLP.part.nonpolar>
-25.8453

> <Gold.PLP.part.repulsive>
0.0000

> <Gold.PLP.ligand.clash>
0.0000

> <Gold.PLP.ligand.torsion>
0.0010

> <Gold.PLP.Chemscore.Hbond>
0.0000

> <Gold.PLP.Chemscore.CHOScore>
1.0000

> <Gold.PLP.Chemscore.Metal>
0.0000

> <Gold.Chemscore.Hbonds>
donor molecule, donor type, donor heavy atom, donor atom, acceptor molecule, acceptor atom, score
      L1  C     6    11       P1   582  1.00

> <Gold.PLP.Chemscore.Internal.Correction>
0.0000

