#       Name:                EN300-18990_i001
#       Creating user name   aseyller
#       Creation time:       Fri Apr 21 16:30:40 2023


#       File generated by GOLD software.
#

@<TRIPOS>MOLECULE
EN300-18990_i001|benzaldehydes|mol2|30|dock11
    11    11     1
SMALL
USER_CHARGES


@<TRIPOS>ATOM
      1 O1          29.8560  36.3853  38.6544 O.2            1 <1>                0.0000
      2 C2          29.2537  36.2421  39.6992 C.2            1 <1>                0.0000
      3 C3          27.8787  36.5567  39.7706 C.2            1 <1>                0.0000
      4 C4          27.1148  37.0282  38.7331 C.2            1 <1>                0.0000
      5 C5          25.8065  37.2503  39.0815 C.2            1 <1>                0.0000
      6 C6          25.5017  36.9730  40.3567 C.2            1 <1>                0.0000
      7 S7          26.8688  36.3999  41.2013 S.3            1 <1>                0.0000
      8 H8          29.7685  35.8699  40.5726 H              1 <1>                0.0000
      9 H9          27.5043  37.2070  37.7419 H              1 <1>                0.0000
     10 H10         25.0752  37.6220  38.3789 H              1 <1>                0.0000
     11 H11         24.5200  37.0920  40.7909 H              1 <1>                0.0000
@<TRIPOS>BOND
    1    1    2 2     
    2    2    3 1     
    3    2    8 1     
    4    3    4 2     
    5    3    7 1     
    6    4    5 1     
    7    4    9 1     
    8    5    6 2     
    9    5   10 1     
   10    6    7 1     
   11    6   11 1     
@<TRIPOS>SUBSTRUCTURE
      1 ****           1
@<TRIPOS>COMMENT
> <Gold.Version>
2022.2.0

> <Gold.Id.Protein>
1qkm|1qkm_protein|mol2

> <Gold.Protein.RotatedTorsions>
[  496  491  490  487 ] final   23.75 input  -89.99 | X-H torsion

> <Gold.Protein.ActiveResidues>
 MET295  LEU298  THR299  LEU301  ALA302  GLU305  TRP335  MET336  LEU339  MET340 
 GLY342  LEU343  ARG346  PHE356  ILE373  ILE376  PHE377  LEU380  LYS471  GLY472 
 MET473  HIS475  LEU476  LEU477  ASN478  MET479  VAL484  VAL487 

> <Gold.Protein.RotatedAtoms>
   36.3172   33.8532   42.3684 H   0  0  0  0  0  0  0  0  0  0  0  0  # atno 496  bound_to 491 

> <Gold.Score>
     Score     S(PLP)   S(hbond)     S(cho)   S(metal)  DE(clash)   DE(tors)     intcor
     29.96     -27.55       0.00       0.80       0.00       0.00       0.00       0.00

> <Gold.PLP.Fitness>
29.9561

> <Gold.PLP.PLP>
-27.5547

> <Gold.PLP.part.hbond>
0.0000

> <Gold.PLP.part.metal>
0.0000

> <Gold.PLP.part.buried>
-1.3389

> <Gold.PLP.part.nonpolar>
-26.4925

> <Gold.PLP.part.repulsive>
0.0439

> <Gold.PLP.ligand.clash>
0.0000

> <Gold.PLP.ligand.torsion>
0.0000

> <Gold.PLP.Chemscore.Hbond>
0.0000

> <Gold.PLP.Chemscore.CHOScore>
0.8005

> <Gold.PLP.Chemscore.Metal>
0.0000

> <Gold.Chemscore.Hbonds>
donor molecule, donor type, donor heavy atom, donor atom, acceptor molecule, acceptor atom, score
      L1  C     6    11       P1  1131  0.80

> <Gold.PLP.Chemscore.Internal.Correction>
0.0000

