#       Name:                EN300-18990_i001
#       Creating user name   aseyller
#       Creation time:       Fri Apr 21 16:30:40 2023


#       File generated by GOLD software.
#

@<TRIPOS>MOLECULE
EN300-18990_i001|benzaldehydes|mol2|30|dock9
    11    11     1
SMALL
USER_CHARGES


@<TRIPOS>ATOM
      1 O1          25.8021  37.5996  42.7079 O.2            1 <1>                0.0000
      2 C2          25.2981  37.3880  41.6234 C.2            1 <1>                0.0000
      3 C3          26.0525  36.7684  40.6028 C.2            1 <1>                0.0000
      4 C4          25.8319  36.9039  39.2555 C.2            1 <1>                0.0000
      5 C5          26.7162  36.1895  38.4876 C.2            1 <1>                0.0000
      6 C6          27.6316  35.4913  39.1737 C.2            1 <1>                0.0000
      7 S7          27.4302  35.7053  40.8543 S.3            1 <1>                0.0000
      8 H8          24.2715  37.6694  41.4409 H              1 <1>                0.0000
      9 H9          25.0412  37.5117  38.8411 H              1 <1>                0.0000
     10 H10         26.6775  36.1896  37.4082 H              1 <1>                0.0000
     11 H11         28.3978  34.8782  38.7225 H              1 <1>                0.0000
@<TRIPOS>BOND
    1    1    2 2     
    2    2    3 1     
    3    2    8 1     
    4    3    4 2     
    5    3    7 1     
    6    4    5 1     
    7    4    9 1     
    8    5    6 2     
    9    5   10 1     
   10    6    7 1     
   11    6   11 1     
@<TRIPOS>SUBSTRUCTURE
      1 ****           1
@<TRIPOS>COMMENT
> <Gold.Version>
2022.2.0

> <Gold.Id.Protein>
1qkm|1qkm_protein|mol2

> <Gold.Protein.RotatedTorsions>
[  496  491  490  487 ] final  -62.53 input  -89.99 | X-H torsion

> <Gold.Protein.ActiveResidues>
 MET295  LEU298  THR299  LEU301  ALA302  GLU305  TRP335  MET336  LEU339  MET340 
 GLY342  LEU343  ARG346  PHE356  ILE373  ILE376  PHE377  LEU380  LYS471  GLY472 
 MET473  HIS475  LEU476  LEU477  ASN478  MET479  VAL484  VAL487 

> <Gold.Protein.RotatedAtoms>
   36.5168   34.7348   41.4482 H   0  0  0  0  0  0  0  0  0  0  0  0  # atno 496  bound_to 491 

> <Gold.Score>
     Score     S(PLP)   S(hbond)     S(cho)   S(metal)  DE(clash)   DE(tors)     intcor
     29.49     -29.72       0.02       0.00       0.00       0.00       0.14       0.00

> <Gold.PLP.Fitness>
29.4886

> <Gold.PLP.PLP>
-29.7169

> <Gold.PLP.part.hbond>
-1.0000

> <Gold.PLP.part.metal>
0.0000

> <Gold.PLP.part.buried>
0.7601

> <Gold.PLP.part.nonpolar>
-29.7419

> <Gold.PLP.part.repulsive>
0.8212

> <Gold.PLP.ligand.clash>
0.0000

> <Gold.PLP.ligand.torsion>
0.1385

> <Gold.PLP.Chemscore.Hbond>
0.0162

> <Gold.PLP.Chemscore.CHOScore>
0.0000

> <Gold.PLP.Chemscore.Metal>
0.0000

> <Gold.Chemscore.Hbonds>
donor molecule, donor type, donor heavy atom, donor atom, acceptor molecule, acceptor atom, score
      P1  H  1258  1271       L1     1  0.02

> <Gold.PLP.Chemscore.Internal.Correction>
0.0000

