#       Name:                EN300-18990_i001
#       Creating user name   aseyller
#       Creation time:       Fri Apr 21 16:30:40 2023


#       File generated by GOLD software.
#

@<TRIPOS>MOLECULE
EN300-18990_i001|benzaldehydes|mol2|30|dock10
    11    11     1
SMALL
USER_CHARGES


@<TRIPOS>ATOM
      1 O1          30.4317  36.6346  37.9269 O.2            1 <1>                0.0000
      2 C2          30.2493  36.3675  39.0975 C.2            1 <1>                0.0000
      3 C3          28.9341  36.2343  39.5949 C.2            1 <1>                0.0000
      4 C4          27.7888  36.2857  38.8414 C.2            1 <1>                0.0000
      5 C5          26.6455  36.1264  39.5828 C.2            1 <1>                0.0000
      6 C6          26.8389  35.9503  40.8972 C.2            1 <1>                0.0000
      7 S7          28.5018  35.9686  41.2783 S.3            1 <1>                0.0000
      8 H8          31.0928  36.2273  39.7572 H              1 <1>                0.0000
      9 H9          27.7873  36.4368  37.7721 H              1 <1>                0.0000
     10 H10         25.6608  36.1421  39.1394 H              1 <1>                0.0000
     11 H11         26.0474  35.8107  41.6187 H              1 <1>                0.0000
@<TRIPOS>BOND
    1    1    2 2     
    2    2    3 1     
    3    2    8 1     
    4    3    4 2     
    5    3    7 1     
    6    4    5 1     
    7    4    9 1     
    8    5    6 2     
    9    5   10 1     
   10    6    7 1     
   11    6   11 1     
@<TRIPOS>SUBSTRUCTURE
      1 ****           1
@<TRIPOS>COMMENT
> <Gold.Version>
2022.2.0

> <Gold.Id.Protein>
1qkm|1qkm_protein|mol2

> <Gold.Protein.RotatedTorsions>
[  496  491  490  487 ] final  136.65 input  -89.99 | X-H torsion

> <Gold.Protein.ActiveResidues>
 MET295  LEU298  THR299  LEU301  ALA302  GLU305  TRP335  MET336  LEU339  MET340 
 GLY342  LEU343  ARG346  PHE356  ILE373  ILE376  PHE377  LEU380  LYS471  GLY472 
 MET473  HIS475  LEU476  LEU477  ASN478  MET479  VAL484  VAL487 

> <Gold.Protein.RotatedAtoms>
   37.1951   33.0043   41.3784 H   0  0  0  0  0  0  0  0  0  0  0  0  # atno 496  bound_to 491 

> <Gold.Score>
     Score     S(PLP)   S(hbond)     S(cho)   S(metal)  DE(clash)   DE(tors)     intcor
     29.53     -26.55       0.00       1.00       0.00       0.00       0.01       0.00

> <Gold.PLP.Fitness>
29.5257

> <Gold.PLP.PLP>
-26.5470

> <Gold.PLP.part.hbond>
0.0000

> <Gold.PLP.part.metal>
0.0000

> <Gold.PLP.part.buried>
-1.8298

> <Gold.PLP.part.nonpolar>
-25.0574

> <Gold.PLP.part.repulsive>
0.0172

> <Gold.PLP.ligand.clash>
0.0000

> <Gold.PLP.ligand.torsion>
0.0056

> <Gold.PLP.Chemscore.Hbond>
0.0000

> <Gold.PLP.Chemscore.CHOScore>
0.9966

> <Gold.PLP.Chemscore.Metal>
0.0000

> <Gold.Chemscore.Hbonds>
donor molecule, donor type, donor heavy atom, donor atom, acceptor molecule, acceptor atom, score
      L1  C     6    11       P1   582  1.00

> <Gold.PLP.Chemscore.Internal.Correction>
0.0000

