#       Name:                EN300-18990_i001
#       Creating user name   aseyller
#       Creation time:       Fri Apr 21 16:30:38 2023


#       File generated by GOLD software.
#

@<TRIPOS>MOLECULE
EN300-18990_i001|benzaldehydes|mol2|30|dock2
    11    11     1
SMALL
USER_CHARGES


@<TRIPOS>ATOM
      1 O1          30.2621  36.8217  38.8079 O.2            1 <1>                0.0000
      2 C2          29.1518  36.9995  38.3491 C.2            1 <1>                0.0000
      3 C3          28.0128  36.8098  39.1624 C.2            1 <1>                0.0000
      4 C4          26.7129  37.0079  38.7710 C.2            1 <1>                0.0000
      5 C5          25.8029  36.7484  39.7644 C.2            1 <1>                0.0000
      6 C6          26.3306  36.3515  40.9307 C.2            1 <1>                0.0000
      7 S7          28.0324  36.2745  40.8371 S.3            1 <1>                0.0000
      8 H8          29.0355  37.3070  37.3203 H              1 <1>                0.0000
      9 H9          26.4340  37.3356  37.7805 H              1 <1>                0.0000
     10 H10         24.7384  36.8565  39.6173 H              1 <1>                0.0000
     11 H11         25.7547  36.1081  41.8113 H              1 <1>                0.0000
@<TRIPOS>BOND
    1    1    2 2     
    2    2    3 1     
    3    2    8 1     
    4    3    4 2     
    5    3    7 1     
    6    4    5 1     
    7    4    9 1     
    8    5    6 2     
    9    5   10 1     
   10    6    7 1     
   11    6   11 1     
@<TRIPOS>SUBSTRUCTURE
      1 ****           1
@<TRIPOS>COMMENT
> <Gold.Version>
2022.2.0

> <Gold.Id.Protein>
1qkm|1qkm_protein|mol2

> <Gold.Protein.RotatedTorsions>
[  496  491  490  487 ] final  157.90 input  -89.99 | X-H torsion

> <Gold.Protein.ActiveResidues>
 MET295  LEU298  THR299  LEU301  ALA302  GLU305  TRP335  MET336  LEU339  MET340 
 GLY342  LEU343  ARG346  PHE356  ILE373  ILE376  PHE377  LEU380  LYS471  GLY472 
 MET473  HIS475  LEU476  LEU477  ASN478  MET479  VAL484  VAL487 

> <Gold.Protein.RotatedAtoms>
   37.2908   33.1824   41.0955 H   0  0  0  0  0  0  0  0  0  0  0  0  # atno 496  bound_to 491 

> <Gold.Score>
     Score     S(PLP)   S(hbond)     S(cho)   S(metal)  DE(clash)   DE(tors)     intcor
     29.74     -26.74       0.00       1.00       0.00       0.00       0.00       0.00

> <Gold.PLP.Fitness>
29.7420

> <Gold.PLP.PLP>
-26.7433

> <Gold.PLP.part.hbond>
0.0000

> <Gold.PLP.part.metal>
0.0000

> <Gold.PLP.part.buried>
-2.1394

> <Gold.PLP.part.nonpolar>
-25.2378

> <Gold.PLP.part.repulsive>
0.0520

> <Gold.PLP.ligand.clash>
0.0000

> <Gold.PLP.ligand.torsion>
0.0006

> <Gold.PLP.Chemscore.Hbond>
0.0000

> <Gold.PLP.Chemscore.CHOScore>
1.0000

> <Gold.PLP.Chemscore.Metal>
0.0000

> <Gold.Chemscore.Hbonds>
donor molecule, donor type, donor heavy atom, donor atom, acceptor molecule, acceptor atom, score
      L1  C     6    11       P1   582  1.00

> <Gold.PLP.Chemscore.Internal.Correction>
0.0000

