#       Name:                EN300-18990_i001
#       Creating user name   aseyller
#       Creation time:       Fri Apr 21 16:30:42 2023


#       File generated by GOLD software.
#

@<TRIPOS>MOLECULE
EN300-18990_i001|benzaldehydes|mol2|30|dock16
    11    11     1
SMALL
USER_CHARGES


@<TRIPOS>ATOM
      1 O1          30.1265  37.6359  37.9987 O.2            1 <1>                0.0000
      2 C2          28.9538  37.3204  37.9905 C.2            1 <1>                0.0000
      3 C3          28.3086  36.9688  39.1968 C.2            1 <1>                0.0000
      4 C4          26.9613  36.7591  39.3474 C.2            1 <1>                0.0000
      5 C5          26.6049  36.4284  40.6303 C.2            1 <1>                0.0000
      6 C6          27.6184  36.3672  41.5051 C.2            1 <1>                0.0000
      7 S7          29.1042  36.7220  40.7452 S.3            1 <1>                0.0000
      8 H8          28.4030  37.3130  37.0616 H              1 <1>                0.0000
      9 H9          26.2522  36.8462  38.5375 H              1 <1>                0.0000
     10 H10         25.5817  36.2319  40.9148 H              1 <1>                0.0000
     11 H11         27.5096  36.1213  42.5511 H              1 <1>                0.0000
@<TRIPOS>BOND
    1    1    2 2     
    2    2    3 1     
    3    2    8 1     
    4    3    4 2     
    5    3    7 1     
    6    4    5 1     
    7    4    9 1     
    8    5    6 2     
    9    5   10 1     
   10    6    7 1     
   11    6   11 1     
@<TRIPOS>SUBSTRUCTURE
      1 ****           1
@<TRIPOS>COMMENT
> <Gold.Version>
2022.2.0

> <Gold.Id.Protein>
1qkm|1qkm_protein|mol2

> <Gold.Protein.RotatedTorsions>
[  496  491  490  487 ] final  178.37 input  -89.99 | X-H torsion

> <Gold.Protein.ActiveResidues>
 MET295  LEU298  THR299  LEU301  ALA302  GLU305  TRP335  MET336  LEU339  MET340 
 GLY342  LEU343  ARG346  PHE356  ILE373  ILE376  PHE377  LEU380  LYS471  GLY472 
 MET473  HIS475  LEU476  LEU477  ASN478  MET479  VAL484  VAL487 

> <Gold.Protein.RotatedAtoms>
   37.3185   33.4386   40.8811 H   0  0  0  0  0  0  0  0  0  0  0  0  # atno 496  bound_to 491 

> <Gold.Score>
     Score     S(PLP)   S(hbond)     S(cho)   S(metal)  DE(clash)   DE(tors)     intcor
     28.45     -25.49       0.00       1.00       0.00       0.00       0.02       0.00

> <Gold.PLP.Fitness>
28.4517

> <Gold.PLP.PLP>
-25.4865

> <Gold.PLP.part.hbond>
0.0000

> <Gold.PLP.part.metal>
0.0000

> <Gold.PLP.part.buried>
-1.8130

> <Gold.PLP.part.nonpolar>
-23.8060

> <Gold.PLP.part.repulsive>
0.0000

> <Gold.PLP.ligand.clash>
0.0000

> <Gold.PLP.ligand.torsion>
0.0174

> <Gold.PLP.Chemscore.Hbond>
0.0000

> <Gold.PLP.Chemscore.CHOScore>
1.0000

> <Gold.PLP.Chemscore.Metal>
0.0000

> <Gold.Chemscore.Hbonds>
donor molecule, donor type, donor heavy atom, donor atom, acceptor molecule, acceptor atom, score
      L1  C     6    11       P1   582  1.00

> <Gold.PLP.Chemscore.Internal.Correction>
0.0000

