#       Name:                EN300-18990_i001
#       Creating user name   aseyller
#       Creation time:       Fri Apr 21 16:30:39 2023


#       File generated by GOLD software.
#

@<TRIPOS>MOLECULE
EN300-18990_i001|benzaldehydes|mol2|30|dock7
    11    11     1
SMALL
USER_CHARGES


@<TRIPOS>ATOM
      1 O1          30.1872  36.8641  38.4761 O.2            1 <1>                0.0000
      2 C2          29.0819  37.2854  38.2007 C.2            1 <1>                0.0000
      3 C3          27.9826  36.9818  39.0338 C.2            1 <1>                0.0000
      4 C4          28.0339  36.2209  40.1742 C.2            1 <1>                0.0000
      5 C5          26.8156  36.0862  40.7904 C.2            1 <1>                0.0000
      6 C6          25.7978  36.7115  40.1828 C.2            1 <1>                0.0000
      7 S7          26.3295  37.5245  38.7803 S.3            1 <1>                0.0000
      8 H8          28.9404  37.8959  37.3211 H              1 <1>                0.0000
      9 H9          28.9421  35.7725  40.5489 H              1 <1>                0.0000
     10 H10         26.6860  35.5172  41.6993 H              1 <1>                0.0000
     11 H11         24.7774  36.7054  40.5366 H              1 <1>                0.0000
@<TRIPOS>BOND
    1    1    2 2     
    2    2    3 1     
    3    2    8 1     
    4    3    4 2     
    5    3    7 1     
    6    4    5 1     
    7    4    9 1     
    8    5    6 2     
    9    5   10 1     
   10    6    7 1     
   11    6   11 1     
@<TRIPOS>SUBSTRUCTURE
      1 ****           1
@<TRIPOS>COMMENT
> <Gold.Version>
2022.2.0

> <Gold.Id.Protein>
1qkm|1qkm_protein|mol2

> <Gold.Protein.RotatedTorsions>
[  496  491  490  487 ] final    4.47 input  -89.99 | X-H torsion

> <Gold.Protein.ActiveResidues>
 MET295  LEU298  THR299  LEU301  ALA302  GLU305  TRP335  MET336  LEU339  MET340 
 GLY342  LEU343  ARG346  PHE356  ILE373  ILE376  PHE377  LEU380  LYS471  GLY472 
 MET473  HIS475  LEU476  LEU477  ASN478  MET479  VAL484  VAL487 

> <Gold.Protein.RotatedAtoms>
   36.2638   34.1489   42.2708 H   0  0  0  0  0  0  0  0  0  0  0  0  # atno 496  bound_to 491 

> <Gold.Score>
     Score     S(PLP)   S(hbond)     S(cho)   S(metal)  DE(clash)   DE(tors)     intcor
     28.89     -25.89       0.00       1.00       0.00       0.00       0.00       0.00

> <Gold.PLP.Fitness>
28.8851

> <Gold.PLP.PLP>
-25.8851

> <Gold.PLP.part.hbond>
0.0000

> <Gold.PLP.part.metal>
0.0000

> <Gold.PLP.part.buried>
-2.1479

> <Gold.PLP.part.nonpolar>
-24.0591

> <Gold.PLP.part.repulsive>
0.0343

> <Gold.PLP.ligand.clash>
0.0000

> <Gold.PLP.ligand.torsion>
0.0000

> <Gold.PLP.Chemscore.Hbond>
0.0000

> <Gold.PLP.Chemscore.CHOScore>
1.0000

> <Gold.PLP.Chemscore.Metal>
0.0000

> <Gold.Chemscore.Hbonds>
donor molecule, donor type, donor heavy atom, donor atom, acceptor molecule, acceptor atom, score
      L1  C     6    11       P1  1131  1.00

> <Gold.PLP.Chemscore.Internal.Correction>
0.0000

