#       Name:                EN300-18990_i001
#       Creating user name   aseyller
#       Creation time:       Fri Apr 21 16:30:43 2023


#       File generated by GOLD software.
#

@<TRIPOS>MOLECULE
EN300-18990_i001|benzaldehydes|mol2|30|dock20
    11    11     1
SMALL
USER_CHARGES


@<TRIPOS>ATOM
      1 O1          28.4259  38.4189  37.1732 O.2            1 <1>                0.0000
      2 C2          27.6067  37.6573  37.6462 C.2            1 <1>                0.0000
      3 C3          27.8764  36.9988  38.8662 C.2            1 <1>                0.0000
      4 C4          26.9660  36.2862  39.6048 C.2            1 <1>                0.0000
      5 C5          27.4987  35.7500  40.7497 C.2            1 <1>                0.0000
      6 C6          28.7983  36.0096  40.9491 C.2            1 <1>                0.0000
      7 S7          29.4350  36.9542  39.6790 S.3            1 <1>                0.0000
      8 H8          26.6700  37.4869  37.1363 H              1 <1>                0.0000
      9 H9          25.9335  36.1603  39.3142 H              1 <1>                0.0000
     10 H10         26.9130  35.1616  41.4406 H              1 <1>                0.0000
     11 H11         29.3681  35.6628  41.7985 H              1 <1>                0.0000
@<TRIPOS>BOND
    1    1    2 2     
    2    2    3 1     
    3    2    8 1     
    4    3    4 2     
    5    3    7 1     
    6    4    5 1     
    7    4    9 1     
    8    5    6 2     
    9    5   10 1     
   10    6    7 1     
   11    6   11 1     
@<TRIPOS>SUBSTRUCTURE
      1 ****           1
@<TRIPOS>COMMENT
> <Gold.Version>
2022.2.0

> <Gold.Id.Protein>
1qkm|1qkm_protein|mol2

> <Gold.Protein.RotatedTorsions>
[  496  491  490  487 ] final  -14.50 input  -89.99 | X-H torsion

> <Gold.Protein.ActiveResidues>
 MET295  LEU298  THR299  LEU301  ALA302  GLU305  TRP335  MET336  LEU339  MET340 
 GLY342  LEU343  ARG346  PHE356  ILE373  ILE376  PHE377  LEU380  LYS471  GLY472 
 MET473  HIS475  LEU476  LEU477  ASN478  MET479  VAL484  VAL487 

> <Gold.Protein.RotatedAtoms>
   36.2687   34.4058   42.0960 H   0  0  0  0  0  0  0  0  0  0  0  0  # atno 496  bound_to 491 

> <Gold.Score>
     Score     S(PLP)   S(hbond)     S(cho)   S(metal)  DE(clash)   DE(tors)     intcor
     28.23     -25.28       0.00       1.00       0.00       0.00       0.03       0.00

> <Gold.PLP.Fitness>
28.2299

> <Gold.PLP.PLP>
-25.2831

> <Gold.PLP.part.hbond>
0.0000

> <Gold.PLP.part.metal>
0.0000

> <Gold.PLP.part.buried>
-1.8221

> <Gold.PLP.part.nonpolar>
-23.8301

> <Gold.PLP.part.repulsive>
0.0000

> <Gold.PLP.ligand.clash>
0.0000

> <Gold.PLP.ligand.torsion>
0.0266

> <Gold.PLP.Chemscore.Hbond>
0.0000

> <Gold.PLP.Chemscore.CHOScore>
1.0000

> <Gold.PLP.Chemscore.Metal>
0.0000

> <Gold.Chemscore.Hbonds>
donor molecule, donor type, donor heavy atom, donor atom, acceptor molecule, acceptor atom, score
      L1  C     6    11       P1   470  1.00

> <Gold.PLP.Chemscore.Internal.Correction>
0.0000

