#       Name:                EN300-18990_i001
#       Creating user name   aseyller
#       Creation time:       Fri Apr 21 16:30:40 2023


#       File generated by GOLD software.
#

@<TRIPOS>MOLECULE
EN300-18990_i001|benzaldehydes|mol2|30|dock8
    11    11     1
SMALL
USER_CHARGES


@<TRIPOS>ATOM
      1 O1          27.7923  37.9301  37.5372 O.2            1 <1>                0.0000
      2 C2          26.9987  37.2884  38.1955 C.2            1 <1>                0.0000
      3 C3          27.3118  36.9285  39.5249 C.2            1 <1>                0.0000
      4 C4          28.5737  36.6993  40.0117 C.2            1 <1>                0.0000
      5 C5          28.5883  36.3645  41.3420 C.2            1 <1>                0.0000
      6 C6          27.3854  36.3190  41.9311 C.2            1 <1>                0.0000
      7 S7          26.1474  36.7095  40.8240 S.3            1 <1>                0.0000
      8 H8          26.0517  36.9968  37.7659 H              1 <1>                0.0000
      9 H9          29.4661  36.7746  39.4081 H              1 <1>                0.0000
     10 H10         29.5029  36.1527  41.8760 H              1 <1>                0.0000
     11 H11         27.2218  36.0724  42.9698 H              1 <1>                0.0000
@<TRIPOS>BOND
    1    1    2 2     
    2    2    3 1     
    3    2    8 1     
    4    3    4 2     
    5    3    7 1     
    6    4    5 1     
    7    4    9 1     
    8    5    6 2     
    9    5   10 1     
   10    6    7 1     
   11    6   11 1     
@<TRIPOS>SUBSTRUCTURE
      1 ****           1
@<TRIPOS>COMMENT
> <Gold.Version>
2022.2.0

> <Gold.Id.Protein>
1qkm|1qkm_protein|mol2

> <Gold.Protein.RotatedTorsions>
[  496  491  490  487 ] final  165.89 input  -89.99 | X-H torsion

> <Gold.Protein.ActiveResidues>
 MET295  LEU298  THR299  LEU301  ALA302  GLU305  TRP335  MET336  LEU339  MET340 
 GLY342  LEU343  ARG346  PHE356  ILE373  ILE376  PHE377  LEU380  LYS471  GLY472 
 MET473  HIS475  LEU476  LEU477  ASN478  MET479  VAL484  VAL487 

> <Gold.Protein.RotatedAtoms>
   37.3096   33.2742   41.0032 H   0  0  0  0  0  0  0  0  0  0  0  0  # atno 496  bound_to 491 

> <Gold.Score>
     Score     S(PLP)   S(hbond)     S(cho)   S(metal)  DE(clash)   DE(tors)     intcor
     28.39     -25.78       0.00       0.99       0.00       0.00       0.19       0.00

> <Gold.PLP.Fitness>
28.3915

> <Gold.PLP.PLP>
-25.7847

> <Gold.PLP.part.hbond>
0.0000

> <Gold.PLP.part.metal>
0.0000

> <Gold.PLP.part.buried>
0.1597

> <Gold.PLP.part.nonpolar>
-26.1222

> <Gold.PLP.part.repulsive>
0.0000

> <Gold.PLP.ligand.clash>
0.0000

> <Gold.PLP.ligand.torsion>
0.1881

> <Gold.PLP.Chemscore.Hbond>
0.0000

> <Gold.PLP.Chemscore.CHOScore>
0.9944

> <Gold.PLP.Chemscore.Metal>
0.0000

> <Gold.Chemscore.Hbonds>
donor molecule, donor type, donor heavy atom, donor atom, acceptor molecule, acceptor atom, score
      L1  C     6    11       P1   582  0.99

> <Gold.PLP.Chemscore.Internal.Correction>
0.0000

