#       Name:                EN300-18990_i001
#       Creating user name   aseyller
#       Creation time:       Fri Apr 21 16:30:38 2023


#       File generated by GOLD software.
#

@<TRIPOS>MOLECULE
EN300-18990_i001|benzaldehydes|mol2|30|dock1
    11    11     1
SMALL
USER_CHARGES


@<TRIPOS>ATOM
      1 O1          25.1671  37.0187  41.8679 O.2            1 <1>                0.0000
      2 C2          25.4987  37.0090  40.6996 C.2            1 <1>                0.0000
      3 C3          26.8497  36.7904  40.3508 C.2            1 <1>                0.0000
      4 C4          27.3666  36.8643  39.0822 C.2            1 <1>                0.0000
      5 C5          28.7129  36.6054  39.0301 C.2            1 <1>                0.0000
      6 C6          29.2856  36.3285  40.2097 C.2            1 <1>                0.0000
      7 S7          28.1412  36.3870  41.4737 S.3            1 <1>                0.0000
      8 H8          24.7597  37.1630  39.9272 H              1 <1>                0.0000
      9 H9          26.7732  37.1021  38.2117 H              1 <1>                0.0000
     10 H10         29.2708  36.6232  38.1055 H              1 <1>                0.0000
     11 H11         30.3334  36.1029  40.3430 H              1 <1>                0.0000
@<TRIPOS>BOND
    1    1    2 2     
    2    2    3 1     
    3    2    8 1     
    4    3    4 2     
    5    3    7 1     
    6    4    5 1     
    7    4    9 1     
    8    5    6 2     
    9    5   10 1     
   10    6    7 1     
   11    6   11 1     
@<TRIPOS>SUBSTRUCTURE
      1 ****           1
@<TRIPOS>COMMENT
> <Gold.Version>
2022.2.0

> <Gold.Id.Protein>
1qkm|1qkm_protein|mol2

> <Gold.Protein.RotatedTorsions>
[  496  491  490  487 ] final  169.86 input  -89.99 | X-H torsion

> <Gold.Protein.ActiveResidues>
 MET295  LEU298  THR299  LEU301  ALA302  GLU305  TRP335  MET336  LEU339  MET340 
 GLY342  LEU343  ARG346  PHE356  ILE373  ILE376  PHE377  LEU380  LYS471  GLY472 
 MET473  HIS475  LEU476  LEU477  ASN478  MET479  VAL484  VAL487 

> <Gold.Protein.RotatedAtoms>
   37.3151   33.3239   40.9613 H   0  0  0  0  0  0  0  0  0  0  0  0  # atno 496  bound_to 491 

> <Gold.Score>
     Score     S(PLP)   S(hbond)     S(cho)   S(metal)  DE(clash)   DE(tors)     intcor
     32.07     -27.98       0.37       1.00       0.00       0.00       0.01       0.00

> <Gold.PLP.Fitness>
32.0698

> <Gold.PLP.PLP>
-27.9798

> <Gold.PLP.part.hbond>
-1.0000

> <Gold.PLP.part.metal>
0.0000

> <Gold.PLP.part.buried>
-2.7603

> <Gold.PLP.part.nonpolar>
-25.5008

> <Gold.PLP.part.repulsive>
0.2758

> <Gold.PLP.ligand.clash>
0.0000

> <Gold.PLP.ligand.torsion>
0.0070

> <Gold.PLP.Chemscore.Hbond>
0.3680

> <Gold.PLP.Chemscore.CHOScore>
1.0000

> <Gold.PLP.Chemscore.Metal>
0.0000

> <Gold.Chemscore.Hbonds>
donor molecule, donor type, donor heavy atom, donor atom, acceptor molecule, acceptor atom, score
      P1  H  1258  1270       L1     1  0.37
      L1  C     6    11       P1   470  1.00

> <Gold.PLP.Chemscore.Internal.Correction>
0.0000

