#       Name:                EN300-18990_i001
#       Creating user name   aseyller
#       Creation time:       Fri Apr 21 16:30:41 2023


#       File generated by GOLD software.
#

@<TRIPOS>MOLECULE
EN300-18990_i001|benzaldehydes|mol2|30|dock14
    11    11     1
SMALL
USER_CHARGES


@<TRIPOS>ATOM
      1 O1          27.3034  37.9724  37.6158 O.2            1 <1>                0.0000
      2 C2          26.5996  37.4804  38.4746 C.2            1 <1>                0.0000
      3 C3          27.1771  36.9956  39.6689 C.2            1 <1>                0.0000
      4 C4          26.4951  36.7102  40.8245 C.2            1 <1>                0.0000
      5 C5          27.3057  36.2532  41.8327 C.2            1 <1>                0.0000
      6 C6          28.6063  36.1646  41.5219 C.2            1 <1>                0.0000
      7 S7          28.8847  36.6537  39.9113 S.3            1 <1>                0.0000
      8 H8          25.5316  37.4176  38.3270 H              1 <1>                0.0000
      9 H9          25.4274  36.8333  40.9302 H              1 <1>                0.0000
     10 H10         26.9234  35.9846  42.8064 H              1 <1>                0.0000
     11 H11         29.3754  35.8242  42.1994 H              1 <1>                0.0000
@<TRIPOS>BOND
    1    1    2 2     
    2    2    3 1     
    3    2    8 1     
    4    3    4 2     
    5    3    7 1     
    6    4    5 1     
    7    4    9 1     
    8    5    6 2     
    9    5   10 1     
   10    6    7 1     
   11    6   11 1     
@<TRIPOS>SUBSTRUCTURE
      1 ****           1
@<TRIPOS>COMMENT
> <Gold.Version>
2022.2.0

> <Gold.Id.Protein>
1qkm|1qkm_protein|mol2

> <Gold.Protein.RotatedTorsions>
[  496  491  490  487 ] final  157.20 input  -89.99 | X-H torsion

> <Gold.Protein.ActiveResidues>
 MET295  LEU298  THR299  LEU301  ALA302  GLU305  TRP335  MET336  LEU339  MET340 
 GLY342  LEU343  ARG346  PHE356  ILE373  ILE376  PHE377  LEU380  LYS471  GLY472 
 MET473  HIS475  LEU476  LEU477  ASN478  MET479  VAL484  VAL487 

> <Gold.Protein.RotatedAtoms>
   37.2887   33.1749   41.1040 H   0  0  0  0  0  0  0  0  0  0  0  0  # atno 496  bound_to 491 

> <Gold.Score>
     Score     S(PLP)   S(hbond)     S(cho)   S(metal)  DE(clash)   DE(tors)     intcor
     28.78     -25.89       0.00       1.00       0.00       0.00       0.06       0.00

> <Gold.PLP.Fitness>
28.7778

> <Gold.PLP.PLP>
-25.8941

> <Gold.PLP.part.hbond>
0.0000

> <Gold.PLP.part.metal>
0.0000

> <Gold.PLP.part.buried>
0.1514

> <Gold.PLP.part.nonpolar>
-26.2620

> <Gold.PLP.part.repulsive>
0.0000

> <Gold.PLP.ligand.clash>
0.0000

> <Gold.PLP.ligand.torsion>
0.0581

> <Gold.PLP.Chemscore.Hbond>
0.0000

> <Gold.PLP.Chemscore.CHOScore>
0.9999

> <Gold.PLP.Chemscore.Metal>
0.0000

> <Gold.Chemscore.Hbonds>
donor molecule, donor type, donor heavy atom, donor atom, acceptor molecule, acceptor atom, score
      L1  C     6    11       P1   470  1.00

> <Gold.PLP.Chemscore.Internal.Correction>
0.0000

