#       Name:                EN300-18990_i001
#       Creating user name   aseyller
#       Creation time:       Fri Apr 21 16:30:42 2023


#       File generated by GOLD software.
#

@<TRIPOS>MOLECULE
EN300-18990_i001|benzaldehydes|mol2|30|dock18
    11    11     1
SMALL
USER_CHARGES


@<TRIPOS>ATOM
      1 O1          24.6529  36.5924  42.0638 O.2            1 <1>                0.0000
      2 C2          25.4690  37.3099  41.5215 C.2            1 <1>                0.0000
      3 C3          26.1843  36.8421  40.3972 C.2            1 <1>                0.0000
      4 C4          26.9911  35.7327  40.3718 C.2            1 <1>                0.0000
      5 C5          27.5651  35.5087  39.1460 C.2            1 <1>                0.0000
      6 C6          27.2449  36.3982  38.1961 C.2            1 <1>                0.0000
      7 S7          26.1781  37.5833  38.8028 S.3            1 <1>                0.0000
      8 H8          25.6446  38.3075  41.8964 H              1 <1>                0.0000
      9 H9          27.1579  35.0996  41.2307 H              1 <1>                0.0000
     10 H10         28.2273  34.6760  38.9601 H              1 <1>                0.0000
     11 H11         27.6100  36.3663  37.1801 H              1 <1>                0.0000
@<TRIPOS>BOND
    1    1    2 2     
    2    2    3 1     
    3    2    8 1     
    4    3    4 2     
    5    3    7 1     
    6    4    5 1     
    7    4    9 1     
    8    5    6 2     
    9    5   10 1     
   10    6    7 1     
   11    6   11 1     
@<TRIPOS>SUBSTRUCTURE
      1 ****           1
@<TRIPOS>COMMENT
> <Gold.Version>
2022.2.0

> <Gold.Id.Protein>
1qkm|1qkm_protein|mol2

> <Gold.Protein.RotatedTorsions>
[  496  491  490  487 ] final   44.21 input  -89.99 | X-H torsion

> <Gold.Protein.ActiveResidues>
 MET295  LEU298  THR299  LEU301  ALA302  GLU305  TRP335  MET336  LEU339  MET340 
 GLY342  LEU343  ARG346  PHE356  ILE373  ILE376  PHE377  LEU380  LYS471  GLY472 
 MET473  HIS475  LEU476  LEU477  ASN478  MET479  VAL484  VAL487 

> <Gold.Protein.RotatedAtoms>
   36.4315   33.5384   42.3717 H   0  0  0  0  0  0  0  0  0  0  0  0  # atno 496  bound_to 491 

> <Gold.Score>
     Score     S(PLP)   S(hbond)     S(cho)   S(metal)  DE(clash)   DE(tors)     intcor
     29.56     -28.55       0.70       0.00       0.00       0.00       0.55       0.00

> <Gold.PLP.Fitness>
29.5591

> <Gold.PLP.PLP>
-28.5481

> <Gold.PLP.part.hbond>
-0.3852

> <Gold.PLP.part.metal>
0.0000

> <Gold.PLP.part.buried>
-1.1104

> <Gold.PLP.part.nonpolar>
-28.3920

> <Gold.PLP.part.repulsive>
1.1358

> <Gold.PLP.ligand.clash>
0.0000

> <Gold.PLP.ligand.torsion>
0.5505

> <Gold.PLP.Chemscore.Hbond>
0.7040

> <Gold.PLP.Chemscore.CHOScore>
0.0000

> <Gold.PLP.Chemscore.Metal>
0.0000

> <Gold.Chemscore.Hbonds>
donor molecule, donor type, donor heavy atom, donor atom, acceptor molecule, acceptor atom, score
      P1  H  1258  1270       L1     1  0.70

> <Gold.PLP.Chemscore.Internal.Correction>
0.0000

