#       Name:                EN300-18990_i001
#       Creating user name   aseyller
#       Creation time:       Fri Apr 21 16:30:39 2023


#       File generated by GOLD software.
#

@<TRIPOS>MOLECULE
EN300-18990_i001|benzaldehydes|mol2|30|dock6
    11    11     1
SMALL
USER_CHARGES


@<TRIPOS>ATOM
      1 O1          25.2375  37.2862  42.0825 O.2            1 <1>                0.0000
      2 C2          25.4988  37.0628  40.9178 C.2            1 <1>                0.0000
      3 C3          26.7459  36.4988  40.5694 C.2            1 <1>                0.0000
      4 C4          27.8392  36.4129  41.3937 C.2            1 <1>                0.0000
      5 C5          28.9214  35.8171  40.7972 C.2            1 <1>                0.0000
      6 C6          28.7296  35.4260  39.5298 C.2            1 <1>                0.0000
      7 S7          27.1445  35.7868  39.0119 S.3            1 <1>                0.0000
      8 H8          24.7757  37.2912  40.1487 H              1 <1>                0.0000
      9 H9          27.8471  36.7782  42.4100 H              1 <1>                0.0000
     10 H10         29.8603  35.6738  41.3116 H              1 <1>                0.0000
     11 H11         29.4775  34.9424  38.9189 H              1 <1>                0.0000
@<TRIPOS>BOND
    1    1    2 2     
    2    2    3 1     
    3    2    8 1     
    4    3    4 2     
    5    3    7 1     
    6    4    5 1     
    7    4    9 1     
    8    5    6 2     
    9    5   10 1     
   10    6    7 1     
   11    6   11 1     
@<TRIPOS>SUBSTRUCTURE
      1 ****           1
@<TRIPOS>COMMENT
> <Gold.Version>
2022.2.0

> <Gold.Id.Protein>
1qkm|1qkm_protein|mol2

> <Gold.Protein.RotatedTorsions>
[  496  491  490  487 ] final   69.75 input  -89.99 | X-H torsion

> <Gold.Protein.ActiveResidues>
 MET295  LEU298  THR299  LEU301  ALA302  GLU305  TRP335  MET336  LEU339  MET340 
 GLY342  LEU343  ARG346  PHE356  ILE373  ILE376  PHE377  LEU380  LYS471  GLY472 
 MET473  HIS475  LEU476  LEU477  ASN478  MET479  VAL484  VAL487 

> <Gold.Protein.RotatedAtoms>
   36.6352   33.2025   42.2318 H   0  0  0  0  0  0  0  0  0  0  0  0  # atno 496  bound_to 491 

> <Gold.Score>
     Score     S(PLP)   S(hbond)     S(cho)   S(metal)  DE(clash)   DE(tors)     intcor
     29.85     -29.41       0.18       0.00       0.00       0.00       0.05       0.00

> <Gold.PLP.Fitness>
29.8453

> <Gold.PLP.PLP>
-29.4095

> <Gold.PLP.part.hbond>
-0.6933

> <Gold.PLP.part.metal>
0.0000

> <Gold.PLP.part.buried>
-2.8869

> <Gold.PLP.part.nonpolar>
-26.8050

> <Gold.PLP.part.repulsive>
0.2698

> <Gold.PLP.ligand.clash>
0.0000

> <Gold.PLP.ligand.torsion>
0.0461

> <Gold.PLP.Chemscore.Hbond>
0.1760

> <Gold.PLP.Chemscore.CHOScore>
0.0000

> <Gold.PLP.Chemscore.Metal>
0.0000

> <Gold.Chemscore.Hbonds>
donor molecule, donor type, donor heavy atom, donor atom, acceptor molecule, acceptor atom, score
      P1  H  1258  1270       L1     1  0.18

> <Gold.PLP.Chemscore.Internal.Correction>
0.0000

