#       Name:                EN300-18990_i001
#       Creating user name   aseyller
#       Creation time:       Fri Apr 21 16:30:41 2023


#       File generated by GOLD software.
#

@<TRIPOS>MOLECULE
EN300-18990_i001|benzaldehydes|mol2|30|dock13
    11    11     1
SMALL
USER_CHARGES


@<TRIPOS>ATOM
      1 O1          24.8945  37.0311  41.8129 O.2            1 <1>                0.0000
      2 C2          25.5794  36.2454  41.1898 C.2            1 <1>                0.0000
      3 C3          26.1733  36.6387  39.9702 C.2            1 <1>                0.0000
      4 C4          25.8223  37.7408  39.2325 C.2            1 <1>                0.0000
      5 C5          26.5646  37.8849  38.0878 C.2            1 <1>                0.0000
      6 C6          27.4926  36.9388  37.8879 C.2            1 <1>                0.0000
      7 S7          27.4866  35.7987  39.1571 S.3            1 <1>                0.0000
      8 H8          25.7382  35.2472  41.5705 H              1 <1>                0.0000
      9 H9          25.0398  38.4259  39.5235 H              1 <1>                0.0000
     10 H10         26.4121  38.7015  37.3976 H              1 <1>                0.0000
     11 H11         28.1589  36.9053  37.0385 H              1 <1>                0.0000
@<TRIPOS>BOND
    1    1    2 2     
    2    2    3 1     
    3    2    8 1     
    4    3    4 2     
    5    3    7 1     
    6    4    5 1     
    7    4    9 1     
    8    5    6 2     
    9    5   10 1     
   10    6    7 1     
   11    6   11 1     
@<TRIPOS>SUBSTRUCTURE
      1 ****           1
@<TRIPOS>COMMENT
> <Gold.Version>
2022.2.0

> <Gold.Id.Protein>
1qkm|1qkm_protein|mol2

> <Gold.Protein.RotatedTorsions>
[  496  491  490  487 ] final   56.77 input  -89.99 | X-H torsion

> <Gold.Protein.ActiveResidues>
 MET295  LEU298  THR299  LEU301  ALA302  GLU305  TRP335  MET336  LEU339  MET340 
 GLY342  LEU343  ARG346  PHE356  ILE373  ILE376  PHE377  LEU380  LYS471  GLY472 
 MET473  HIS475  LEU476  LEU477  ASN478  MET479  VAL484  VAL487 

> <Gold.Protein.RotatedAtoms>
   36.5252   33.3613   42.3219 H   0  0  0  0  0  0  0  0  0  0  0  0  # atno 496  bound_to 491 

> <Gold.Score>
     Score     S(PLP)   S(hbond)     S(cho)   S(metal)  DE(clash)   DE(tors)     intcor
     28.53     -27.40       0.42       0.00       0.00       0.00       0.06       0.00

> <Gold.PLP.Fitness>
28.5319

> <Gold.PLP.PLP>
-27.3972

> <Gold.PLP.part.hbond>
-0.7627

> <Gold.PLP.part.metal>
0.0000

> <Gold.PLP.part.buried>
-1.8085

> <Gold.PLP.part.nonpolar>
-25.4640

> <Gold.PLP.part.repulsive>
0.2790

> <Gold.PLP.ligand.clash>
0.0000

> <Gold.PLP.ligand.torsion>
0.0567

> <Gold.PLP.Chemscore.Hbond>
0.4160

> <Gold.PLP.Chemscore.CHOScore>
0.0000

> <Gold.PLP.Chemscore.Metal>
0.0000

> <Gold.Chemscore.Hbonds>
donor molecule, donor type, donor heavy atom, donor atom, acceptor molecule, acceptor atom, score
      P1  H  1258  1270       L1     1  0.42

> <Gold.PLP.Chemscore.Internal.Correction>
0.0000

