#       Name:                EN300-18990_i001
#       Creating user name   aseyller
#       Creation time:       Fri Apr 21 16:30:43 2023


#       File generated by GOLD software.
#

@<TRIPOS>MOLECULE
EN300-18990_i001|benzaldehydes|mol2|30|dock19
    11    11     1
SMALL
USER_CHARGES


@<TRIPOS>ATOM
      1 O1          31.2514  34.9159  38.3006 O.2            1 <1>                0.0000
      2 C2          32.2490  34.9523  37.6090 C.2            1 <1>                0.0000
      3 C3          32.3597  35.9124  36.5791 C.2            1 <1>                0.0000
      4 C4          31.4120  36.8519  36.2610 C.2            1 <1>                0.0000
      5 C5          31.7801  37.6596  35.2149 C.2            1 <1>                0.0000
      6 C6          32.9849  37.3976  34.6896 C.2            1 <1>                0.0000
      7 S7          33.7377  36.1007  35.5033 S.3            1 <1>                0.0000
      8 H8          33.0534  34.2533  37.7844 H              1 <1>                0.0000
      9 H9          30.4704  36.9459  36.7815 H              1 <1>                0.0000
     10 H10         31.1449  38.4493  34.8416 H              1 <1>                0.0000
     11 H11         33.4230  37.9386  33.8639 H              1 <1>                0.0000
@<TRIPOS>BOND
    1    1    2 2     
    2    2    3 1     
    3    2    8 1     
    4    3    4 2     
    5    3    7 1     
    6    4    5 1     
    7    4    9 1     
    8    5    6 2     
    9    5   10 1     
   10    6    7 1     
   11    6   11 1     
@<TRIPOS>SUBSTRUCTURE
      1 ****           1
@<TRIPOS>COMMENT
> <Gold.Version>
2022.2.0

> <Gold.Id.Protein>
1qkm|1qkm_protein|mol2

> <Gold.Protein.RotatedTorsions>
[  496  491  490  487 ] final  152.73 input  -89.99 | X-H torsion

> <Gold.Protein.ActiveResidues>
 MET295  LEU298  THR299  LEU301  ALA302  GLU305  TRP335  MET336  LEU339  MET340 
 GLY342  LEU343  ARG346  PHE356  ILE373  ILE376  PHE377  LEU380  LYS471  GLY472 
 MET473  HIS475  LEU476  LEU477  ASN478  MET479  VAL484  VAL487 

> <Gold.Protein.RotatedAtoms>
   37.2735   33.1297   41.1600 H   0  0  0  0  0  0  0  0  0  0  0  0  # atno 496  bound_to 491 

> <Gold.Score>
     Score     S(PLP)   S(hbond)     S(cho)   S(metal)  DE(clash)   DE(tors)     intcor
     27.22     -24.22       0.00       1.00       0.00       0.00       0.00       0.00

> <Gold.PLP.Fitness>
27.2235

> <Gold.PLP.PLP>
-24.2235

> <Gold.PLP.part.hbond>
0.0000

> <Gold.PLP.part.metal>
0.0000

> <Gold.PLP.part.buried>
-1.9043

> <Gold.PLP.part.nonpolar>
-22.6758

> <Gold.PLP.part.repulsive>
0.0624

> <Gold.PLP.ligand.clash>
0.0000

> <Gold.PLP.ligand.torsion>
0.0000

> <Gold.PLP.Chemscore.Hbond>
0.0000

> <Gold.PLP.Chemscore.CHOScore>
1.0000

> <Gold.PLP.Chemscore.Metal>
0.0000

> <Gold.Chemscore.Hbonds>
donor molecule, donor type, donor heavy atom, donor atom, acceptor molecule, acceptor atom, score
      L1  C     6    11       P1  3229  1.00

> <Gold.PLP.Chemscore.Internal.Correction>
0.0000

