#       Name:                plp ligand
#       Creating user name   aseyller
#       Creation time:       Fri Apr 21 16:30:38 2023


#       File generated by GOLD software.
#

@<TRIPOS>MOLECULE
plp ligand
    11    11     1
SMALL
USER_CHARGES


@<TRIPOS>ATOM
      1 O1          -2.8954  -0.8565  -0.0016 ACCEPTOR       1 <1>                0.0000
      2 C2          -2.1299   0.0863   0.0009 NONPOLAR       1 <1>                0.0000
      3 C3          -0.7352  -0.1364  -0.0003 NONPOLAR       1 <1>                0.0000
      4 C4           0.2273   0.8412   0.0022 NONPOLAR       1 <1>                0.0000
      5 C5           1.5054   0.3426   0.0002 NONPOLAR       1 <1>                0.0000
      6 C6           1.5951  -0.9946  -0.0037 NONPOLAR       1 <1>                0.0000
      7 S7           0.0468  -1.7112   0.0024 NONPOLAR       1 <1>                0.0000
      8 H8          -2.5156   1.0951  -0.0005                1 <1>                0.0000
      9 H9           0.0015   1.8973   0.0050                1 <1>                0.0000
     10 H10          2.3763   0.9814   0.0014                1 <1>                0.0000
     11 H11          2.5241  -1.5454  -0.0057                1 <1>                0.0000
@<TRIPOS>BOND
    1    1    2 2     
    2    2    3 1     
    3    2    8 1     
    4    3    4 2     
    5    3    7 1     
    6    4    5 1     
    7    4    9 1     
    8    5    6 2     
    9    5   10 1     
   10    6    7 1     
   11    6   11 1     
@<TRIPOS>SUBSTRUCTURE
      1 ****           1
@<TRIPOS>SET
DONOR_HYDROGENS      STATIC     ATOMS    <user>   **** ""
0
ATOM$RED        STATIC     ATOMS    COLORGROUP SYSTEM
0
