#       Name:                EN300-5228289_i001
#       Creating user name   aseyller
#       Creation time:       Fri Apr 21 16:46:58 2023


#       File generated by GOLD software.
#

@<TRIPOS>MOLECULE
EN300-5228289_i001|aminophenols|mol2|122|dock2
    18    18     1
SMALL
USER_CHARGES


@<TRIPOS>ATOM
      1 C1          25.5015  37.5932  39.0910 C.3            1 <1>                0.0000
      2 C2          26.8026  36.9725  39.5299 C.ar           1 <1>                0.0000
      3 C3          27.9022  37.0066  38.6924 C.ar           1 <1>                0.0000
      4 C4          29.0978  36.4385  39.0923 C.ar           1 <1>                0.0000
      5 Br5         30.5976  36.4887  37.9416 Br             1 <1>                0.0000
      6 C6          29.1997  35.8335  40.3329 C.ar           1 <1>                0.0000
      7 C7          28.1028  35.7956  41.1769 C.ar           1 <1>                0.0000
      8 O8          28.2014  35.2019  42.3966 O.3            1 <1>                0.0000
      9 C9          26.8990  36.3722  40.7763 C.ar           1 <1>                0.0000
     10 N10         25.7870  36.3371  41.6262 N.pl3          1 <1>                0.0000
     11 H11         24.9001  36.8472  38.5713 H              1 <1>                0.0000
     12 H12         24.9579  37.9536  39.9644 H              1 <1>                0.0000
     13 H13         25.7050  38.4276  38.4199 H              1 <1>                0.0000
     14 H14         27.8270  37.4777  37.7234 H              1 <1>                0.0000
     15 H15         30.1348  35.3907  40.6425 H              1 <1>                0.0000
     16 H16         27.3540  34.9173  42.7652 H              1 <1>                0.0000
     17 H17         24.9477  36.7329  41.3435 H              1 <1>                0.0000
     18 H18         25.8557  35.9170  42.4978 H              1 <1>                0.0000
@<TRIPOS>BOND
    1    1    2 1     
    2    1   11 1     
    3    1   12 1     
    4    1   13 1     
    5    2    3 ar    
    6    2    9 ar    
    7    3    4 ar    
    8    3   14 1     
    9    4    5 1     
   10    4    6 ar    
   11    6    7 ar    
   12    6   15 1     
   13    7    8 1     
   14    7    9 ar    
   15    8   16 1     
   16    9   10 1     
   17   10   17 1     
   18   10   18 1     
@<TRIPOS>SUBSTRUCTURE
      1 ****           1
@<TRIPOS>SET
DONOR_HYDROGENS      STATIC     ATOMS    <user>   **** ""
3 16 17 18
ATOM$RED        STATIC     ATOMS    COLORGROUP SYSTEM
3 16 17 18
@<TRIPOS>COMMENT
> <Gold.Version>
2022.2.0

> <Gold.Id.Protein>
1qkm|1qkm_protein|mol2

> <Gold.Protein.RotatedTorsions>
[  496  491  490  487 ] final  -82.28 input  -89.99 | X-H torsion

> <Gold.Protein.ActiveResidues>
 MET295  LEU298  THR299  LEU301  ALA302  GLU305  TRP335  MET336  LEU339  MET340 
 GLY342  LEU343  ARG346  PHE356  ILE373  ILE376  PHE377  LEU380  LYS471  GLY472 
 MET473  HIS475  LEU476  LEU477  ASN478  MET479  VAL484  VAL487 

> <Gold.Protein.RotatedAtoms>
   36.6865   34.6964   41.1755 H   0  0  0  0  0  0  0  0  0  0  0  0  # atno 496  bound_to 491 

> <Gold.Score>
     Score     S(PLP)   S(hbond)     S(cho)   S(metal)  DE(clash)   DE(tors)     intcor
     42.28     -36.28       2.00       0.00       0.00       0.00       0.00       0.00

> <Gold.PLP.Fitness>
42.2782

> <Gold.PLP.PLP>
-36.2782

> <Gold.PLP.part.hbond>
-2.9845

> <Gold.PLP.part.metal>
0.0000

> <Gold.PLP.part.buried>
-2.1058

> <Gold.PLP.part.nonpolar>
-31.0333

> <Gold.PLP.part.repulsive>
0.0825

> <Gold.PLP.ligand.clash>
0.0000

> <Gold.PLP.ligand.torsion>
0.0000

> <Gold.PLP.Chemscore.Hbond>
2.0000

> <Gold.PLP.Chemscore.CHOScore>
0.0000

> <Gold.PLP.Chemscore.Metal>
0.0000

> <Gold.Chemscore.Hbonds>
donor molecule, donor type, donor heavy atom, donor atom, acceptor molecule, acceptor atom, score
      L1  H     8    16       P1   582  1.00
      L1  H    10    18       P1   582  1.00

> <Gold.PLP.Chemscore.Internal.Correction>
0.0000

