#       Name:                EN300-5228289_i001
#       Creating user name   aseyller
#       Creation time:       Fri Apr 21 16:47:01 2023


#       File generated by GOLD software.
#

@<TRIPOS>MOLECULE
EN300-5228289_i001|aminophenols|mol2|122|dock12
    18    18     1
SMALL
USER_CHARGES


@<TRIPOS>ATOM
      1 C1          29.6984  36.8616  37.0879 C.3            1 <1>                0.0000
      2 C2          28.9232  36.7223  38.3726 C.ar           1 <1>                0.0000
      3 C3          27.6090  37.1470  38.4367 C.ar           1 <1>                0.0000
      4 C4          26.8947  37.0201  39.6139 C.ar           1 <1>                0.0000
      5 Br5         25.0976  37.6032  39.6943 Br             1 <1>                0.0000
      6 C6          27.4916  36.4670  40.7333 C.ar           1 <1>                0.0000
      7 C7          28.8073  36.0394  40.6766 C.ar           1 <1>                0.0000
      8 O8          29.3951  35.4952  41.7757 O.3            1 <1>                0.0000
      9 C9          29.5261  36.1627  39.4891 C.ar           1 <1>                0.0000
     10 N10         30.8566  35.7314  39.4262 N.pl3          1 <1>                0.0000
     11 H11         30.2013  37.8285  37.0700 H              1 <1>                0.0000
     12 H12         30.4399  36.0653  37.0226 H              1 <1>                0.0000
     13 H13         29.0150  36.7918  36.2416 H              1 <1>                0.0000
     14 H14         27.1394  37.5793  37.5654 H              1 <1>                0.0000
     15 H15         26.9312  36.3691  41.6513 H              1 <1>                0.0000
     16 H16         30.3464  35.6585  41.8345 H              1 <1>                0.0000
     17 H17         31.3579  35.8239  38.6010 H              1 <1>                0.0000
     18 H18         31.2771  35.3401  40.2078 H              1 <1>                0.0000
@<TRIPOS>BOND
    1    1    2 1     
    2    1   11 1     
    3    1   12 1     
    4    1   13 1     
    5    2    3 ar    
    6    2    9 ar    
    7    3    4 ar    
    8    3   14 1     
    9    4    5 1     
   10    4    6 ar    
   11    6    7 ar    
   12    6   15 1     
   13    7    8 1     
   14    7    9 ar    
   15    8   16 1     
   16    9   10 1     
   17   10   17 1     
   18   10   18 1     
@<TRIPOS>SUBSTRUCTURE
      1 ****           1
@<TRIPOS>SET
DONOR_HYDROGENS      STATIC     ATOMS    <user>   **** ""
3 16 17 18
ATOM$RED        STATIC     ATOMS    COLORGROUP SYSTEM
3 16 17 18
@<TRIPOS>COMMENT
> <Gold.Version>
2022.2.0

> <Gold.Id.Protein>
1qkm|1qkm_protein|mol2

> <Gold.Protein.RotatedTorsions>
[  496  491  490  487 ] final  -47.56 input  -89.99 | X-H torsion

> <Gold.Protein.ActiveResidues>
 MET295  LEU298  THR299  LEU301  ALA302  GLU305  TRP335  MET336  LEU339  MET340 
 GLY342  LEU343  ARG346  PHE356  ILE373  ILE376  PHE377  LEU380  LYS471  GLY472 
 MET473  HIS475  LEU476  LEU477  ASN478  MET479  VAL484  VAL487 

> <Gold.Protein.RotatedAtoms>
   36.4085   34.6933   41.6649 H   0  0  0  0  0  0  0  0  0  0  0  0  # atno 496  bound_to 491 

> <Gold.Score>
     Score     S(PLP)   S(hbond)     S(cho)   S(metal)  DE(clash)   DE(tors)     intcor
     34.70     -29.30       1.80       0.00       0.00       0.00       0.00       0.00

> <Gold.PLP.Fitness>
34.6969

> <Gold.PLP.PLP>
-29.2969

> <Gold.PLP.part.hbond>
-2.7766

> <Gold.PLP.part.metal>
0.0000

> <Gold.PLP.part.buried>
-0.5557

> <Gold.PLP.part.nonpolar>
-26.1723

> <Gold.PLP.part.repulsive>
0.0596

> <Gold.PLP.ligand.clash>
0.0000

> <Gold.PLP.ligand.torsion>
0.0000

> <Gold.PLP.Chemscore.Hbond>
1.8000

> <Gold.PLP.Chemscore.CHOScore>
0.0000

> <Gold.PLP.Chemscore.Metal>
0.0000

> <Gold.Chemscore.Hbonds>
donor molecule, donor type, donor heavy atom, donor atom, acceptor molecule, acceptor atom, score
      L1  H     8    16       P1   470  1.00
      L1  H    10    18       P1   470  0.80

> <Gold.PLP.Chemscore.Internal.Correction>
0.0000

