#       Name:                EN300-5228289_i001
#       Creating user name   aseyller
#       Creation time:       Fri Apr 21 16:47:00 2023


#       File generated by GOLD software.
#

@<TRIPOS>MOLECULE
EN300-5228289_i001|aminophenols|mol2|122|dock8
    18    18     1
SMALL
USER_CHARGES


@<TRIPOS>ATOM
      1 C1          29.4187  38.6842  37.5844 C.3            1 <1>                0.0000
      2 C2          30.4591  37.5979  37.4933 C.ar           1 <1>                0.0000
      3 C3          31.3768  37.6043  36.4592 C.ar           1 <1>                0.0000
      4 C4          32.3332  36.6092  36.3730 C.ar           1 <1>                0.0000
      5 Br5         33.5851  36.6244  34.9558 Br             1 <1>                0.0000
      6 C6          32.3765  35.6024  37.3215 C.ar           1 <1>                0.0000
      7 C7          31.4608  35.5894  38.3600 C.ar           1 <1>                0.0000
      8 O8          31.5024  34.6009  39.2932 O.3            1 <1>                0.0000
      9 C9          30.4998  36.5947  38.4500 C.ar           1 <1>                0.0000
     10 N10         29.5719  36.5866  39.4982 N.pl3          1 <1>                0.0000
     11 H11         28.5276  38.3810  37.0348 H              1 <1>                0.0000
     12 H12         29.1606  38.8535  38.6298 H              1 <1>                0.0000
     13 H13         29.8152  39.6041  37.1546 H              1 <1>                0.0000
     14 H14         31.3464  38.3882  35.7168 H              1 <1>                0.0000
     15 H15         33.1246  34.8266  37.2517 H              1 <1>                0.0000
     16 H16         31.3879  34.9124  40.2014 H              1 <1>                0.0000
     17 H17         28.8993  37.2832  39.5561 H              1 <1>                0.0000
     18 H18         29.6014  35.8844  40.1668 H              1 <1>                0.0000
@<TRIPOS>BOND
    1    1    2 1     
    2    1   11 1     
    3    1   12 1     
    4    1   13 1     
    5    2    3 ar    
    6    2    9 ar    
    7    3    4 ar    
    8    3   14 1     
    9    4    5 1     
   10    4    6 ar    
   11    6    7 ar    
   12    6   15 1     
   13    7    8 1     
   14    7    9 ar    
   15    8   16 1     
   16    9   10 1     
   17   10   17 1     
   18   10   18 1     
@<TRIPOS>SUBSTRUCTURE
      1 ****           1
@<TRIPOS>SET
DONOR_HYDROGENS      STATIC     ATOMS    <user>   **** ""
3 16 17 18
ATOM$RED        STATIC     ATOMS    COLORGROUP SYSTEM
3 16 17 18
@<TRIPOS>COMMENT
> <Gold.Version>
2022.2.0

> <Gold.Id.Protein>
1qkm|1qkm_protein|mol2

> <Gold.Protein.RotatedTorsions>
[  496  491  490  487 ] final  -65.68 input  -89.99 | X-H torsion

> <Gold.Protein.ActiveResidues>
 MET295  LEU298  THR299  LEU301  ALA302  GLU305  TRP335  MET336  LEU339  MET340 
 GLY342  LEU343  ARG346  PHE356  ILE373  ILE376  PHE377  LEU380  LYS471  GLY472 
 MET473  HIS475  LEU476  LEU477  ASN478  MET479  VAL484  VAL487 

> <Gold.Protein.RotatedAtoms>
   36.5422   34.7358   41.4030 H   0  0  0  0  0  0  0  0  0  0  0  0  # atno 496  bound_to 491 

> <Gold.Score>
     Score     S(PLP)   S(hbond)     S(cho)   S(metal)  DE(clash)   DE(tors)     intcor
     35.18     -32.18       1.00       0.00       0.00       0.00       0.00       0.00

> <Gold.PLP.Fitness>
35.1754

> <Gold.PLP.PLP>
-32.1754

> <Gold.PLP.part.hbond>
-1.0000

> <Gold.PLP.part.metal>
0.0000

> <Gold.PLP.part.buried>
-2.1645

> <Gold.PLP.part.nonpolar>
-28.5900

> <Gold.PLP.part.repulsive>
0.0000

> <Gold.PLP.ligand.clash>
0.0000

> <Gold.PLP.ligand.torsion>
0.0000

> <Gold.PLP.Chemscore.Hbond>
1.0000

> <Gold.PLP.Chemscore.CHOScore>
0.0000

> <Gold.PLP.Chemscore.Metal>
0.0000

> <Gold.Chemscore.Hbonds>
donor molecule, donor type, donor heavy atom, donor atom, acceptor molecule, acceptor atom, score
      L1  H     8    16       P1   470  1.00

> <Gold.PLP.Chemscore.Internal.Correction>
0.0000

