#       Name:                EN300-5228289_i001
#       Creating user name   aseyller
#       Creation time:       Fri Apr 21 16:47:00 2023


#       File generated by GOLD software.
#

@<TRIPOS>MOLECULE
EN300-5228289_i001|aminophenols|mol2|122|dock10
    18    18     1
SMALL
USER_CHARGES


@<TRIPOS>ATOM
      1 C1          30.1759  38.4066  35.3195 C.3            1 <1>                0.0000
      2 C2          31.2741  37.4215  35.6266 C.ar           1 <1>                0.0000
      3 C3          31.0717  36.4326  36.5714 C.ar           1 <1>                0.0000
      4 C4          32.0772  35.5267  36.8552 C.ar           1 <1>                0.0000
      5 Br5         31.7933  34.1769  38.1488 Br             1 <1>                0.0000
      6 C6          33.2907  35.6052  36.1945 C.ar           1 <1>                0.0000
      7 C7          33.5006  36.5928  35.2470 C.ar           1 <1>                0.0000
      8 O8          34.6925  36.6710  34.5965 O.3            1 <1>                0.0000
      9 C9          32.4859  37.5030  34.9572 C.ar           1 <1>                0.0000
     10 N10         32.6928  38.5032  33.9997 N.pl3          1 <1>                0.0000
     11 H11         30.2684  39.2706  35.9775 H              1 <1>                0.0000
     12 H12         30.2574  38.7299  34.2818 H              1 <1>                0.0000
     13 H13         29.2074  37.9319  35.4770 H              1 <1>                0.0000
     14 H14         30.1261  36.3678  37.0894 H              1 <1>                0.0000
     15 H15         34.0742  34.8963  36.4181 H              1 <1>                0.0000
     16 H16         34.7826  37.4517  34.0332 H              1 <1>                0.0000
     17 H17         31.9881  39.1403  33.8037 H              1 <1>                0.0000
     18 H18         33.5409  38.5591  33.5322 H              1 <1>                0.0000
@<TRIPOS>BOND
    1    1    2 1     
    2    1   11 1     
    3    1   12 1     
    4    1   13 1     
    5    2    3 ar    
    6    2    9 ar    
    7    3    4 ar    
    8    3   14 1     
    9    4    5 1     
   10    4    6 ar    
   11    6    7 ar    
   12    6   15 1     
   13    7    8 1     
   14    7    9 ar    
   15    8   16 1     
   16    9   10 1     
   17   10   17 1     
   18   10   18 1     
@<TRIPOS>SUBSTRUCTURE
      1 ****           1
@<TRIPOS>SET
DONOR_HYDROGENS      STATIC     ATOMS    <user>   **** ""
3 16 17 18
ATOM$RED        STATIC     ATOMS    COLORGROUP SYSTEM
3 16 17 18
@<TRIPOS>COMMENT
> <Gold.Version>
2022.2.0

> <Gold.Id.Protein>
1qkm|1qkm_protein|mol2

> <Gold.Protein.RotatedTorsions>
[  496  491  490  487 ] final -155.49 input  -89.99 | X-H torsion

> <Gold.Protein.ActiveResidues>
 MET295  LEU298  THR299  LEU301  ALA302  GLU305  TRP335  MET336  LEU339  MET340 
 GLY342  LEU343  ARG346  PHE356  ILE373  ILE376  PHE377  LEU380  LYS471  GLY472 
 MET473  HIS475  LEU476  LEU477  ASN478  MET479  VAL484  VAL487 

> <Gold.Protein.RotatedAtoms>
   37.2571   33.8339   40.7331 H   0  0  0  0  0  0  0  0  0  0  0  0  # atno 496  bound_to 491 

> <Gold.Score>
     Score     S(PLP)   S(hbond)     S(cho)   S(metal)  DE(clash)   DE(tors)     intcor
     36.25     -31.45       1.60       0.00       0.00       0.00       0.00       0.00

> <Gold.PLP.Fitness>
36.2523

> <Gold.PLP.PLP>
-31.4523

> <Gold.PLP.part.hbond>
-2.3116

> <Gold.PLP.part.metal>
0.0000

> <Gold.PLP.part.buried>
0.2565

> <Gold.PLP.part.nonpolar>
-28.6418

> <Gold.PLP.part.repulsive>
0.0415

> <Gold.PLP.ligand.clash>
0.0000

> <Gold.PLP.ligand.torsion>
0.0000

> <Gold.PLP.Chemscore.Hbond>
1.6000

> <Gold.PLP.Chemscore.CHOScore>
0.0000

> <Gold.PLP.Chemscore.Metal>
0.0000

> <Gold.Chemscore.Hbonds>
donor molecule, donor type, donor heavy atom, donor atom, acceptor molecule, acceptor atom, score
      L1  H     8    16       P1  3229  1.00
      L1  H    10    18       P1  3229  0.60

> <Gold.PLP.Chemscore.Internal.Correction>
0.0000

