#       Name:                EN300-5228289_i001
#       Creating user name   aseyller
#       Creation time:       Fri Apr 21 16:46:59 2023


#       File generated by GOLD software.
#

@<TRIPOS>MOLECULE
EN300-5228289_i001|aminophenols|mol2|122|dock6
    18    18     1
SMALL
USER_CHARGES


@<TRIPOS>ATOM
      1 C1          26.5577  37.0767  38.7818 C.3            1 <1>                0.0000
      2 C2          28.0369  37.1343  38.5002 C.ar           1 <1>                0.0000
      3 C3          28.5518  38.1462  37.7111 C.ar           1 <1>                0.0000
      4 C4          29.9088  38.2023  37.4513 C.ar           1 <1>                0.0000
      5 Br5         30.6059  39.5891  36.3711 Br             1 <1>                0.0000
      6 C6          30.7582  37.2461  37.9801 C.ar           1 <1>                0.0000
      7 C7          30.2498  36.2298  38.7712 C.ar           1 <1>                0.0000
      8 O8          31.0833  35.2897  39.2921 O.3            1 <1>                0.0000
      9 C9          28.8829  36.1757  39.0374 C.ar           1 <1>                0.0000
     10 N10         28.3638  35.1505  39.8371 N.pl3          1 <1>                0.0000
     11 H11         26.0646  36.4804  38.0140 H              1 <1>                0.0000
     12 H12         26.3910  36.6215  39.7580 H              1 <1>                0.0000
     13 H13         26.1473  38.0864  38.7770 H              1 <1>                0.0000
     14 H14         27.8924  38.8944  37.2964 H              1 <1>                0.0000
     15 H15         31.8176  37.2925  37.7755 H              1 <1>                0.0000
     16 H16         31.0854  35.2580  40.2585 H              1 <1>                0.0000
     17 H17         27.4114  35.1100  40.0161 H              1 <1>                0.0000
     18 H18         28.9566  34.4806  40.2122 H              1 <1>                0.0000
@<TRIPOS>BOND
    1    1    2 1     
    2    1   11 1     
    3    1   12 1     
    4    1   13 1     
    5    2    3 ar    
    6    2    9 ar    
    7    3    4 ar    
    8    3   14 1     
    9    4    5 1     
   10    4    6 ar    
   11    6    7 ar    
   12    6   15 1     
   13    7    8 1     
   14    7    9 ar    
   15    8   16 1     
   16    9   10 1     
   17   10   17 1     
   18   10   18 1     
@<TRIPOS>SUBSTRUCTURE
      1 ****           1
@<TRIPOS>SET
DONOR_HYDROGENS      STATIC     ATOMS    <user>   **** ""
3 16 17 18
ATOM$RED        STATIC     ATOMS    COLORGROUP SYSTEM
3 16 17 18
@<TRIPOS>COMMENT
> <Gold.Version>
2022.2.0

> <Gold.Id.Protein>
1qkm|1qkm_protein|mol2

> <Gold.Protein.RotatedTorsions>
[  496  491  490  487 ] final -158.69 input  -89.99 | X-H torsion

> <Gold.Protein.ActiveResidues>
 MET295  LEU298  THR299  LEU301  ALA302  GLU305  TRP335  MET336  LEU339  MET340 
 GLY342  LEU343  ARG346  PHE356  ILE373  ILE376  PHE377  LEU380  LYS471  GLY472 
 MET473  HIS475  LEU476  LEU477  ASN478  MET479  VAL484  VAL487 

> <Gold.Protein.RotatedAtoms>
   37.2702   33.7838   40.7425 H   0  0  0  0  0  0  0  0  0  0  0  0  # atno 496  bound_to 491 

> <Gold.Score>
     Score     S(PLP)   S(hbond)     S(cho)   S(metal)  DE(clash)   DE(tors)     intcor
     33.76     -30.76       1.00       0.00       0.00       0.00       0.00       0.00

> <Gold.PLP.Fitness>
33.7629

> <Gold.PLP.PLP>
-30.7629

> <Gold.PLP.part.hbond>
-1.0000

> <Gold.PLP.part.metal>
0.0000

> <Gold.PLP.part.buried>
-1.7206

> <Gold.PLP.part.nonpolar>
-28.2700

> <Gold.PLP.part.repulsive>
0.0226

> <Gold.PLP.ligand.clash>
0.0000

> <Gold.PLP.ligand.torsion>
0.0000

> <Gold.PLP.Chemscore.Hbond>
1.0000

> <Gold.PLP.Chemscore.CHOScore>
0.0000

> <Gold.PLP.Chemscore.Metal>
0.0000

> <Gold.Chemscore.Hbonds>
donor molecule, donor type, donor heavy atom, donor atom, acceptor molecule, acceptor atom, score
      L1  H     8    16       P1   470  1.00

> <Gold.PLP.Chemscore.Internal.Correction>
0.0000

