#       Name:                EN300-5228289_i001
#       Creating user name   aseyller
#       Creation time:       Fri Apr 21 16:47:02 2023


#       File generated by GOLD software.
#

@<TRIPOS>MOLECULE
EN300-5228289_i001|aminophenols|mol2|122|dock20
    18    18     1
SMALL
USER_CHARGES


@<TRIPOS>ATOM
      1 C1          29.8466  39.6593  36.3946 C.3            1 <1>                0.0000
      2 C2          30.5772  38.3425  36.4501 C.ar           1 <1>                0.0000
      3 C3          30.3935  37.4946  37.5267 C.ar           1 <1>                0.0000
      4 C4          31.0620  36.2853  37.5805 C.ar           1 <1>                0.0000
      5 Br5         30.8060  35.1308  39.0561 Br             1 <1>                0.0000
      6 C6          31.9178  35.9177  36.5568 C.ar           1 <1>                0.0000
      7 C7          32.1066  36.7616  35.4754 C.ar           1 <1>                0.0000
      8 O8          32.9469  36.4016  34.4684 O.3            1 <1>                0.0000
      9 C9          31.4294  37.9783  35.4185 C.ar           1 <1>                0.0000
     10 N10         31.6165  38.8351  34.3272 N.pl3          1 <1>                0.0000
     11 H11         30.4511  40.4307  36.8717 H              1 <1>                0.0000
     12 H12         29.6658  39.9310  35.3546 H              1 <1>                0.0000
     13 H13         28.8944  39.5689  36.9173 H              1 <1>                0.0000
     14 H14         29.7267  37.7777  38.3278 H              1 <1>                0.0000
     15 H15         32.4385  34.9726  36.6014 H              1 <1>                0.0000
     16 H16         32.4992  36.0260  33.6980 H              1 <1>                0.0000
     17 H17         31.1497  39.6846  34.2919 H              1 <1>                0.0000
     18 H18         32.2128  38.5791  33.6062 H              1 <1>                0.0000
@<TRIPOS>BOND
    1    1    2 1     
    2    1   11 1     
    3    1   12 1     
    4    1   13 1     
    5    2    3 ar    
    6    2    9 ar    
    7    3    4 ar    
    8    3   14 1     
    9    4    5 1     
   10    4    6 ar    
   11    6    7 ar    
   12    6   15 1     
   13    7    8 1     
   14    7    9 ar    
   15    8   16 1     
   16    9   10 1     
   17   10   17 1     
   18   10   18 1     
@<TRIPOS>SUBSTRUCTURE
      1 ****           1
@<TRIPOS>SET
DONOR_HYDROGENS      STATIC     ATOMS    <user>   **** ""
3 16 17 18
ATOM$RED        STATIC     ATOMS    COLORGROUP SYSTEM
3 16 17 18
@<TRIPOS>COMMENT
> <Gold.Version>
2022.2.0

> <Gold.Id.Protein>
1qkm|1qkm_protein|mol2

> <Gold.Protein.RotatedTorsions>
[  496  491  490  487 ] final  116.10 input  -89.99 | X-H torsion

> <Gold.Protein.ActiveResidues>
 MET295  LEU298  THR299  LEU301  ALA302  GLU305  TRP335  MET336  LEU339  MET340 
 GLY342  LEU343  ARG346  PHE356  ILE373  ILE376  PHE377  LEU380  LYS471  GLY472 
 MET473  HIS475  LEU476  LEU477  ASN478  MET479  VAL484  VAL487 

> <Gold.Protein.RotatedAtoms>
   37.0498   32.9397   41.6749 H   0  0  0  0  0  0  0  0  0  0  0  0  # atno 496  bound_to 491 

> <Gold.Score>
     Score     S(PLP)   S(hbond)     S(cho)   S(metal)  DE(clash)   DE(tors)     intcor
     31.87     -28.87       1.00       0.00       0.00       0.00       0.00       0.00

> <Gold.PLP.Fitness>
31.8717

> <Gold.PLP.PLP>
-28.8717

> <Gold.PLP.part.hbond>
-1.0000

> <Gold.PLP.part.metal>
0.0000

> <Gold.PLP.part.buried>
-1.7886

> <Gold.PLP.part.nonpolar>
-26.2038

> <Gold.PLP.part.repulsive>
0.0000

> <Gold.PLP.ligand.clash>
0.0000

> <Gold.PLP.ligand.torsion>
0.0000

> <Gold.PLP.Chemscore.Hbond>
1.0000

> <Gold.PLP.Chemscore.CHOScore>
0.0000

> <Gold.PLP.Chemscore.Metal>
0.0000

> <Gold.Chemscore.Hbonds>
donor molecule, donor type, donor heavy atom, donor atom, acceptor molecule, acceptor atom, score
      L1  H     8    16       P1  3187  1.00

> <Gold.PLP.Chemscore.Internal.Correction>
0.0000

