#       Name:                EN300-5228289_i001
#       Creating user name   aseyller
#       Creation time:       Fri Apr 21 16:46:59 2023


#       File generated by GOLD software.
#

@<TRIPOS>MOLECULE
EN300-5228289_i001|aminophenols|mol2|122|dock7
    18    18     1
SMALL
USER_CHARGES


@<TRIPOS>ATOM
      1 C1          32.6067  35.6291  36.5954 C.3            1 <1>                0.0000
      2 C2          31.4726  36.2819  37.3427 C.ar           1 <1>                0.0000
      3 C3          30.7947  37.3466  36.7782 C.ar           1 <1>                0.0000
      4 C4          29.7531  37.9475  37.4610 C.ar           1 <1>                0.0000
      5 Br5         28.8305  39.4032  36.6829 Br             1 <1>                0.0000
      6 C6          29.3840  37.4860  38.7125 C.ar           1 <1>                0.0000
      7 C7          30.0583  36.4202  39.2840 C.ar           1 <1>                0.0000
      8 O8          29.6965  35.9652  40.5136 O.3            1 <1>                0.0000
      9 C9          31.1049  35.8112  38.5942 C.ar           1 <1>                0.0000
     10 N10         31.7896  34.7330  39.1674 N.pl3          1 <1>                0.0000
     11 H11         33.5432  36.1249  36.8509 H              1 <1>                0.0000
     12 H12         32.6658  34.5764  36.8718 H              1 <1>                0.0000
     13 H13         32.4316  35.7138  35.5229 H              1 <1>                0.0000
     14 H14         31.0795  37.7100  35.8018 H              1 <1>                0.0000
     15 H15         28.5702  37.9572  39.2434 H              1 <1>                0.0000
     16 H16         30.4412  35.6934  41.0672 H              1 <1>                0.0000
     17 H17         32.5222  34.3141  38.6891 H              1 <1>                0.0000
     18 H18         31.5314  34.4046  40.0429 H              1 <1>                0.0000
@<TRIPOS>BOND
    1    1    2 1     
    2    1   11 1     
    3    1   12 1     
    4    1   13 1     
    5    2    3 ar    
    6    2    9 ar    
    7    3    4 ar    
    8    3   14 1     
    9    4    5 1     
   10    4    6 ar    
   11    6    7 ar    
   12    6   15 1     
   13    7    8 1     
   14    7    9 ar    
   15    8   16 1     
   16    9   10 1     
   17   10   17 1     
   18   10   18 1     
@<TRIPOS>SUBSTRUCTURE
      1 ****           1
@<TRIPOS>SET
DONOR_HYDROGENS      STATIC     ATOMS    <user>   **** ""
3 16 17 18
ATOM$RED        STATIC     ATOMS    COLORGROUP SYSTEM
3 16 17 18
@<TRIPOS>COMMENT
> <Gold.Version>
2022.2.0

> <Gold.Id.Protein>
1qkm|1qkm_protein|mol2

> <Gold.Protein.RotatedTorsions>
[  496  491  490  487 ] final -166.23 input  -89.99 | X-H torsion

> <Gold.Protein.ActiveResidues>
 MET295  LEU298  THR299  LEU301  ALA302  GLU305  TRP335  MET336  LEU339  MET340 
 GLY342  LEU343  ARG346  PHE356  ILE373  ILE376  PHE377  LEU380  LYS471  GLY472 
 MET473  HIS475  LEU476  LEU477  ASN478  MET479  VAL484  VAL487 

> <Gold.Protein.RotatedAtoms>
   37.2952   33.6666   40.7746 H   0  0  0  0  0  0  0  0  0  0  0  0  # atno 496  bound_to 491 

> <Gold.Score>
     Score     S(PLP)   S(hbond)     S(cho)   S(metal)  DE(clash)   DE(tors)     intcor
     35.43     -30.98       1.48       0.00       0.00       0.00       0.00       0.00

> <Gold.PLP.Fitness>
35.4269

> <Gold.PLP.PLP>
-30.9847

> <Gold.PLP.part.hbond>
-2.0000

> <Gold.PLP.part.metal>
0.0000

> <Gold.PLP.part.buried>
-1.7023

> <Gold.PLP.part.nonpolar>
-27.4015

> <Gold.PLP.part.repulsive>
0.0891

> <Gold.PLP.ligand.clash>
0.0000

> <Gold.PLP.ligand.torsion>
0.0000

> <Gold.PLP.Chemscore.Hbond>
1.4807

> <Gold.PLP.Chemscore.CHOScore>
0.0000

> <Gold.PLP.Chemscore.Metal>
0.0000

> <Gold.Chemscore.Hbonds>
donor molecule, donor type, donor heavy atom, donor atom, acceptor molecule, acceptor atom, score
      L1  H     8    16       P1   470  1.00
      L1  H    10    18       P1   470  0.48

> <Gold.PLP.Chemscore.Internal.Correction>
0.0000

