#       Name:                EN300-5228289_i001
#       Creating user name   aseyller
#       Creation time:       Fri Apr 21 16:46:59 2023


#       File generated by GOLD software.
#

@<TRIPOS>MOLECULE
EN300-5228289_i001|aminophenols|mol2|122|dock5
    18    18     1
SMALL
USER_CHARGES


@<TRIPOS>ATOM
      1 C1          25.4963  36.6674  41.1950 C.3            1 <1>                0.0000
      2 C2          26.6843  36.7766  40.2744 C.ar           1 <1>                0.0000
      3 C3          26.6156  37.5764  39.1487 C.ar           1 <1>                0.0000
      4 C4          27.7042  37.6792  38.3021 C.ar           1 <1>                0.0000
      5 Br5         27.6030  38.7748  36.7642 Br             1 <1>                0.0000
      6 C6          28.8678  36.9825  38.5779 C.ar           1 <1>                0.0000
      7 C7          28.9440  36.1797  39.7034 C.ar           1 <1>                0.0000
      8 O8          30.0869  35.4948  39.9761 O.3            1 <1>                0.0000
      9 C9          27.8488  36.0795  40.5594 C.ar           1 <1>                0.0000
     10 N10         27.9208  35.2696  41.6991 N.pl3          1 <1>                0.0000
     11 H11         24.8605  35.8432  40.8716 H              1 <1>                0.0000
     12 H12         25.8407  36.4828  42.2125 H              1 <1>                0.0000
     13 H13         24.9281  37.5972  41.1669 H              1 <1>                0.0000
     14 H14         25.7094  38.1217  38.9297 H              1 <1>                0.0000
     15 H15         29.7164  37.0647  37.9150 H              1 <1>                0.0000
     16 H16         30.3787  35.5666  40.8951 H              1 <1>                0.0000
     17 H17         27.1555  35.1955  42.2906 H              1 <1>                0.0000
     18 H18         28.7359  34.7826  41.8974 H              1 <1>                0.0000
@<TRIPOS>BOND
    1    1    2 1     
    2    1   11 1     
    3    1   12 1     
    4    1   13 1     
    5    2    3 ar    
    6    2    9 ar    
    7    3    4 ar    
    8    3   14 1     
    9    4    5 1     
   10    4    6 ar    
   11    6    7 ar    
   12    6   15 1     
   13    7    8 1     
   14    7    9 ar    
   15    8   16 1     
   16    9   10 1     
   17   10   17 1     
   18   10   18 1     
@<TRIPOS>SUBSTRUCTURE
      1 ****           1
@<TRIPOS>SET
DONOR_HYDROGENS      STATIC     ATOMS    <user>   **** ""
3 16 17 18
ATOM$RED        STATIC     ATOMS    COLORGROUP SYSTEM
3 16 17 18
@<TRIPOS>COMMENT
> <Gold.Version>
2022.2.0

> <Gold.Id.Protein>
1qkm|1qkm_protein|mol2

> <Gold.Protein.RotatedTorsions>
[  496  491  490  487 ] final -178.52 input  -89.99 | X-H torsion

> <Gold.Protein.ActiveResidues>
 MET295  LEU298  THR299  LEU301  ALA302  GLU305  TRP335  MET336  LEU339  MET340 
 GLY342  LEU343  ARG346  PHE356  ILE373  ILE376  PHE377  LEU380  LYS471  GLY472 
 MET473  HIS475  LEU476  LEU477  ASN478  MET479  VAL484  VAL487 

> <Gold.Protein.RotatedAtoms>
   37.3169   33.4829   40.8554 H   0  0  0  0  0  0  0  0  0  0  0  0  # atno 496  bound_to 491 

> <Gold.Score>
     Score     S(PLP)   S(hbond)     S(cho)   S(metal)  DE(clash)   DE(tors)     intcor
     38.15     -32.56       1.86       0.00       0.00       0.00       0.00       0.00

> <Gold.PLP.Fitness>
38.1509

> <Gold.PLP.PLP>
-32.5589

> <Gold.PLP.part.hbond>
-2.0000

> <Gold.PLP.part.metal>
0.0000

> <Gold.PLP.part.buried>
-3.6513

> <Gold.PLP.part.nonpolar>
-27.0284

> <Gold.PLP.part.repulsive>
0.0761

> <Gold.PLP.ligand.clash>
0.0000

> <Gold.PLP.ligand.torsion>
0.0000

> <Gold.PLP.Chemscore.Hbond>
1.8640

> <Gold.PLP.Chemscore.CHOScore>
0.0000

> <Gold.PLP.Chemscore.Metal>
0.0000

> <Gold.Chemscore.Hbonds>
donor molecule, donor type, donor heavy atom, donor atom, acceptor molecule, acceptor atom, score
      L1  H     8    16       P1   470  0.86
      L1  H    10    17       P1   582  1.00

> <Gold.PLP.Chemscore.Internal.Correction>
0.0000

