#       Name:                EN300-5228289_i001
#       Creating user name   aseyller
#       Creation time:       Fri Apr 21 16:47:01 2023


#       File generated by GOLD software.
#

@<TRIPOS>MOLECULE
EN300-5228289_i001|aminophenols|mol2|122|dock14
    18    18     1
SMALL
USER_CHARGES


@<TRIPOS>ATOM
      1 C1          26.7559  38.1354  37.8157 C.3            1 <1>                0.0000
      2 C2          28.0004  37.4954  38.3748 C.ar           1 <1>                0.0000
      3 C3          29.1950  37.5875  37.6848 C.ar           1 <1>                0.0000
      4 C4          30.3390  37.0018  38.1954 C.ar           1 <1>                0.0000
      5 Br5         31.9693  37.1317  37.2462 Br             1 <1>                0.0000
      6 C6          30.2937  36.3211  39.3995 C.ar           1 <1>                0.0000
      7 C7          29.1009  36.2249  40.0961 C.ar           1 <1>                0.0000
      8 O8          29.0549  35.5567  41.2798 O.3            1 <1>                0.0000
      9 C9          27.9489  36.8190  39.5844 C.ar           1 <1>                0.0000
     10 N10         26.7404  36.7251  40.2849 N.pl3          1 <1>                0.0000
     11 H11         26.2336  37.4202  37.1803 H              1 <1>                0.0000
     12 H12         26.1034  38.4378  38.6348 H              1 <1>                0.0000
     13 H13         27.0304  39.0111  37.2277 H              1 <1>                0.0000
     14 H14         29.2347  38.1177  36.7447 H              1 <1>                0.0000
     15 H15         31.1887  35.8648  39.7958 H              1 <1>                0.0000
     16 H16         29.9243  35.3368  41.6414 H              1 <1>                0.0000
     17 H17         25.9377  37.1334  39.9245 H              1 <1>                0.0000
     18 H18         26.7057  36.2517  41.1309 H              1 <1>                0.0000
@<TRIPOS>BOND
    1    1    2 1     
    2    1   11 1     
    3    1   12 1     
    4    1   13 1     
    5    2    3 ar    
    6    2    9 ar    
    7    3    4 ar    
    8    3   14 1     
    9    4    5 1     
   10    4    6 ar    
   11    6    7 ar    
   12    6   15 1     
   13    7    8 1     
   14    7    9 ar    
   15    8   16 1     
   16    9   10 1     
   17   10   17 1     
   18   10   18 1     
@<TRIPOS>SUBSTRUCTURE
      1 ****           1
@<TRIPOS>SET
DONOR_HYDROGENS      STATIC     ATOMS    <user>   **** ""
3 16 17 18
ATOM$RED        STATIC     ATOMS    COLORGROUP SYSTEM
3 16 17 18
@<TRIPOS>COMMENT
> <Gold.Version>
2022.2.0

> <Gold.Id.Protein>
1qkm|1qkm_protein|mol2

> <Gold.Protein.RotatedTorsions>
[  496  491  490  487 ] final  127.42 input  -89.99 | X-H torsion

> <Gold.Protein.ActiveResidues>
 MET295  LEU298  THR299  LEU301  ALA302  GLU305  TRP335  MET336  LEU339  MET340 
 GLY342  LEU343  ARG346  PHE356  ILE373  ILE376  PHE377  LEU380  LYS471  GLY472 
 MET473  HIS475  LEU476  LEU477  ASN478  MET479  VAL484  VAL487 

> <Gold.Protein.RotatedAtoms>
   37.1353   32.9614   41.5112 H   0  0  0  0  0  0  0  0  0  0  0  0  # atno 496  bound_to 491 

> <Gold.Score>
     Score     S(PLP)   S(hbond)     S(cho)   S(metal)  DE(clash)   DE(tors)     intcor
     32.01     -29.01       1.00       0.00       0.00       0.00       0.00       0.00

> <Gold.PLP.Fitness>
32.0080

> <Gold.PLP.PLP>
-29.0080

> <Gold.PLP.part.hbond>
-1.0000

> <Gold.PLP.part.metal>
0.0000

> <Gold.PLP.part.buried>
-2.7689

> <Gold.PLP.part.nonpolar>
-25.5019

> <Gold.PLP.part.repulsive>
0.0071

> <Gold.PLP.ligand.clash>
0.0000

> <Gold.PLP.ligand.torsion>
0.0000

> <Gold.PLP.Chemscore.Hbond>
1.0000

> <Gold.PLP.Chemscore.CHOScore>
0.0000

> <Gold.PLP.Chemscore.Metal>
0.0000

> <Gold.Chemscore.Hbonds>
donor molecule, donor type, donor heavy atom, donor atom, acceptor molecule, acceptor atom, score
      L1  H     8    16       P1   470  1.00

> <Gold.PLP.Chemscore.Internal.Correction>
0.0000

