#       Name:                EN300-5228289_i001
#       Creating user name   aseyller
#       Creation time:       Fri Apr 21 16:47:02 2023


#       File generated by GOLD software.
#

@<TRIPOS>MOLECULE
EN300-5228289_i001|aminophenols|mol2|122|dock16
    18    18     1
SMALL
USER_CHARGES


@<TRIPOS>ATOM
      1 C1          30.3100  36.0517  39.4345 C.3            1 <1>                0.0000
      2 C2          28.8835  36.4707  39.6798 C.ar           1 <1>                0.0000
      3 C3          28.1311  37.0004  38.6478 C.ar           1 <1>                0.0000
      4 C4          26.8215  37.3854  38.8695 C.ar           1 <1>                0.0000
      5 Br5         25.7986  38.1091  37.4532 Br             1 <1>                0.0000
      6 C6          26.2576  37.2420  40.1251 C.ar           1 <1>                0.0000
      7 C7          27.0049  36.7123  41.1635 C.ar           1 <1>                0.0000
      8 O8          26.4520  36.5703  42.3979 O.3            1 <1>                0.0000
      9 C9          28.3232  36.3197  40.9394 C.ar           1 <1>                0.0000
     10 N10         29.0830  35.7831  41.9857 N.pl3          1 <1>                0.0000
     11 H11         30.9743  36.8943  39.6263 H              1 <1>                0.0000
     12 H12         30.5665  35.2280  40.1007 H              1 <1>                0.0000
     13 H13         30.4212  35.7296  38.3992 H              1 <1>                0.0000
     14 H14         28.5674  37.1141  37.6663 H              1 <1>                0.0000
     15 H15         25.2346  37.5435  40.2953 H              1 <1>                0.0000
     16 H16         26.3035  35.6512  42.6590 H              1 <1>                0.0000
     17 H17         30.0026  35.5164  41.8302 H              1 <1>                0.0000
     18 H18         28.6900  35.6780  42.8662 H              1 <1>                0.0000
@<TRIPOS>BOND
    1    1    2 1     
    2    1   11 1     
    3    1   12 1     
    4    1   13 1     
    5    2    3 ar    
    6    2    9 ar    
    7    3    4 ar    
    8    3   14 1     
    9    4    5 1     
   10    4    6 ar    
   11    6    7 ar    
   12    6   15 1     
   13    7    8 1     
   14    7    9 ar    
   15    8   16 1     
   16    9   10 1     
   17   10   17 1     
   18   10   18 1     
@<TRIPOS>SUBSTRUCTURE
      1 ****           1
@<TRIPOS>SET
DONOR_HYDROGENS      STATIC     ATOMS    <user>   **** ""
3 16 17 18
ATOM$RED        STATIC     ATOMS    COLORGROUP SYSTEM
3 16 17 18
@<TRIPOS>COMMENT
> <Gold.Version>
2022.2.0

> <Gold.Id.Protein>
1qkm|1qkm_protein|mol2

> <Gold.Protein.RotatedTorsions>
[  496  491  490  487 ] final   -3.96 input  -89.99 | X-H torsion

> <Gold.Protein.ActiveResidues>
 MET295  LEU298  THR299  LEU301  ALA302  GLU305  TRP335  MET336  LEU339  MET340 
 GLY342  LEU343  ARG346  PHE356  ILE373  ILE376  PHE377  LEU380  LYS471  GLY472 
 MET473  HIS475  LEU476  LEU477  ASN478  MET479  VAL484  VAL487 

> <Gold.Protein.RotatedAtoms>
   36.2588   34.2690   42.2018 H   0  0  0  0  0  0  0  0  0  0  0  0  # atno 496  bound_to 491 

> <Gold.Score>
     Score     S(PLP)   S(hbond)     S(cho)   S(metal)  DE(clash)   DE(tors)     intcor
     36.29     -30.29       2.00       0.00       0.00       0.00       0.00       0.00

> <Gold.PLP.Fitness>
36.2908

> <Gold.PLP.PLP>
-30.2908

> <Gold.PLP.part.hbond>
-1.8111

> <Gold.PLP.part.metal>
0.0000

> <Gold.PLP.part.buried>
-3.4892

> <Gold.PLP.part.nonpolar>
-24.7234

> <Gold.PLP.part.repulsive>
0.0994

> <Gold.PLP.ligand.clash>
0.0000

> <Gold.PLP.ligand.torsion>
0.0000

> <Gold.PLP.Chemscore.Hbond>
2.0000

> <Gold.PLP.Chemscore.CHOScore>
0.0000

> <Gold.PLP.Chemscore.Metal>
0.0000

> <Gold.Chemscore.Hbonds>
donor molecule, donor type, donor heavy atom, donor atom, acceptor molecule, acceptor atom, score
      L1  H     8    16       P1   582  1.00
      L1  H    10    17       P1   470  1.00

> <Gold.PLP.Chemscore.Internal.Correction>
0.0000

