#       Name:                EN300-5228289_i001
#       Creating user name   aseyller
#       Creation time:       Fri Apr 21 16:46:58 2023


#       File generated by GOLD software.
#

@<TRIPOS>MOLECULE
EN300-5228289_i001|aminophenols|mol2|122|dock3
    18    18     1
SMALL
USER_CHARGES


@<TRIPOS>ATOM
      1 C1          25.5004  37.2106  39.1021 C.3            1 <1>                0.0000
      2 C2          26.9850  37.0039  39.2570 C.ar           1 <1>                0.0000
      3 C3          27.8418  37.3438  38.2264 C.ar           1 <1>                0.0000
      4 C4          29.2047  37.1560  38.3655 C.ar           1 <1>                0.0000
      5 Br5         30.3704  37.6231  36.9517 Br             1 <1>                0.0000
      6 C6          29.7178  36.6272  39.5370 C.ar           1 <1>                0.0000
      7 C7          28.8659  36.2845  40.5734 C.ar           1 <1>                0.0000
      8 O8          29.3687  35.7652  41.7255 O.3            1 <1>                0.0000
      9 C9          27.4928  36.4781  40.4355 C.ar           1 <1>                0.0000
     10 N10         26.6271  36.1337  41.4805 N.pl3          1 <1>                0.0000
     11 H11         25.0511  36.3133  38.6765 H              1 <1>                0.0000
     12 H12         25.0576  37.4108  40.0778 H              1 <1>                0.0000
     13 H13         25.3185  38.0571  38.4400 H              1 <1>                0.0000
     14 H14         27.4455  37.7567  37.3104 H              1 <1>                0.0000
     15 H15         30.7826  36.4816  39.6429 H              1 <1>                0.0000
     16 H16         30.3341  35.7163  41.7465 H              1 <1>                0.0000
     17 H17         25.6709  36.2627  41.3808 H              1 <1>                0.0000
     18 H18         26.9835  35.7661  42.3044 H              1 <1>                0.0000
@<TRIPOS>BOND
    1    1    2 1     
    2    1   11 1     
    3    1   12 1     
    4    1   13 1     
    5    2    3 ar    
    6    2    9 ar    
    7    3    4 ar    
    8    3   14 1     
    9    4    5 1     
   10    4    6 ar    
   11    6    7 ar    
   12    6   15 1     
   13    7    8 1     
   14    7    9 ar    
   15    8   16 1     
   16    9   10 1     
   17   10   17 1     
   18   10   18 1     
@<TRIPOS>SUBSTRUCTURE
      1 ****           1
@<TRIPOS>SET
DONOR_HYDROGENS      STATIC     ATOMS    <user>   **** ""
3 16 17 18
ATOM$RED        STATIC     ATOMS    COLORGROUP SYSTEM
3 16 17 18
@<TRIPOS>COMMENT
> <Gold.Version>
2022.2.0

> <Gold.Id.Protein>
1qkm|1qkm_protein|mol2

> <Gold.Protein.RotatedTorsions>
[  496  491  490  487 ] final   51.22 input  -89.99 | X-H torsion

> <Gold.Protein.ActiveResidues>
 MET295  LEU298  THR299  LEU301  ALA302  GLU305  TRP335  MET336  LEU339  MET340 
 GLY342  LEU343  ARG346  PHE356  ILE373  ILE376  PHE377  LEU380  LYS471  GLY472 
 MET473  HIS475  LEU476  LEU477  ASN478  MET479  VAL484  VAL487 

> <Gold.Protein.RotatedAtoms>
   36.4820   33.4372   42.3486 H   0  0  0  0  0  0  0  0  0  0  0  0  # atno 496  bound_to 491 

> <Gold.Score>
     Score     S(PLP)   S(hbond)     S(cho)   S(metal)  DE(clash)   DE(tors)     intcor
     40.28     -35.82       1.49       0.00       0.00       0.00       0.00       0.00

> <Gold.PLP.Fitness>
40.2824

> <Gold.PLP.PLP>
-35.8222

> <Gold.PLP.part.hbond>
-2.2958

> <Gold.PLP.part.metal>
0.0000

> <Gold.PLP.part.buried>
-3.6082

> <Gold.PLP.part.nonpolar>
-30.7933

> <Gold.PLP.part.repulsive>
0.0392

> <Gold.PLP.ligand.clash>
0.0000

> <Gold.PLP.ligand.torsion>
0.0000

> <Gold.PLP.Chemscore.Hbond>
1.4867

> <Gold.PLP.Chemscore.CHOScore>
0.0000

> <Gold.PLP.Chemscore.Metal>
0.0000

> <Gold.Chemscore.Hbonds>
donor molecule, donor type, donor heavy atom, donor atom, acceptor molecule, acceptor atom, score
      L1  H     8    16       P1   470  1.00
      L1  H    10    18       P1   582  0.49

> <Gold.PLP.Chemscore.Internal.Correction>
0.0000

