#       Name:                EN300-5228289_i001
#       Creating user name   aseyller
#       Creation time:       Fri Apr 21 16:47:01 2023


#       File generated by GOLD software.
#

@<TRIPOS>MOLECULE
EN300-5228289_i001|aminophenols|mol2|122|dock13
    18    18     1
SMALL
USER_CHARGES


@<TRIPOS>ATOM
      1 C1          28.5175  35.6661  41.8533 C.3            1 <1>                0.0000
      2 C2          28.0092  36.3449  40.6076 C.ar           1 <1>                0.0000
      3 C3          28.8886  36.6787  39.5942 C.ar           1 <1>                0.0000
      4 C4          28.4253  37.3012  38.4496 C.ar           1 <1>                0.0000
      5 Br5         29.6338  37.7550  37.0677 Br             1 <1>                0.0000
      6 C6          27.0793  37.5926  38.3127 C.ar           1 <1>                0.0000
      7 C7          26.1928  37.2612  39.3234 C.ar           1 <1>                0.0000
      8 O8          24.8697  37.5464  39.1901 O.3            1 <1>                0.0000
      9 C9          26.6584  36.6295  40.4750 C.ar           1 <1>                0.0000
     10 N10         25.7662  36.2919  41.4997 N.pl3          1 <1>                0.0000
     11 H11         28.7949  36.4197  42.5903 H              1 <1>                0.0000
     12 H12         27.7356  35.0271  42.2638 H              1 <1>                0.0000
     13 H13         29.3896  35.0605  41.6070 H              1 <1>                0.0000
     14 H14         29.9398  36.4532  39.6971 H              1 <1>                0.0000
     15 H15         26.7204  38.0787  37.4176 H              1 <1>                0.0000
     16 H16         24.2857  36.9271  39.6489 H              1 <1>                0.0000
     17 H17         26.0925  35.8582  42.3037 H              1 <1>                0.0000
     18 H18         24.8216  36.4915  41.4057 H              1 <1>                0.0000
@<TRIPOS>BOND
    1    1    2 1     
    2    1   11 1     
    3    1   12 1     
    4    1   13 1     
    5    2    3 ar    
    6    2    9 ar    
    7    3    4 ar    
    8    3   14 1     
    9    4    5 1     
   10    4    6 ar    
   11    6    7 ar    
   12    6   15 1     
   13    7    8 1     
   14    7    9 ar    
   15    8   16 1     
   16    9   10 1     
   17   10   17 1     
   18   10   18 1     
@<TRIPOS>SUBSTRUCTURE
      1 ****           1
@<TRIPOS>SET
DONOR_HYDROGENS      STATIC     ATOMS    <user>   **** ""
3 16 17 18
ATOM$RED        STATIC     ATOMS    COLORGROUP SYSTEM
3 16 17 18
@<TRIPOS>COMMENT
> <Gold.Version>
2022.2.0

> <Gold.Id.Protein>
1qkm|1qkm_protein|mol2

> <Gold.Protein.RotatedTorsions>
[  496  491  490  487 ] final -103.39 input  -89.99 | X-H torsion

> <Gold.Protein.ActiveResidues>
 MET295  LEU298  THR299  LEU301  ALA302  GLU305  TRP335  MET336  LEU339  MET340 
 GLY342  LEU343  ARG346  PHE356  ILE373  ILE376  PHE377  LEU380  LYS471  GLY472 
 MET473  HIS475  LEU476  LEU477  ASN478  MET479  VAL484  VAL487 

> <Gold.Protein.RotatedAtoms>
   36.8807   34.5440   40.9336 H   0  0  0  0  0  0  0  0  0  0  0  0  # atno 496  bound_to 491 

> <Gold.Score>
     Score     S(PLP)   S(hbond)     S(cho)   S(metal)  DE(clash)   DE(tors)     intcor
     37.52     -31.52       2.00       0.00       0.00       0.00       0.00       0.00

> <Gold.PLP.Fitness>
37.5157

> <Gold.PLP.PLP>
-31.5157

> <Gold.PLP.part.hbond>
-2.0000

> <Gold.PLP.part.metal>
0.0000

> <Gold.PLP.part.buried>
2.0986

> <Gold.PLP.part.nonpolar>
-31.8978

> <Gold.PLP.part.repulsive>
0.0782

> <Gold.PLP.ligand.clash>
0.0000

> <Gold.PLP.ligand.torsion>
0.0000

> <Gold.PLP.Chemscore.Hbond>
2.0000

> <Gold.PLP.Chemscore.CHOScore>
0.0000

> <Gold.PLP.Chemscore.Metal>
0.0000

> <Gold.Chemscore.Hbonds>
donor molecule, donor type, donor heavy atom, donor atom, acceptor molecule, acceptor atom, score
      L1  H     8    16       P1  1131  1.00
      L1  H    10    17       P1   582  1.00

> <Gold.PLP.Chemscore.Internal.Correction>
0.0000

