#       Name:                EN300-5228289_i001
#       Creating user name   aseyller
#       Creation time:       Fri Apr 21 16:46:58 2023


#       File generated by GOLD software.
#

@<TRIPOS>MOLECULE
EN300-5228289_i001|aminophenols|mol2|122|dock1
    18    18     1
SMALL
USER_CHARGES


@<TRIPOS>ATOM
      1 C1          29.3658  35.4920  39.6786 C.3            1 <1>                0.0000
      2 C2          28.0099  36.1461  39.7466 C.ar           1 <1>                0.0000
      3 C3          27.6014  36.9972  38.7365 C.ar           1 <1>                0.0000
      4 C4          26.3575  37.5987  38.7956 C.ar           1 <1>                0.0000
      5 Br5         25.8054  38.7617  37.4105 Br             1 <1>                0.0000
      6 C6          25.5156  37.3512  39.8658 C.ar           1 <1>                0.0000
      7 C7          25.9180  36.5000  40.8810 C.ar           1 <1>                0.0000
      8 O8          25.0915  36.2555  41.9331 O.3            1 <1>                0.0000
      9 C9          27.1694  35.8899  40.8195 C.ar           1 <1>                0.0000
     10 N10         27.5809  35.0280  41.8431 N.pl3          1 <1>                0.0000
     11 H11         30.1020  36.1302  40.1674 H              1 <1>                0.0000
     12 H12         29.3294  34.5268  40.1837 H              1 <1>                0.0000
     13 H13         29.6469  35.3459  38.6357 H              1 <1>                0.0000
     14 H14         28.2554  37.1931  37.8996 H              1 <1>                0.0000
     15 H15         24.5448  37.8223  39.9092 H              1 <1>                0.0000
     16 H16         25.4726  35.6748  42.6059 H              1 <1>                0.0000
     17 H17         28.4549  34.6091  41.8025 H              1 <1>                0.0000
     18 H18         26.9921  34.8496  42.5930 H              1 <1>                0.0000
@<TRIPOS>BOND
    1    1    2 1     
    2    1   11 1     
    3    1   12 1     
    4    1   13 1     
    5    2    3 ar    
    6    2    9 ar    
    7    3    4 ar    
    8    3   14 1     
    9    4    5 1     
   10    4    6 ar    
   11    6    7 ar    
   12    6   15 1     
   13    7    8 1     
   14    7    9 ar    
   15    8   16 1     
   16    9   10 1     
   17   10   17 1     
   18   10   18 1     
@<TRIPOS>SUBSTRUCTURE
      1 ****           1
@<TRIPOS>SET
DONOR_HYDROGENS      STATIC     ATOMS    <user>   **** ""
3 16 17 18
ATOM$RED        STATIC     ATOMS    COLORGROUP SYSTEM
3 16 17 18
@<TRIPOS>COMMENT
> <Gold.Version>
2022.2.0

> <Gold.Id.Protein>
1qkm|1qkm_protein|mol2

> <Gold.Protein.RotatedTorsions>
[  496  491  490  487 ] final   10.03 input  -89.99 | X-H torsion

> <Gold.Protein.ActiveResidues>
 MET295  LEU298  THR299  LEU301  ALA302  GLU305  TRP335  MET336  LEU339  MET340 
 GLY342  LEU343  ARG346  PHE356  ILE373  ILE376  PHE377  LEU380  LYS471  GLY472 
 MET473  HIS475  LEU476  LEU477  ASN478  MET479  VAL484  VAL487 

> <Gold.Protein.RotatedAtoms>
   36.2733   34.0658   42.3079 H   0  0  0  0  0  0  0  0  0  0  0  0  # atno 496  bound_to 491 

> <Gold.Score>
     Score     S(PLP)   S(hbond)     S(cho)   S(metal)  DE(clash)   DE(tors)     intcor
     42.14     -34.09       2.68       0.00       0.00       0.00       0.00       0.00

> <Gold.PLP.Fitness>
42.1443

> <Gold.PLP.PLP>
-34.0895

> <Gold.PLP.part.hbond>
-2.8778

> <Gold.PLP.part.metal>
0.0000

> <Gold.PLP.part.buried>
-4.5439

> <Gold.PLP.part.nonpolar>
-27.2529

> <Gold.PLP.part.repulsive>
0.0747

> <Gold.PLP.ligand.clash>
0.0000

> <Gold.PLP.ligand.torsion>
0.0000

> <Gold.PLP.Chemscore.Hbond>
2.6849

> <Gold.PLP.Chemscore.CHOScore>
0.0000

> <Gold.PLP.Chemscore.Metal>
0.0000

> <Gold.Chemscore.Hbonds>
donor molecule, donor type, donor heavy atom, donor atom, acceptor molecule, acceptor atom, score
      L1  H     8    16       P1   582  1.00
      L1  H    10    18       P1   582  0.99
      P1  H  1258  1270       L1     8  0.69

> <Gold.PLP.Chemscore.Internal.Correction>
0.0000

