#       Name:                EN300-5228289_i001
#       Creating user name   aseyller
#       Creation time:       Fri Apr 21 16:47:02 2023


#       File generated by GOLD software.
#

@<TRIPOS>MOLECULE
EN300-5228289_i001|aminophenols|mol2|122|dock18
    18    18     1
SMALL
USER_CHARGES


@<TRIPOS>ATOM
      1 C1          26.1406  36.1629  38.2413 C.3            1 <1>                0.0000
      2 C2          27.4350  36.0635  39.0066 C.ar           1 <1>                0.0000
      3 C3          28.6412  36.2089  38.3467 C.ar           1 <1>                0.0000
      4 C4          29.8308  36.1189  39.0461 C.ar           1 <1>                0.0000
      5 Br5         31.4769  36.3186  38.1371 Br             1 <1>                0.0000
      6 C6          29.8196  35.8833  40.4098 C.ar           1 <1>                0.0000
      7 C7          28.6154  35.7367  41.0773 C.ar           1 <1>                0.0000
      8 O8          28.6027  35.5057  42.4176 O.3            1 <1>                0.0000
      9 C9          27.4162  35.8322  40.3738 C.ar           1 <1>                0.0000
     10 N10         26.1959  35.6852  41.0440 N.pl3          1 <1>                0.0000
     11 H11         25.8545  35.1745  37.8815 H              1 <1>                0.0000
     12 H12         25.3603  36.5510  38.8959 H              1 <1>                0.0000
     13 H13         26.2706  36.8348  37.3930 H              1 <1>                0.0000
     14 H14         28.6545  36.3928  37.2825 H              1 <1>                0.0000
     15 H15         30.7502  35.8136  40.9534 H              1 <1>                0.0000
     16 H16         27.7333  35.2674  42.7674 H              1 <1>                0.0000
     17 H17         25.3620  35.7452  40.5521 H              1 <1>                0.0000
     18 H18         26.1841  35.5234  42.0003 H              1 <1>                0.0000
@<TRIPOS>BOND
    1    1    2 1     
    2    1   11 1     
    3    1   12 1     
    4    1   13 1     
    5    2    3 ar    
    6    2    9 ar    
    7    3    4 ar    
    8    3   14 1     
    9    4    5 1     
   10    4    6 ar    
   11    6    7 ar    
   12    6   15 1     
   13    7    8 1     
   14    7    9 ar    
   15    8   16 1     
   16    9   10 1     
   17   10   17 1     
   18   10   18 1     
@<TRIPOS>SUBSTRUCTURE
      1 ****           1
@<TRIPOS>SET
DONOR_HYDROGENS      STATIC     ATOMS    <user>   **** ""
3 16 17 18
ATOM$RED        STATIC     ATOMS    COLORGROUP SYSTEM
3 16 17 18
@<TRIPOS>COMMENT
> <Gold.Version>
2022.2.0

> <Gold.Id.Protein>
1qkm|1qkm_protein|mol2

> <Gold.Protein.RotatedTorsions>
[  496  491  490  487 ] final   99.93 input  -89.99 | X-H torsion

> <Gold.Protein.ActiveResidues>
 MET295  LEU298  THR299  LEU301  ALA302  GLU305  TRP335  MET336  LEU339  MET340 
 GLY342  LEU343  ARG346  PHE356  ILE373  ILE376  PHE377  LEU380  LYS471  GLY472 
 MET473  HIS475  LEU476  LEU477  ASN478  MET479  VAL484  VAL487 

> <Gold.Protein.RotatedAtoms>
   36.9110   32.9693   41.8992 H   0  0  0  0  0  0  0  0  0  0  0  0  # atno 496  bound_to 491 

> <Gold.Score>
     Score     S(PLP)   S(hbond)     S(cho)   S(metal)  DE(clash)   DE(tors)     intcor
     35.54     -29.76       1.93       0.00       0.00       0.00       0.00       0.00

> <Gold.PLP.Fitness>
35.5426

> <Gold.PLP.PLP>
-29.7638

> <Gold.PLP.part.hbond>
-3.3035

> <Gold.PLP.part.metal>
0.0000

> <Gold.PLP.part.buried>
2.4726

> <Gold.PLP.part.nonpolar>
-30.2561

> <Gold.PLP.part.repulsive>
0.0402

> <Gold.PLP.ligand.clash>
0.0000

> <Gold.PLP.ligand.torsion>
0.0000

> <Gold.PLP.Chemscore.Hbond>
1.9263

> <Gold.PLP.Chemscore.CHOScore>
0.0000

> <Gold.PLP.Chemscore.Metal>
0.0000

> <Gold.Chemscore.Hbonds>
donor molecule, donor type, donor heavy atom, donor atom, acceptor molecule, acceptor atom, score
      L1  H     8    16       P1   582  0.93
      L1  H    10    18       P1   582  1.00

> <Gold.PLP.Chemscore.Internal.Correction>
0.0000

