#       Name:                EN300-5228289_i001
#       Creating user name   aseyller
#       Creation time:       Fri Apr 21 16:46:58 2023


#       File generated by GOLD software.
#

@<TRIPOS>MOLECULE
EN300-5228289_i001|aminophenols|mol2|122|dock4
    18    18     1
SMALL
USER_CHARGES


@<TRIPOS>ATOM
      1 C1          29.9990  38.7522  36.9696 C.3            1 <1>                0.0000
      2 C2          30.9308  37.6221  36.6158 C.ar           1 <1>                0.0000
      3 C3          31.0265  36.5195  37.4445 C.ar           1 <1>                0.0000
      4 C4          31.8803  35.4805  37.1225 C.ar           1 <1>                0.0000
      5 Br5         32.0060  33.9757  38.2608 Br             1 <1>                0.0000
      6 C6          32.6427  35.5390  35.9689 C.ar           1 <1>                0.0000
      7 C7          32.5521  36.6399  35.1341 C.ar           1 <1>                0.0000
      8 O8          33.3003  36.6987  33.9999 O.3            1 <1>                0.0000
      9 C9          31.6883  37.6851  35.4558 C.ar           1 <1>                0.0000
     10 N10         31.5925  38.8004  34.6149 N.pl3          1 <1>                0.0000
     11 H11         30.5300  39.4840  37.5784 H              1 <1>                0.0000
     12 H12         29.6431  39.2293  36.0564 H              1 <1>                0.0000
     13 H13         29.1497  38.3612  37.5298 H              1 <1>                0.0000
     14 H14         30.4334  36.4699  38.3458 H              1 <1>                0.0000
     15 H15         33.3085  34.7260  35.7200 H              1 <1>                0.0000
     16 H16         32.9821  36.1260  33.2887 H              1 <1>                0.0000
     17 H17         30.9959  39.5303  34.8433 H              1 <1>                0.0000
     18 H18         32.1228  38.8432  33.8038 H              1 <1>                0.0000
@<TRIPOS>BOND
    1    1    2 1     
    2    1   11 1     
    3    1   12 1     
    4    1   13 1     
    5    2    3 ar    
    6    2    9 ar    
    7    3    4 ar    
    8    3   14 1     
    9    4    5 1     
   10    4    6 ar    
   11    6    7 ar    
   12    6   15 1     
   13    7    8 1     
   14    7    9 ar    
   15    8   16 1     
   16    9   10 1     
   17   10   17 1     
   18   10   18 1     
@<TRIPOS>SUBSTRUCTURE
      1 ****           1
@<TRIPOS>SET
DONOR_HYDROGENS      STATIC     ATOMS    <user>   **** ""
3 16 17 18
ATOM$RED        STATIC     ATOMS    COLORGROUP SYSTEM
3 16 17 18
@<TRIPOS>COMMENT
> <Gold.Version>
2022.2.0

> <Gold.Id.Protein>
1qkm|1qkm_protein|mol2

> <Gold.Protein.RotatedTorsions>
[  496  491  490  487 ] final  -29.40 input  -89.99 | X-H torsion

> <Gold.Protein.ActiveResidues>
 MET295  LEU298  THR299  LEU301  ALA302  GLU305  TRP335  MET336  LEU339  MET340 
 GLY342  LEU343  ARG346  PHE356  ILE373  ILE376  PHE377  LEU380  LYS471  GLY472 
 MET473  HIS475  LEU476  LEU477  ASN478  MET479  VAL484  VAL487 

> <Gold.Protein.RotatedAtoms>
   36.3124   34.5656   41.9159 H   0  0  0  0  0  0  0  0  0  0  0  0  # atno 496  bound_to 491 

> <Gold.Score>
     Score     S(PLP)   S(hbond)     S(cho)   S(metal)  DE(clash)   DE(tors)     intcor
     36.69     -33.69       1.00       0.00       0.00       0.00       0.00       0.00

> <Gold.PLP.Fitness>
36.6949

> <Gold.PLP.PLP>
-33.6949

> <Gold.PLP.part.hbond>
-2.6124

> <Gold.PLP.part.metal>
0.0000

> <Gold.PLP.part.buried>
-3.1060

> <Gold.PLP.part.nonpolar>
-27.9705

> <Gold.PLP.part.repulsive>
0.0000

> <Gold.PLP.ligand.clash>
0.0000

> <Gold.PLP.ligand.torsion>
0.0000

> <Gold.PLP.Chemscore.Hbond>
1.0000

> <Gold.PLP.Chemscore.CHOScore>
0.0000

> <Gold.PLP.Chemscore.Metal>
0.0000

> <Gold.Chemscore.Hbonds>
donor molecule, donor type, donor heavy atom, donor atom, acceptor molecule, acceptor atom, score
      L1  H     8    16       P1  3187  1.00

> <Gold.PLP.Chemscore.Internal.Correction>
0.0000

