#       Name:                EN300-5228289_i001
#       Creating user name   aseyller
#       Creation time:       Fri Apr 21 16:47:00 2023


#       File generated by GOLD software.
#

@<TRIPOS>MOLECULE
EN300-5228289_i001|aminophenols|mol2|122|dock9
    18    18     1
SMALL
USER_CHARGES


@<TRIPOS>ATOM
      1 C1          31.4533  35.8537  38.5038 C.3            1 <1>                0.0000
      2 C2          31.5317  36.7488  37.2941 C.ar           1 <1>                0.0000
      3 C3          30.8084  37.9266  37.2574 C.ar           1 <1>                0.0000
      4 C4          30.8785  38.7506  36.1490 C.ar           1 <1>                0.0000
      5 Br5         29.8863  40.3598  36.1057 Br             1 <1>                0.0000
      6 C6          31.6733  38.4005  35.0715 C.ar           1 <1>                0.0000
      7 C7          32.4006  37.2227  35.1012 C.ar           1 <1>                0.0000
      8 O8          33.1826  36.8776  34.0433 O.3            1 <1>                0.0000
      9 C9          32.3340  36.3943  36.2199 C.ar           1 <1>                0.0000
     10 N10         33.0677  35.2025  36.2553 N.pl3          1 <1>                0.0000
     11 H11         30.6417  35.1377  38.3740 H              1 <1>                0.0000
     12 H12         32.3952  35.3177  38.6210 H              1 <1>                0.0000
     13 H13         31.2663  36.4579  39.3915 H              1 <1>                0.0000
     14 H14         30.1867  38.2034  38.0961 H              1 <1>                0.0000
     15 H15         31.7262  39.0460  34.2073 H              1 <1>                0.0000
     16 H16         32.7281  36.3469  33.3748 H              1 <1>                0.0000
     17 H17         33.0154  34.6235  37.0317 H              1 <1>                0.0000
     18 H18         33.6286  34.9557  35.5033 H              1 <1>                0.0000
@<TRIPOS>BOND
    1    1    2 1     
    2    1   11 1     
    3    1   12 1     
    4    1   13 1     
    5    2    3 ar    
    6    2    9 ar    
    7    3    4 ar    
    8    3   14 1     
    9    4    5 1     
   10    4    6 ar    
   11    6    7 ar    
   12    6   15 1     
   13    7    8 1     
   14    7    9 ar    
   15    8   16 1     
   16    9   10 1     
   17   10   17 1     
   18   10   18 1     
@<TRIPOS>SUBSTRUCTURE
      1 ****           1
@<TRIPOS>SET
DONOR_HYDROGENS      STATIC     ATOMS    <user>   **** ""
3 16 17 18
ATOM$RED        STATIC     ATOMS    COLORGROUP SYSTEM
3 16 17 18
@<TRIPOS>COMMENT
> <Gold.Version>
2022.2.0

> <Gold.Id.Protein>
1qkm|1qkm_protein|mol2

> <Gold.Protein.RotatedTorsions>
[  496  491  490  487 ] final -158.22 input  -89.99 | X-H torsion

> <Gold.Protein.ActiveResidues>
 MET295  LEU298  THR299  LEU301  ALA302  GLU305  TRP335  MET336  LEU339  MET340 
 GLY342  LEU343  ARG346  PHE356  ILE373  ILE376  PHE377  LEU380  LYS471  GLY472 
 MET473  HIS475  LEU476  LEU477  ASN478  MET479  VAL484  VAL487 

> <Gold.Protein.RotatedAtoms>
   37.2684   33.7911   40.7410 H   0  0  0  0  0  0  0  0  0  0  0  0  # atno 496  bound_to 491 

> <Gold.Score>
     Score     S(PLP)   S(hbond)     S(cho)   S(metal)  DE(clash)   DE(tors)     intcor
     35.04     -32.04       1.00       0.00       0.00       0.00       0.00       0.00

> <Gold.PLP.Fitness>
35.0362

> <Gold.PLP.PLP>
-32.0362

> <Gold.PLP.part.hbond>
-1.9768

> <Gold.PLP.part.metal>
0.0000

> <Gold.PLP.part.buried>
-3.1008

> <Gold.PLP.part.nonpolar>
-27.2583

> <Gold.PLP.part.repulsive>
0.0119

> <Gold.PLP.ligand.clash>
0.0000

> <Gold.PLP.ligand.torsion>
0.0000

> <Gold.PLP.Chemscore.Hbond>
1.0000

> <Gold.PLP.Chemscore.CHOScore>
0.0000

> <Gold.PLP.Chemscore.Metal>
0.0000

> <Gold.Chemscore.Hbonds>
donor molecule, donor type, donor heavy atom, donor atom, acceptor molecule, acceptor atom, score
      L1  H     8    16       P1  3187  1.00

> <Gold.PLP.Chemscore.Internal.Correction>
0.0000

