#       Name:                EN300-5228289_i001
#       Creating user name   aseyller
#       Creation time:       Fri Apr 21 16:47:02 2023


#       File generated by GOLD software.
#

@<TRIPOS>MOLECULE
EN300-5228289_i001|aminophenols|mol2|122|dock19
    18    18     1
SMALL
USER_CHARGES


@<TRIPOS>ATOM
      1 C1          25.8183  36.6993  39.4610 C.3            1 <1>                0.0000
      2 C2          27.2243  36.9220  38.9669 C.ar           1 <1>                0.0000
      3 C3          27.4722  37.8690  37.9904 C.ar           1 <1>                0.0000
      4 C4          28.7614  38.0763  37.5351 C.ar           1 <1>                0.0000
      5 Br5         29.0930  39.3731  36.1994 Br             1 <1>                0.0000
      6 C6          29.8097  37.3372  38.0549 C.ar           1 <1>                0.0000
      7 C7          29.5691  36.3871  39.0330 C.ar           1 <1>                0.0000
      8 O8          30.5983  35.6603  39.5451 O.3            1 <1>                0.0000
      9 C9          28.2707  36.1813  39.4956 C.ar           1 <1>                0.0000
     10 N10         28.0220  35.2222  40.4847 N.pl3          1 <1>                0.0000
     11 H11         25.3366  35.9333  38.8533 H              1 <1>                0.0000
     12 H12         25.8458  36.3737  40.5009 H              1 <1>                0.0000
     13 H13         25.2552  37.6296  39.3864 H              1 <1>                0.0000
     14 H14         26.6570  38.4479  37.5821 H              1 <1>                0.0000
     15 H15         30.8155  37.5013  37.6974 H              1 <1>                0.0000
     16 H16         30.6842  35.7233  40.5062 H              1 <1>                0.0000
     17 H17         27.1169  35.0752  40.8012 H              1 <1>                0.0000
     18 H18         28.7548  34.7048  40.8538 H              1 <1>                0.0000
@<TRIPOS>BOND
    1    1    2 1     
    2    1   11 1     
    3    1   12 1     
    4    1   13 1     
    5    2    3 ar    
    6    2    9 ar    
    7    3    4 ar    
    8    3   14 1     
    9    4    5 1     
   10    4    6 ar    
   11    6    7 ar    
   12    6   15 1     
   13    7    8 1     
   14    7    9 ar    
   15    8   16 1     
   16    9   10 1     
   17   10   17 1     
   18   10   18 1     
@<TRIPOS>SUBSTRUCTURE
      1 ****           1
@<TRIPOS>SET
DONOR_HYDROGENS      STATIC     ATOMS    <user>   **** ""
3 16 17 18
ATOM$RED        STATIC     ATOMS    COLORGROUP SYSTEM
3 16 17 18
@<TRIPOS>COMMENT
> <Gold.Version>
2022.2.0

> <Gold.Id.Protein>
1qkm|1qkm_protein|mol2

> <Gold.Protein.RotatedTorsions>
[  496  491  490  487 ] final -104.82 input  -89.99 | X-H torsion

> <Gold.Protein.ActiveResidues>
 MET295  LEU298  THR299  LEU301  ALA302  GLU305  TRP335  MET336  LEU339  MET340 
 GLY342  LEU343  ARG346  PHE356  ILE373  ILE376  PHE377  LEU380  LYS471  GLY472 
 MET473  HIS475  LEU476  LEU477  ASN478  MET479  VAL484  VAL487 

> <Gold.Protein.RotatedAtoms>
   36.8937   34.5300   40.9199 H   0  0  0  0  0  0  0  0  0  0  0  0  # atno 496  bound_to 491 

> <Gold.Score>
     Score     S(PLP)   S(hbond)     S(cho)   S(metal)  DE(clash)   DE(tors)     intcor
     35.48     -32.89       0.86       0.00       0.00       0.00       0.00       0.00

> <Gold.PLP.Fitness>
35.4827

> <Gold.PLP.PLP>
-32.8907

> <Gold.PLP.part.hbond>
-1.0000

> <Gold.PLP.part.metal>
0.0000

> <Gold.PLP.part.buried>
-2.3564

> <Gold.PLP.part.nonpolar>
-29.6508

> <Gold.PLP.part.repulsive>
0.0393

> <Gold.PLP.ligand.clash>
0.0000

> <Gold.PLP.ligand.torsion>
0.0000

> <Gold.PLP.Chemscore.Hbond>
0.8640

> <Gold.PLP.Chemscore.CHOScore>
0.0000

> <Gold.PLP.Chemscore.Metal>
0.0000

> <Gold.Chemscore.Hbonds>
donor molecule, donor type, donor heavy atom, donor atom, acceptor molecule, acceptor atom, score
      L1  H     8    16       P1   470  0.86

> <Gold.PLP.Chemscore.Internal.Correction>
0.0000

