#       Name:                EN300-5228289_i001
#       Creating user name   aseyller
#       Creation time:       Fri Apr 21 16:47:00 2023


#       File generated by GOLD software.
#

@<TRIPOS>MOLECULE
EN300-5228289_i001|aminophenols|mol2|122|dock11
    18    18     1
SMALL
USER_CHARGES


@<TRIPOS>ATOM
      1 C1          29.5054  38.9989  36.3743 C.3            1 <1>                0.0000
      2 C2          29.1787  37.9719  37.4276 C.ar           1 <1>                0.0000
      3 C3          27.8824  37.8453  37.8914 C.ar           1 <1>                0.0000
      4 C4          27.5792  36.9035  38.8575 C.ar           1 <1>                0.0000
      5 Br5         25.8040  36.7361  39.4873 Br             1 <1>                0.0000
      6 C6          28.5717  36.0829  39.3644 C.ar           1 <1>                0.0000
      7 C7          29.8721  36.2039  38.9046 C.ar           1 <1>                0.0000
      8 O8          30.8485  35.3979  39.4014 O.3            1 <1>                0.0000
      9 C9          30.1772  37.1496  37.9276 C.ar           1 <1>                0.0000
     10 N10         31.4904  37.2757  37.4589 N.pl3          1 <1>                0.0000
     11 H11         29.7797  39.9379  36.8551 H              1 <1>                0.0000
     12 H12         30.3386  38.6447  35.7674 H              1 <1>                0.0000
     13 H13         28.6343  39.1572  35.7385 H              1 <1>                0.0000
     14 H14         27.1049  38.4838  37.4986 H              1 <1>                0.0000
     15 H15         28.3319  35.3483  40.1188 H              1 <1>                0.0000
     16 H16         30.8126  35.2821  40.3607 H              1 <1>                0.0000
     17 H17         31.7029  37.9389  36.7836 H              1 <1>                0.0000
     18 H18         32.1879  36.6999  37.8094 H              1 <1>                0.0000
@<TRIPOS>BOND
    1    1    2 1     
    2    1   11 1     
    3    1   12 1     
    4    1   13 1     
    5    2    3 ar    
    6    2    9 ar    
    7    3    4 ar    
    8    3   14 1     
    9    4    5 1     
   10    4    6 ar    
   11    6    7 ar    
   12    6   15 1     
   13    7    8 1     
   14    7    9 ar    
   15    8   16 1     
   16    9   10 1     
   17   10   17 1     
   18   10   18 1     
@<TRIPOS>SUBSTRUCTURE
      1 ****           1
@<TRIPOS>SET
DONOR_HYDROGENS      STATIC     ATOMS    <user>   **** ""
3 16 17 18
ATOM$RED        STATIC     ATOMS    COLORGROUP SYSTEM
3 16 17 18
@<TRIPOS>COMMENT
> <Gold.Version>
2022.2.0

> <Gold.Id.Protein>
1qkm|1qkm_protein|mol2

> <Gold.Protein.RotatedTorsions>
[  496  491  490  487 ] final  161.21 input  -89.99 | X-H torsion

> <Gold.Protein.ActiveResidues>
 MET295  LEU298  THR299  LEU301  ALA302  GLU305  TRP335  MET336  LEU339  MET340 
 GLY342  LEU343  ARG346  PHE356  ILE373  ILE376  PHE377  LEU380  LYS471  GLY472 
 MET473  HIS475  LEU476  LEU477  ASN478  MET479  VAL484  VAL487 

> <Gold.Protein.RotatedAtoms>
   37.2998   33.2190   41.0560 H   0  0  0  0  0  0  0  0  0  0  0  0  # atno 496  bound_to 491 

> <Gold.Score>
     Score     S(PLP)   S(hbond)     S(cho)   S(metal)  DE(clash)   DE(tors)     intcor
     34.56     -31.73       0.94       0.00       0.00       0.00       0.00       0.00

> <Gold.PLP.Fitness>
34.5645

> <Gold.PLP.PLP>
-31.7325

> <Gold.PLP.part.hbond>
-1.0000

> <Gold.PLP.part.metal>
0.0000

> <Gold.PLP.part.buried>
-1.9437

> <Gold.PLP.part.nonpolar>
-28.4408

> <Gold.PLP.part.repulsive>
0.0000

> <Gold.PLP.ligand.clash>
0.0000

> <Gold.PLP.ligand.torsion>
0.0000

> <Gold.PLP.Chemscore.Hbond>
0.9440

> <Gold.PLP.Chemscore.CHOScore>
0.0000

> <Gold.PLP.Chemscore.Metal>
0.0000

> <Gold.Chemscore.Hbonds>
donor molecule, donor type, donor heavy atom, donor atom, acceptor molecule, acceptor atom, score
      L1  H     8    16       P1   470  0.94

> <Gold.PLP.Chemscore.Internal.Correction>
0.0000

