#       Name:                EN300-5228289_i001
#       Creating user name   aseyller
#       Creation time:       Fri Apr 21 16:47:01 2023


#       File generated by GOLD software.
#

@<TRIPOS>MOLECULE
EN300-5228289_i001|aminophenols|mol2|122|dock15
    18    18     1
SMALL
USER_CHARGES


@<TRIPOS>ATOM
      1 C1          30.8616  38.9059  36.6035 C.3            1 <1>                0.0000
      2 C2          30.3003  37.8404  37.5093 C.ar           1 <1>                0.0000
      3 C3          28.9769  37.8967  37.9057 C.ar           1 <1>                0.0000
      4 C4          28.4585  36.9202  38.7364 C.ar           1 <1>                0.0000
      5 Br5         26.6476  37.0036  39.2746 Br             1 <1>                0.0000
      6 C6          29.2617  35.8818  39.1746 C.ar           1 <1>                0.0000
      7 C7          30.5879  35.8189  38.7817 C.ar           1 <1>                0.0000
      8 O8          31.3783  34.7988  39.2111 O.3            1 <1>                0.0000
      9 C9          31.1095  36.8001  37.9407 C.ar           1 <1>                0.0000
     10 N10         32.4496  36.7409  37.5400 N.pl3          1 <1>                0.0000
     11 H11         31.2666  39.7188  37.2062 H              1 <1>                0.0000
     12 H12         31.6544  38.4797  35.9888 H              1 <1>                0.0000
     13 H13         30.0700  39.2901  35.9603 H              1 <1>                0.0000
     14 H14         28.3466  38.7054  37.5661 H              1 <1>                0.0000
     15 H15         28.8541  35.1206  39.8232 H              1 <1>                0.0000
     16 H16         31.4811  34.7584  40.1717 H              1 <1>                0.0000
     17 H17         32.8133  37.4281  36.9600 H              1 <1>                0.0000
     18 H18         33.0146  36.0127  37.8424 H              1 <1>                0.0000
@<TRIPOS>BOND
    1    1    2 1     
    2    1   11 1     
    3    1   12 1     
    4    1   13 1     
    5    2    3 ar    
    6    2    9 ar    
    7    3    4 ar    
    8    3   14 1     
    9    4    5 1     
   10    4    6 ar    
   11    6    7 ar    
   12    6   15 1     
   13    7    8 1     
   14    7    9 ar    
   15    8   16 1     
   16    9   10 1     
   17   10   17 1     
   18   10   18 1     
@<TRIPOS>SUBSTRUCTURE
      1 ****           1
@<TRIPOS>SET
DONOR_HYDROGENS      STATIC     ATOMS    <user>   **** ""
3 16 17 18
ATOM$RED        STATIC     ATOMS    COLORGROUP SYSTEM
3 16 17 18
@<TRIPOS>COMMENT
> <Gold.Version>
2022.2.0

> <Gold.Id.Protein>
1qkm|1qkm_protein|mol2

> <Gold.Protein.RotatedTorsions>
[  496  491  490  487 ] final  158.03 input  -89.99 | X-H torsion

> <Gold.Protein.ActiveResidues>
 MET295  LEU298  THR299  LEU301  ALA302  GLU305  TRP335  MET336  LEU339  MET340 
 GLY342  LEU343  ARG346  PHE356  ILE373  ILE376  PHE377  LEU380  LYS471  GLY472 
 MET473  HIS475  LEU476  LEU477  ASN478  MET479  VAL484  VAL487 

> <Gold.Protein.RotatedAtoms>
   37.2912   33.1838   41.0939 H   0  0  0  0  0  0  0  0  0  0  0  0  # atno 496  bound_to 491 

> <Gold.Score>
     Score     S(PLP)   S(hbond)     S(cho)   S(metal)  DE(clash)   DE(tors)     intcor
     33.43     -30.43       1.00       0.00       0.00       0.00       0.00       0.00

> <Gold.PLP.Fitness>
33.4337

> <Gold.PLP.PLP>
-30.4337

> <Gold.PLP.part.hbond>
-1.0000

> <Gold.PLP.part.metal>
0.0000

> <Gold.PLP.part.buried>
-2.1611

> <Gold.PLP.part.nonpolar>
-27.7139

> <Gold.PLP.part.repulsive>
0.0125

> <Gold.PLP.ligand.clash>
0.0000

> <Gold.PLP.ligand.torsion>
0.0000

> <Gold.PLP.Chemscore.Hbond>
1.0000

> <Gold.PLP.Chemscore.CHOScore>
0.0000

> <Gold.PLP.Chemscore.Metal>
0.0000

> <Gold.Chemscore.Hbonds>
donor molecule, donor type, donor heavy atom, donor atom, acceptor molecule, acceptor atom, score
      L1  H     8    16       P1   470  1.00

> <Gold.PLP.Chemscore.Internal.Correction>
0.0000

