#       Name:                EN300-5228289_i001
#       Creating user name   aseyller
#       Creation time:       Fri Apr 21 16:47:02 2023


#       File generated by GOLD software.
#

@<TRIPOS>MOLECULE
EN300-5228289_i001|aminophenols|mol2|122|dock17
    18    18     1
SMALL
USER_CHARGES


@<TRIPOS>ATOM
      1 C1          32.0975  34.2762  37.8537 C.3            1 <1>                0.0000
      2 C2          31.1115  35.3432  38.2541 C.ar           1 <1>                0.0000
      3 C3          30.2635  35.1340  39.3259 C.ar           1 <1>                0.0000
      4 C4          29.3580  36.1113  39.6963 C.ar           1 <1>                0.0000
      5 Br5         28.2012  35.8183  41.1632 Br             1 <1>                0.0000
      6 C6          29.2965  37.3036  38.9962 C.ar           1 <1>                0.0000
      7 C7          30.1426  37.5201  37.9218 C.ar           1 <1>                0.0000
      8 O8          30.0837  38.6915  37.2331 O.3            1 <1>                0.0000
      9 C9          31.0586  36.5375  37.5512 C.ar           1 <1>                0.0000
     10 N10         31.9168  36.7516  36.4659 N.pl3          1 <1>                0.0000
     11 H11         31.6361  33.6105  37.1243 H              1 <1>                0.0000
     12 H12         32.9788  34.7425  37.4135 H              1 <1>                0.0000
     13 H13         32.3907  33.7037  38.7337 H              1 <1>                0.0000
     14 H14         30.3082  34.2050  39.8749 H              1 <1>                0.0000
     15 H15         28.5883  38.0650  39.2877 H              1 <1>                0.0000
     16 H16         30.8352  38.8388  36.6428 H              1 <1>                0.0000
     17 H17         32.5494  36.0642  36.2047 H              1 <1>                0.0000
     18 H18         31.8788  37.5874  35.9751 H              1 <1>                0.0000
@<TRIPOS>BOND
    1    1    2 1     
    2    1   11 1     
    3    1   12 1     
    4    1   13 1     
    5    2    3 ar    
    6    2    9 ar    
    7    3    4 ar    
    8    3   14 1     
    9    4    5 1     
   10    4    6 ar    
   11    6    7 ar    
   12    6   15 1     
   13    7    8 1     
   14    7    9 ar    
   15    8   16 1     
   16    9   10 1     
   17   10   17 1     
   18   10   18 1     
@<TRIPOS>SUBSTRUCTURE
      1 ****           1
@<TRIPOS>SET
DONOR_HYDROGENS      STATIC     ATOMS    <user>   **** ""
3 16 17 18
ATOM$RED        STATIC     ATOMS    COLORGROUP SYSTEM
3 16 17 18
@<TRIPOS>COMMENT
> <Gold.Version>
2022.2.0

> <Gold.Id.Protein>
1qkm|1qkm_protein|mol2

> <Gold.Protein.RotatedTorsions>
[  496  491  490  487 ] final -166.44 input  -89.99 | X-H torsion

> <Gold.Protein.ActiveResidues>
 MET295  LEU298  THR299  LEU301  ALA302  GLU305  TRP335  MET336  LEU339  MET340 
 GLY342  LEU343  ARG346  PHE356  ILE373  ILE376  PHE377  LEU380  LYS471  GLY472 
 MET473  HIS475  LEU476  LEU477  ASN478  MET479  VAL484  VAL487 

> <Gold.Protein.RotatedAtoms>
   37.2957   33.6634   40.7757 H   0  0  0  0  0  0  0  0  0  0  0  0  # atno 496  bound_to 491 

> <Gold.Score>
     Score     S(PLP)   S(hbond)     S(cho)   S(metal)  DE(clash)   DE(tors)     intcor
     32.22     -32.22       0.00       0.00       0.00       0.00       0.00       0.00

> <Gold.PLP.Fitness>
32.2219

> <Gold.PLP.PLP>
-32.2219

> <Gold.PLP.part.hbond>
0.0000

> <Gold.PLP.part.metal>
0.0000

> <Gold.PLP.part.buried>
-1.7538

> <Gold.PLP.part.nonpolar>
-30.6124

> <Gold.PLP.part.repulsive>
0.0000

> <Gold.PLP.ligand.clash>
0.0000

> <Gold.PLP.ligand.torsion>
0.0000

> <Gold.PLP.Chemscore.Hbond>
0.0000

> <Gold.PLP.Chemscore.CHOScore>
0.0000

> <Gold.PLP.Chemscore.Metal>
0.0000

> <Gold.PLP.Chemscore.Internal.Correction>
0.0000

