#       Name:                plp ligand
#       Creating user name   aseyller
#       Creation time:       Fri Apr 21 16:46:57 2023


#       File generated by GOLD software.
#

@<TRIPOS>MOLECULE
plp ligand
    18    18     1
SMALL
USER_CHARGES


@<TRIPOS>ATOM
      1 C1          -0.7219   2.1841  -0.0328 NONPOLAR       1 <1>                0.0000
      2 C2           0.0244   0.8750  -0.0429 NONPOLAR       1 <1>                0.0000
      3 C3           1.4070   0.8672  -0.0390 NONPOLAR       1 <1>                0.0000
      4 C4           2.0949  -0.3324  -0.0477 NONPOLAR       1 <1>                0.0000
      5 Br5          3.9859  -0.3354  -0.0424 NONPOLAR       1 <1>                0.0000
      6 C6           1.4028  -1.5308  -0.0599 NONPOLAR       1 <1>                0.0000
      7 C7           0.0182  -1.5308  -0.0638 NONPOLAR       1 <1>                0.0000
      8 O8          -0.6634  -2.7077  -0.0753 DONACC         1 <1>                0.0000
      9 C9          -0.6755  -0.3222  -0.0502 NONPOLAR       1 <1>                0.0000
     10 N10         -2.0755  -0.3166  -0.0536 DONOR          1 <1>                0.0000
     11 H11         -0.8990   2.5093  -1.0580                1 <1>                0.0000
     12 H12         -1.6765   2.0543   0.4771                1 <1>                0.0000
     13 H13         -0.1302   2.9357   0.4897                1 <1>                0.0000
     14 H14          1.9510   1.8002  -0.0296                1 <1>                0.0000
     15 H15          1.9427  -2.4661  -0.0666                1 <1>                0.0000
     16 H16         -0.8630  -3.0552   0.8047                1 <1>                0.0000
     17 H17         -2.5573   0.5254  -0.0509                1 <1>                0.0000
     18 H18         -2.5639  -1.1546  -0.0587                1 <1>                0.0000
@<TRIPOS>BOND
    1    1    2 1     
    2    1   11 1     
    3    1   12 1     
    4    1   13 1     
    5    2    3 ar    
    6    2    9 ar    
    7    3    4 ar    
    8    3   14 1     
    9    4    5 1     
   10    4    6 ar    
   11    6    7 ar    
   12    6   15 1     
   13    7    8 1     
   14    7    9 ar    
   15    8   16 1     
   16    9   10 1     
   17   10   17 1     
   18   10   18 1     
@<TRIPOS>SUBSTRUCTURE
      1 ****           1
@<TRIPOS>SET
DONOR_HYDROGENS      STATIC     ATOMS    <user>   **** ""
3 16 17 18
ATOM$RED        STATIC     ATOMS    COLORGROUP SYSTEM
3 16 17 18
