#       Name:                EN300-128560_i001
#       Creating user name   aseyller
#       Creation time:       Fri Apr 21 19:12:55 2023


#       File generated by GOLD software.
#

@<TRIPOS>MOLECULE
EN300-128560_i001|benzaldehydes|mol2|755|dock4
    19    19     1
SMALL
USER_CHARGES


@<TRIPOS>ATOM
      1 C1          30.8620  36.9228  38.2014 C.3            1 <1>                0.0000
      2 C2          29.3960  37.2717  38.2078 C.ar           1 <1>                0.0000
      3 C3          28.5495  36.6683  39.1140 C.ar           1 <1>                0.0000
      4 C4          27.1895  36.9937  39.1185 C.ar           1 <1>                0.0000
      5 C5          26.2793  36.3549  40.0825 C.2            1 <1>                0.0000
      6 O6          26.7143  35.5731  40.9008 O.2            1 <1>                0.0000
      7 C7          26.6988  37.9300  38.2025 C.ar           1 <1>                0.0000
      8 C8          27.5579  38.5244  37.3029 C.ar           1 <1>                0.0000
      9 C9          28.9038  38.2008  37.3082 C.ar           1 <1>                0.0000
     10 N10         29.8192  38.8437  36.3390 N.pl3          1 <1>                0.0000
     11 O11         29.7317  40.0384  36.1186 O.2            1 <1>                0.0000
     12 O12         30.6603  38.1780  35.7618 O.2            1 <1>                0.0000
     13 H13         31.0491  36.1531  37.4527 H              1 <1>                0.0000
     14 H14         31.4460  37.8116  37.9625 H              1 <1>                0.0000
     15 H15         31.1514  36.5513  39.1845 H              1 <1>                0.0000
     16 H16         28.9357  35.9461  39.8179 H              1 <1>                0.0000
     17 H17         25.2238  36.5825  40.0608 H              1 <1>                0.0000
     18 H18         25.6497  38.1862  38.1996 H              1 <1>                0.0000
     19 H19         27.1805  39.2474  36.5949 H              1 <1>                0.0000
@<TRIPOS>BOND
    1    1    2 1     
    2    1   13 1     
    3    1   14 1     
    4    1   15 1     
    5    2    3 ar    
    6    2    9 ar    
    7    3    4 ar    
    8    3   16 1     
    9    4    5 1     
   10    4    7 ar    
   11    5    6 2     
   12    5   17 1     
   13    7    8 ar    
   14    7   18 1     
   15    8    9 ar    
   16    8   19 1     
   17    9   10 1     
   18   10   11 2     
   19   10   12 2     
@<TRIPOS>SUBSTRUCTURE
      1 ****           1
@<TRIPOS>COMMENT
> <Gold.Version>
2022.2.0

> <Gold.Id.Protein>
1qkm|1qkm_protein|mol2

> <Gold.Protein.RotatedTorsions>
[  496  491  490  487 ] final  130.98 input  -89.99 | X-H torsion

> <Gold.Protein.ActiveResidues>
 MET295  LEU298  THR299  LEU301  ALA302  GLU305  TRP335  MET336  LEU339  MET340 
 GLY342  LEU343  ARG346  PHE356  ILE373  ILE376  PHE377  LEU380  LYS471  GLY472 
 MET473  HIS475  LEU476  LEU477  ASN478  MET479  VAL484  VAL487 

> <Gold.Protein.RotatedAtoms>
   37.1595   32.9753   41.4597 H   0  0  0  0  0  0  0  0  0  0  0  0  # atno 496  bound_to 491 

> <Gold.Score>
     Score     S(PLP)   S(hbond)     S(cho)   S(metal)  DE(clash)   DE(tors)     intcor
     35.83     -35.84       0.00       0.00       0.00       0.00       0.69       1.38

> <Gold.PLP.Fitness>
35.8345

> <Gold.PLP.PLP>
-35.8414

> <Gold.PLP.part.hbond>
0.0000

> <Gold.PLP.part.metal>
0.0000

> <Gold.PLP.part.buried>
-3.7826

> <Gold.PLP.part.nonpolar>
-32.3697

> <Gold.PLP.part.repulsive>
0.2171

> <Gold.PLP.ligand.clash>
0.0000

> <Gold.PLP.ligand.torsion>
0.6941

> <Gold.PLP.Chemscore.Hbond>
0.0000

> <Gold.PLP.Chemscore.CHOScore>
0.0000

> <Gold.PLP.Chemscore.Metal>
0.0000

> <Gold.PLP.Chemscore.Internal.Correction>
1.3814

