#       Name:                EN300-128560_i001
#       Creating user name   aseyller
#       Creation time:       Fri Apr 21 19:12:57 2023


#       File generated by GOLD software.
#

@<TRIPOS>MOLECULE
EN300-128560_i001|benzaldehydes|mol2|755|dock7
    19    19     1
SMALL
USER_CHARGES


@<TRIPOS>ATOM
      1 C1          29.3447  38.1933  37.8824 C.3            1 <1>                0.0000
      2 C2          30.3836  37.1039  37.8133 C.ar           1 <1>                0.0000
      3 C3          31.3220  37.1117  36.8028 C.ar           1 <1>                0.0000
      4 C4          32.2854  36.1000  36.7407 C.ar           1 <1>                0.0000
      5 C5          33.2909  36.1010  35.6660 C.2            1 <1>                0.0000
      6 O6          33.2861  36.9811  34.8321 O.2            1 <1>                0.0000
      7 C7          32.2889  35.0874  37.7057 C.ar           1 <1>                0.0000
      8 C8          31.3441  35.0937  38.7096 C.ar           1 <1>                0.0000
      9 C9          30.3969  36.1015  38.7672 C.ar           1 <1>                0.0000
     10 N10         29.3861  36.1007  39.8483 N.pl3          1 <1>                0.0000
     11 O11         29.3715  37.0004  40.6692 O.2            1 <1>                0.0000
     12 O12         28.5686  35.2004  39.9171 O.2            1 <1>                0.0000
     13 H13         28.4292  37.8536  37.3981 H              1 <1>                0.0000
     14 H14         29.1370  38.4318  38.9255 H              1 <1>                0.0000
     15 H15         29.7164  39.0827  37.3735 H              1 <1>                0.0000
     16 H16         31.3127  37.8966  36.0612 H              1 <1>                0.0000
     17 H17         34.0329  35.3176  35.6202 H              1 <1>                0.0000
     18 H18         33.0296  34.3026  37.6642 H              1 <1>                0.0000
     19 H19         31.3454  34.3125  39.4553 H              1 <1>                0.0000
@<TRIPOS>BOND
    1    1    2 1     
    2    1   13 1     
    3    1   14 1     
    4    1   15 1     
    5    2    3 ar    
    6    2    9 ar    
    7    3    4 ar    
    8    3   16 1     
    9    4    5 1     
   10    4    7 ar    
   11    5    6 2     
   12    5   17 1     
   13    7    8 ar    
   14    7   18 1     
   15    8    9 ar    
   16    8   19 1     
   17    9   10 1     
   18   10   11 2     
   19   10   12 2     
@<TRIPOS>SUBSTRUCTURE
      1 ****           1
@<TRIPOS>COMMENT
> <Gold.Version>
2022.2.0

> <Gold.Id.Protein>
1qkm|1qkm_protein|mol2

> <Gold.Protein.RotatedTorsions>
[  496  491  490  487 ] final  175.78 input  -89.99 | X-H torsion

> <Gold.Protein.ActiveResidues>
 MET295  LEU298  THR299  LEU301  ALA302  GLU305  TRP335  MET336  LEU339  MET340 
 GLY342  LEU343  ARG346  PHE356  ILE373  ILE376  PHE377  LEU380  LYS471  GLY472 
 MET473  HIS475  LEU476  LEU477  ASN478  MET479  VAL484  VAL487 

> <Gold.Protein.RotatedAtoms>
   37.3187   33.4026   40.9040 H   0  0  0  0  0  0  0  0  0  0  0  0  # atno 496  bound_to 491 

> <Gold.Score>
     Score     S(PLP)   S(hbond)     S(cho)   S(metal)  DE(clash)   DE(tors)     intcor
     35.03     -36.10       0.00       0.00       0.00       0.00       1.23       1.38

> <Gold.PLP.Fitness>
35.0260

> <Gold.PLP.PLP>
-36.0957

> <Gold.PLP.part.hbond>
0.0000

> <Gold.PLP.part.metal>
0.0000

> <Gold.PLP.part.buried>
-4.2614

> <Gold.PLP.part.nonpolar>
-32.4197

> <Gold.PLP.part.repulsive>
0.3184

> <Gold.PLP.ligand.clash>
0.0000

> <Gold.PLP.ligand.torsion>
1.2255

> <Gold.PLP.Chemscore.Hbond>
0.0000

> <Gold.PLP.Chemscore.CHOScore>
0.0000

> <Gold.PLP.Chemscore.Metal>
0.0000

> <Gold.PLP.Chemscore.Internal.Correction>
1.3814

