#       Name:                EN300-128560_i001
#       Creating user name   aseyller
#       Creation time:       Fri Apr 21 19:12:56 2023


#       File generated by GOLD software.
#

@<TRIPOS>MOLECULE
EN300-128560_i001|benzaldehydes|mol2|755|dock6
    19    19     1
SMALL
USER_CHARGES


@<TRIPOS>ATOM
      1 C1          28.4808  38.9480  36.9986 C.3            1 <1>                0.0000
      2 C2          29.2048  37.8553  37.7422 C.ar           1 <1>                0.0000
      3 C3          28.6774  37.3552  38.9144 C.ar           1 <1>                0.0000
      4 C4          29.3505  36.3411  39.6027 C.ar           1 <1>                0.0000
      5 C5          28.7946  35.8013  40.8538 C.2            1 <1>                0.0000
      6 O6          27.6944  36.1477  41.2275 O.2            1 <1>                0.0000
      7 C7          30.5548  35.8418  39.0955 C.ar           1 <1>                0.0000
      8 C8          31.0689  36.3522  37.9226 C.ar           1 <1>                0.0000
      9 C9          30.3939  37.3525  37.2443 C.ar           1 <1>                0.0000
     10 N10         30.9529  37.8949  35.9858 N.pl3          1 <1>                0.0000
     11 O11         31.4219  37.1403  35.1526 O.2            1 <1>                0.0000
     12 O12         30.9437  39.0960  35.7831 O.2            1 <1>                0.0000
     13 H13         28.8957  39.9158  37.2805 H              1 <1>                0.0000
     14 H14         28.6021  38.7992  35.9257 H              1 <1>                0.0000
     15 H15         27.4210  38.9193  37.2519 H              1 <1>                0.0000
     16 H16         27.7474  37.7461  39.2998 H              1 <1>                0.0000
     17 H17         29.3668  35.0968  41.4391 H              1 <1>                0.0000
     18 H18         31.0806  35.0588  39.6216 H              1 <1>                0.0000
     19 H19         31.9986  35.9679  37.5298 H              1 <1>                0.0000
@<TRIPOS>BOND
    1    1    2 1     
    2    1   13 1     
    3    1   14 1     
    4    1   15 1     
    5    2    3 ar    
    6    2    9 ar    
    7    3    4 ar    
    8    3   16 1     
    9    4    5 1     
   10    4    7 ar    
   11    5    6 2     
   12    5   17 1     
   13    7    8 ar    
   14    7   18 1     
   15    8    9 ar    
   16    8   19 1     
   17    9   10 1     
   18   10   11 2     
   19   10   12 2     
@<TRIPOS>SUBSTRUCTURE
      1 ****           1
@<TRIPOS>COMMENT
> <Gold.Version>
2022.2.0

> <Gold.Id.Protein>
1qkm|1qkm_protein|mol2

> <Gold.Protein.RotatedTorsions>
[  496  491  490  487 ] final   63.05 input  -89.99 | X-H torsion

> <Gold.Protein.ActiveResidues>
 MET295  LEU298  THR299  LEU301  ALA302  GLU305  TRP335  MET336  LEU339  MET340 
 GLY342  LEU343  ARG346  PHE356  ILE373  ILE376  PHE377  LEU380  LYS471  GLY472 
 MET473  HIS475  LEU476  LEU477  ASN478  MET479  VAL484  VAL487 

> <Gold.Protein.RotatedAtoms>
   36.5771   33.2809   42.2830 H   0  0  0  0  0  0  0  0  0  0  0  0  # atno 496  bound_to 491 

> <Gold.Score>
     Score     S(PLP)   S(hbond)     S(cho)   S(metal)  DE(clash)   DE(tors)     intcor
     34.07     -34.09       0.00       0.00       0.00       0.00       0.70       1.38

> <Gold.PLP.Fitness>
34.0666

> <Gold.PLP.PLP>
-34.0861

> <Gold.PLP.part.hbond>
0.0000

> <Gold.PLP.part.metal>
0.0000

> <Gold.PLP.part.buried>
-3.3165

> <Gold.PLP.part.nonpolar>
-31.1159

> <Gold.PLP.part.repulsive>
0.1867

> <Gold.PLP.ligand.clash>
0.0000

> <Gold.PLP.ligand.torsion>
0.7004

> <Gold.PLP.Chemscore.Hbond>
0.0000

> <Gold.PLP.Chemscore.CHOScore>
0.0000

> <Gold.PLP.Chemscore.Metal>
0.0000

> <Gold.PLP.Chemscore.Internal.Correction>
1.3814

