#       Name:                EN300-128560_i001
#       Creating user name   aseyller
#       Creation time:       Fri Apr 21 19:12:55 2023


#       File generated by GOLD software.
#

@<TRIPOS>MOLECULE
EN300-128560_i001|benzaldehydes|mol2|755|dock3
    19    19     1
SMALL
USER_CHARGES


@<TRIPOS>ATOM
      1 C1          31.8977  33.7910  38.1527 C.3            1 <1>                0.0000
      2 C2          31.1809  35.0955  38.3886 C.ar           1 <1>                0.0000
      3 C3          30.2501  35.1954  39.4013 C.ar           1 <1>                0.0000
      4 C4          29.5864  36.4068  39.6187 C.ar           1 <1>                0.0000
      5 C5          28.5921  36.5222  40.6975 C.2            1 <1>                0.0000
      6 O6          28.4510  35.6168  41.4914 O.2            1 <1>                0.0000
      7 C7          29.8728  37.5085  38.8059 C.ar           1 <1>                0.0000
      8 C8          30.8059  37.3926  37.7976 C.ar           1 <1>                0.0000
      9 C9          31.4625  36.1914  37.5921 C.ar           1 <1>                0.0000
     10 N10         32.4628  36.0756  36.5074 N.pl3          1 <1>                0.0000
     11 O11         32.2358  36.5636  35.4147 O.2            1 <1>                0.0000
     12 O12         33.5132  35.4923  36.7075 O.2            1 <1>                0.0000
     13 H13         31.3858  33.2315  37.3698 H              1 <1>                0.0000
     14 H14         32.9240  33.9909  37.8448 H              1 <1>                0.0000
     15 H15         31.9017  33.2071  39.0731 H              1 <1>                0.0000
     16 H16         30.0341  34.3402  40.0245 H              1 <1>                0.0000
     17 H17         27.9881  37.4136  40.7819 H              1 <1>                0.0000
     18 H18         29.3641  38.4473  38.9674 H              1 <1>                0.0000
     19 H19         31.0281  38.2423  37.1691 H              1 <1>                0.0000
@<TRIPOS>BOND
    1    1    2 1     
    2    1   13 1     
    3    1   14 1     
    4    1   15 1     
    5    2    3 ar    
    6    2    9 ar    
    7    3    4 ar    
    8    3   16 1     
    9    4    5 1     
   10    4    7 ar    
   11    5    6 2     
   12    5   17 1     
   13    7    8 ar    
   14    7   18 1     
   15    8    9 ar    
   16    8   19 1     
   17    9   10 1     
   18   10   11 2     
   19   10   12 2     
@<TRIPOS>SUBSTRUCTURE
      1 ****           1
@<TRIPOS>COMMENT
> <Gold.Version>
2022.2.0

> <Gold.Id.Protein>
1qkm|1qkm_protein|mol2

> <Gold.Protein.RotatedTorsions>
[  496  491  490  487 ] final  -39.61 input  -89.99 | X-H torsion

> <Gold.Protein.ActiveResidues>
 MET295  LEU298  THR299  LEU301  ALA302  GLU305  TRP335  MET336  LEU339  MET340 
 GLY342  LEU343  ARG346  PHE356  ILE373  ILE376  PHE377  LEU380  LYS471  GLY472 
 MET473  HIS475  LEU476  LEU477  ASN478  MET479  VAL484  VAL487 

> <Gold.Protein.RotatedAtoms>
   36.3611   34.6473   41.7778 H   0  0  0  0  0  0  0  0  0  0  0  0  # atno 496  bound_to 491 

> <Gold.Score>
     Score     S(PLP)   S(hbond)     S(cho)   S(metal)  DE(clash)   DE(tors)     intcor
     37.69     -37.73       0.00       0.00       0.00       0.00       0.71       1.39

> <Gold.PLP.Fitness>
37.6940

> <Gold.PLP.PLP>
-37.7316

> <Gold.PLP.part.hbond>
0.0000

> <Gold.PLP.part.metal>
0.0000

> <Gold.PLP.part.buried>
-3.2643

> <Gold.PLP.part.nonpolar>
-34.8729

> <Gold.PLP.part.repulsive>
0.2511

> <Gold.PLP.ligand.clash>
0.0000

> <Gold.PLP.ligand.torsion>
0.7142

> <Gold.PLP.Chemscore.Hbond>
0.0000

> <Gold.PLP.Chemscore.CHOScore>
0.0000

> <Gold.PLP.Chemscore.Metal>
0.0000

> <Gold.PLP.Chemscore.Internal.Correction>
1.3909

