#       Name:                EN300-128560_i001
#       Creating user name   aseyller
#       Creation time:       Fri Apr 21 19:12:54 2023


#       File generated by GOLD software.
#

@<TRIPOS>MOLECULE
EN300-128560_i001
    19    19     1
SMALL
USER_CHARGES


@<TRIPOS>ATOM
      1 C1          -1.4663   1.8405   0.1631 C.3            1 <1>                0.0000
      2 C2          -0.5228   0.6701   0.0584 C.ar           1 <1>                0.0000
      3 C3           0.8399   0.8818   0.0740 C.ar           1 <1>                0.0000
      4 C4           1.7137  -0.2056  -0.0229 C.ar           1 <1>                0.0000
      5 C5           3.1692   0.0113  -0.0065 C.2            1 <1>                0.0000
      6 O6           3.9240  -0.9338  -0.0906 O.2            1 <1>                0.0000
      7 C7           1.1972  -1.5007  -0.1349 C.ar           1 <1>                0.0000
      8 C8          -0.1675  -1.6958  -0.1491 C.ar           1 <1>                0.0000
      9 C9          -1.0259  -0.6146  -0.0475 C.ar           1 <1>                0.0000
     10 N10         -2.4897  -0.8329  -0.0635 N.pl3          1 <1>                0.0000
     11 O11         -2.9656  -1.8115   0.4837 O.2            1 <1>                0.0000
     12 O12         -3.2185  -0.0338  -0.6238 O.2            1 <1>                0.0000
     13 H13         -1.7759   2.1481  -0.8357 H              1 <1>                0.0000
     14 H14         -2.3430   1.5498   0.7419 H              1 <1>                0.0000
     15 H15         -0.9624   2.6702   0.6589 H              1 <1>                0.0000
     16 H16          1.2311   1.8847   0.1604 H              1 <1>                0.0000
     17 H17          3.5649   1.0124   0.0805 H              1 <1>                0.0000
     18 H18          1.8657  -2.3455  -0.2105 H              1 <1>                0.0000
     19 H19         -0.5678  -2.6951  -0.2356 H              1 <1>                0.0000
@<TRIPOS>BOND
    1    1    2 1     
    2    1   13 1     
    3    1   14 1     
    4    1   15 1     
    5    2    3 ar    
    6    2    9 ar    
    7    3    4 ar    
    8    3   16 1     
    9    4    5 1     
   10    4    7 ar    
   11    5    6 2     
   12    5   17 1     
   13    7    8 ar    
   14    7   18 1     
   15    8    9 ar    
   16    8   19 1     
   17    9   10 1     
   18   10   11 2     
   19   10   12 2     
@<TRIPOS>SUBSTRUCTURE
      1 ****           1
