#       Name:                EN300-128560_i001
#       Creating user name   aseyller
#       Creation time:       Fri Apr 21 19:13:01 2023


#       File generated by GOLD software.
#

@<TRIPOS>MOLECULE
EN300-128560_i001|benzaldehydes|mol2|755|dock18
    19    19     1
SMALL
USER_CHARGES


@<TRIPOS>ATOM
      1 C1          28.4998  36.3670  41.8548 C.3            1 <1>                0.0000
      2 C2          28.6370  36.5963  40.3717 C.ar           1 <1>                0.0000
      3 C3          29.8877  36.6101  39.7908 C.ar           1 <1>                0.0000
      4 C4          30.0128  36.8227  38.4144 C.ar           1 <1>                0.0000
      5 C5          31.3437  36.8384  37.7863 C.2            1 <1>                0.0000
      6 O6          31.4514  37.0619  36.5995 O.2            1 <1>                0.0000
      7 C7          28.8665  37.0197  37.6375 C.ar           1 <1>                0.0000
      8 C8          27.6233  37.0032  38.2331 C.ar           1 <1>                0.0000
      9 C9          27.5074  36.7869  39.5955 C.ar           1 <1>                0.0000
     10 N10         26.1689  36.7706  40.2269 N.pl3          1 <1>                0.0000
     11 O11         25.9009  35.9281  41.0647 O.2            1 <1>                0.0000
     12 O12         25.3354  37.5999  39.9089 O.2            1 <1>                0.0000
     13 H13         28.4288  37.3271  42.3659 H              1 <1>                0.0000
     14 H14         27.6000  35.7838  42.0506 H              1 <1>                0.0000
     15 H15         29.3713  35.8242  42.2207 H              1 <1>                0.0000
     16 H16         30.7681  36.4576  40.3974 H              1 <1>                0.0000
     17 H17         32.2243  36.6509  38.3827 H              1 <1>                0.0000
     18 H18         28.9551  37.1849  36.5739 H              1 <1>                0.0000
     19 H19         26.7373  37.1552  37.6346 H              1 <1>                0.0000
@<TRIPOS>BOND
    1    1    2 1     
    2    1   13 1     
    3    1   14 1     
    4    1   15 1     
    5    2    3 ar    
    6    2    9 ar    
    7    3    4 ar    
    8    3   16 1     
    9    4    5 1     
   10    4    7 ar    
   11    5    6 2     
   12    5   17 1     
   13    7    8 ar    
   14    7   18 1     
   15    8    9 ar    
   16    8   19 1     
   17    9   10 1     
   18   10   11 2     
   19   10   12 2     
@<TRIPOS>SUBSTRUCTURE
      1 ****           1
@<TRIPOS>COMMENT
> <Gold.Version>
2022.2.0

> <Gold.Id.Protein>
1qkm|1qkm_protein|mol2

> <Gold.Protein.RotatedTorsions>
[  496  491  490  487 ] final  -24.96 input  -89.99 | X-H torsion

> <Gold.Protein.ActiveResidues>
 MET295  LEU298  THR299  LEU301  ALA302  GLU305  TRP335  MET336  LEU339  MET340 
 GLY342  LEU343  ARG346  PHE356  ILE373  ILE376  PHE377  LEU380  LYS471  GLY472 
 MET473  HIS475  LEU476  LEU477  ASN478  MET479  VAL484  VAL487 

> <Gold.Protein.RotatedAtoms>
   36.2959   34.5227   41.9727 H   0  0  0  0  0  0  0  0  0  0  0  0  # atno 496  bound_to 491 

> <Gold.Score>
     Score     S(PLP)   S(hbond)     S(cho)   S(metal)  DE(clash)   DE(tors)     intcor
     35.42     -35.43       0.00       0.00       0.00       0.00       0.69       1.37

> <Gold.PLP.Fitness>
35.4226

> <Gold.PLP.PLP>
-35.4299

> <Gold.PLP.part.hbond>
0.0000

> <Gold.PLP.part.metal>
0.0000

> <Gold.PLP.part.buried>
-2.4227

> <Gold.PLP.part.nonpolar>
-34.3736

> <Gold.PLP.part.repulsive>
0.8401

> <Gold.PLP.ligand.clash>
0.0000

> <Gold.PLP.ligand.torsion>
0.6902

> <Gold.PLP.Chemscore.Hbond>
0.0000

> <Gold.PLP.Chemscore.CHOScore>
0.0000

> <Gold.PLP.Chemscore.Metal>
0.0000

> <Gold.PLP.Chemscore.Internal.Correction>
1.3732

