#       Name:                EN300-128560_i001
#       Creating user name   aseyller
#       Creation time:       Fri Apr 21 19:13:02 2023


#       File generated by GOLD software.
#

@<TRIPOS>MOLECULE
EN300-128560_i001|benzaldehydes|mol2|755|dock19
    19    19     1
SMALL
USER_CHARGES


@<TRIPOS>ATOM
      1 C1          31.4976  34.3094  38.7751 C.3            1 <1>                0.0000
      2 C2          31.3526  35.6411  38.0847 C.ar           1 <1>                0.0000
      3 C3          32.1718  35.9571  37.0212 C.ar           1 <1>                0.0000
      4 C4          32.0354  37.1931  36.3816 C.ar           1 <1>                0.0000
      5 C5          32.9050  37.5381  35.2456 C.2            1 <1>                0.0000
      6 O6          33.5944  36.6850  34.7288 O.2            1 <1>                0.0000
      7 C7          31.0677  38.0997  36.8268 C.ar           1 <1>                0.0000
      8 C8          30.2565  37.7690  37.8914 C.ar           1 <1>                0.0000
      9 C9          30.3942  36.5413  38.5159 C.ar           1 <1>                0.0000
     10 N10         29.5192  36.1942  39.6580 N.pl3          1 <1>                0.0000
     11 O11         29.3436  36.9972  40.5568 O.2            1 <1>                0.0000
     12 O12         28.9747  35.1054  39.6991 O.2            1 <1>                0.0000
     13 H13         32.1367  34.4219  39.6509 H              1 <1>                0.0000
     14 H14         30.5157  33.9522  39.0853 H              1 <1>                0.0000
     15 H15         31.9454  33.5910  38.0885 H              1 <1>                0.0000
     16 H16         32.9168  35.2520  36.6834 H              1 <1>                0.0000
     17 H17         32.9291  38.5512  34.8724 H              1 <1>                0.0000
     18 H18         30.9565  39.0563  36.3382 H              1 <1>                0.0000
     19 H19         29.5089  38.4679  38.2363 H              1 <1>                0.0000
@<TRIPOS>BOND
    1    1    2 1     
    2    1   13 1     
    3    1   14 1     
    4    1   15 1     
    5    2    3 ar    
    6    2    9 ar    
    7    3    4 ar    
    8    3   16 1     
    9    4    5 1     
   10    4    7 ar    
   11    5    6 2     
   12    5   17 1     
   13    7    8 ar    
   14    7   18 1     
   15    8    9 ar    
   16    8   19 1     
   17    9   10 1     
   18   10   11 2     
   19   10   12 2     
@<TRIPOS>SUBSTRUCTURE
      1 ****           1
@<TRIPOS>COMMENT
> <Gold.Version>
2022.2.0

> <Gold.Id.Protein>
1qkm|1qkm_protein|mol2

> <Gold.Protein.RotatedTorsions>
[  496  491  490  487 ] final  -41.97 input  -89.99 | X-H torsion

> <Gold.Protein.ActiveResidues>
 MET295  LEU298  THR299  LEU301  ALA302  GLU305  TRP335  MET336  LEU339  MET340 
 GLY342  LEU343  ARG346  PHE356  ILE373  ILE376  PHE377  LEU380  LYS471  GLY472 
 MET473  HIS475  LEU476  LEU477  ASN478  MET479  VAL484  VAL487 

> <Gold.Protein.RotatedAtoms>
   36.3744   34.6626   41.7446 H   0  0  0  0  0  0  0  0  0  0  0  0  # atno 496  bound_to 491 

> <Gold.Score>
     Score     S(PLP)   S(hbond)     S(cho)   S(metal)  DE(clash)   DE(tors)     intcor
     35.37     -35.67       0.00       0.00       0.00       0.00       0.83       1.37

> <Gold.PLP.Fitness>
35.3711

> <Gold.PLP.PLP>
-35.6651

> <Gold.PLP.part.hbond>
0.0000

> <Gold.PLP.part.metal>
0.0000

> <Gold.PLP.part.buried>
-4.2515

> <Gold.PLP.part.nonpolar>
-32.0262

> <Gold.PLP.part.repulsive>
0.3316

> <Gold.PLP.ligand.clash>
0.0000

> <Gold.PLP.ligand.torsion>
0.8336

> <Gold.PLP.Chemscore.Hbond>
0.0000

> <Gold.PLP.Chemscore.CHOScore>
0.0000

> <Gold.PLP.Chemscore.Metal>
0.0000

> <Gold.PLP.Chemscore.Internal.Correction>
1.3732

