#       Name:                EN300-128560_i001
#       Creating user name   aseyller
#       Creation time:       Fri Apr 21 19:13:02 2023


#       File generated by GOLD software.
#

@<TRIPOS>MOLECULE
EN300-128560_i001|benzaldehydes|mol2|755|dock20
    19    19     1
SMALL
USER_CHARGES


@<TRIPOS>ATOM
      1 C1          31.5205  33.4174  38.4625 C.3            1 <1>                0.0000
      2 C2          30.6987  34.6321  38.8092 C.ar           1 <1>                0.0000
      3 C3          29.6057  34.5084  39.6411 C.ar           1 <1>                0.0000
      4 C4          28.8447  35.6368  39.9619 C.ar           1 <1>                0.0000
      5 C5          27.6771  35.5138  40.8493 C.2            1 <1>                0.0000
      6 O6          27.0470  36.5011  41.1625 O.2            1 <1>                0.0000
      7 C7          29.1993  36.8833  39.4354 C.ar           1 <1>                0.0000
      8 C8          30.2947  36.9905  38.6052 C.ar           1 <1>                0.0000
      9 C9          31.0460  35.8696  38.2966 C.ar           1 <1>                0.0000
     10 N10         32.2205  35.9935  37.4045 N.pl3          1 <1>                0.0000
     11 O11         32.4116  35.1668  36.5307 O.2            1 <1>                0.0000
     12 O12         32.9960  36.9224  37.5441 O.2            1 <1>                0.0000
     13 H13         31.1823  33.0097  37.5099 H              1 <1>                0.0000
     14 H14         32.5706  33.6993  38.3849 H              1 <1>                0.0000
     15 H15         31.4030  32.6647  39.2421 H              1 <1>                0.0000
     16 H16         29.3381  33.5426  40.0434 H              1 <1>                0.0000
     17 H17         27.3818  34.5440  41.2215 H              1 <1>                0.0000
     18 H18         28.6162  37.7593  39.6783 H              1 <1>                0.0000
     19 H19         30.5696  37.9522  38.1978 H              1 <1>                0.0000
@<TRIPOS>BOND
    1    1    2 1     
    2    1   13 1     
    3    1   14 1     
    4    1   15 1     
    5    2    3 ar    
    6    2    9 ar    
    7    3    4 ar    
    8    3   16 1     
    9    4    5 1     
   10    4    7 ar    
   11    5    6 2     
   12    5   17 1     
   13    7    8 ar    
   14    7   18 1     
   15    8    9 ar    
   16    8   19 1     
   17    9   10 1     
   18   10   11 2     
   19   10   12 2     
@<TRIPOS>SUBSTRUCTURE
      1 ****           1
@<TRIPOS>COMMENT
> <Gold.Version>
2022.2.0

> <Gold.Id.Protein>
1qkm|1qkm_protein|mol2

> <Gold.Protein.RotatedTorsions>
[  496  491  490  487 ] final   87.55 input  -89.99 | X-H torsion

> <Gold.Protein.ActiveResidues>
 MET295  LEU298  THR299  LEU301  ALA302  GLU305  TRP335  MET336  LEU339  MET340 
 GLY342  LEU343  ARG346  PHE356  ILE373  ILE376  PHE377  LEU380  LYS471  GLY472 
 MET473  HIS475  LEU476  LEU477  ASN478  MET479  VAL484  VAL487 

> <Gold.Protein.RotatedAtoms>
   36.7976   33.0388   42.0530 H   0  0  0  0  0  0  0  0  0  0  0  0  # atno 496  bound_to 491 

> <Gold.Score>
     Score     S(PLP)   S(hbond)     S(cho)   S(metal)  DE(clash)   DE(tors)     intcor
     35.34     -35.37       0.00       0.00       0.00       0.00       0.70       1.37

> <Gold.PLP.Fitness>
35.3447

> <Gold.PLP.PLP>
-35.3713

> <Gold.PLP.part.hbond>
0.0000

> <Gold.PLP.part.metal>
0.0000

> <Gold.PLP.part.buried>
-4.0202

> <Gold.PLP.part.nonpolar>
-32.0936

> <Gold.PLP.part.repulsive>
0.1150

> <Gold.PLP.ligand.clash>
0.0000

> <Gold.PLP.ligand.torsion>
0.6999

> <Gold.PLP.Chemscore.Hbond>
0.0000

> <Gold.PLP.Chemscore.CHOScore>
0.0000

> <Gold.PLP.Chemscore.Metal>
0.0000

> <Gold.PLP.Chemscore.Internal.Correction>
1.3732

