#       Name:                EN300-128560_i001
#       Creating user name   aseyller
#       Creation time:       Fri Apr 21 19:12:59 2023


#       File generated by GOLD software.
#

@<TRIPOS>MOLECULE
EN300-128560_i001|benzaldehydes|mol2|755|dock13
    19    19     1
SMALL
USER_CHARGES


@<TRIPOS>ATOM
      1 C1          25.9258  37.7535  38.7426 C.3            1 <1>                0.0000
      2 C2          27.0382  37.0048  39.4304 C.ar           1 <1>                0.0000
      3 C3          28.1855  36.6861  38.7346 C.ar           1 <1>                0.0000
      4 C4          29.2167  35.9916  39.3747 C.ar           1 <1>                0.0000
      5 C5          30.4446  35.6480  38.6398 C.2            1 <1>                0.0000
      6 O6          31.2197  34.8371  39.0999 O.2            1 <1>                0.0000
      7 C7          29.0755  35.6258  40.7174 C.ar           1 <1>                0.0000
      8 C8          27.9224  35.9518  41.3992 C.ar           1 <1>                0.0000
      9 C9          26.9083  36.6439  40.7599 C.ar           1 <1>                0.0000
     10 N10         25.6737  36.9899  41.4993 N.pl3          1 <1>                0.0000
     11 O11         25.4515  38.1476  41.8058 O.2            1 <1>                0.0000
     12 O12         24.8797  36.1169  41.8011 O.2            1 <1>                0.0000
     13 H13         25.1827  37.0448  38.3771 H              1 <1>                0.0000
     14 H14         25.4578  38.4387  39.4494 H              1 <1>                0.0000
     15 H15         26.3325  38.3185  37.9039 H              1 <1>                0.0000
     16 H16         28.2871  36.9716  37.6980 H              1 <1>                0.0000
     17 H17         30.6551  36.1182  37.6906 H              1 <1>                0.0000
     18 H18         29.8674  35.0891  41.2185 H              1 <1>                0.0000
     19 H19         27.8118  35.6699  42.4359 H              1 <1>                0.0000
@<TRIPOS>BOND
    1    1    2 1     
    2    1   13 1     
    3    1   14 1     
    4    1   15 1     
    5    2    3 ar    
    6    2    9 ar    
    7    3    4 ar    
    8    3   16 1     
    9    4    5 1     
   10    4    7 ar    
   11    5    6 2     
   12    5   17 1     
   13    7    8 ar    
   14    7   18 1     
   15    8    9 ar    
   16    8   19 1     
   17    9   10 1     
   18   10   11 2     
   19   10   12 2     
@<TRIPOS>SUBSTRUCTURE
      1 ****           1
@<TRIPOS>COMMENT
> <Gold.Version>
2022.2.0

> <Gold.Id.Protein>
1qkm|1qkm_protein|mol2

> <Gold.Protein.RotatedTorsions>
[  496  491  490  487 ] final   59.37 input  -89.99 | X-H torsion

> <Gold.Protein.ActiveResidues>
 MET295  LEU298  THR299  LEU301  ALA302  GLU305  TRP335  MET336  LEU339  MET340 
 GLY342  LEU343  ARG346  PHE356  ILE373  ILE376  PHE377  LEU380  LYS471  GLY472 
 MET473  HIS475  LEU476  LEU477  ASN478  MET479  VAL484  VAL487 

> <Gold.Protein.RotatedAtoms>
   36.5463   33.3273   42.3069 H   0  0  0  0  0  0  0  0  0  0  0  0  # atno 496  bound_to 491 

> <Gold.Score>
     Score     S(PLP)   S(hbond)     S(cho)   S(metal)  DE(clash)   DE(tors)     intcor
     37.05     -35.78       0.89       0.00       0.00       0.00       1.39       1.37

> <Gold.PLP.Fitness>
37.0491

> <Gold.PLP.PLP>
-35.7774

> <Gold.PLP.part.hbond>
-2.0000

> <Gold.PLP.part.metal>
0.0000

> <Gold.PLP.part.buried>
-0.0328

> <Gold.PLP.part.nonpolar>
-37.3505

> <Gold.PLP.part.repulsive>
3.5849

> <Gold.PLP.ligand.clash>
0.0000

> <Gold.PLP.ligand.torsion>
1.3915

> <Gold.PLP.Chemscore.Hbond>
0.8939

> <Gold.PLP.Chemscore.CHOScore>
0.0000

> <Gold.PLP.Chemscore.Metal>
0.0000

> <Gold.Chemscore.Hbonds>
donor molecule, donor type, donor heavy atom, donor atom, acceptor molecule, acceptor atom, score
      P1  H  1258  1270       L1    12  0.86
      P1  H  1258  1271       L1    11  0.04

> <Gold.PLP.Chemscore.Internal.Correction>
1.3732

