#       Name:                EN300-128560_i001
#       Creating user name   aseyller
#       Creation time:       Fri Apr 21 19:12:55 2023


#       File generated by GOLD software.
#

@<TRIPOS>MOLECULE
EN300-128560_i001|benzaldehydes|mol2|755|dock2
    19    19     1
SMALL
USER_CHARGES


@<TRIPOS>ATOM
      1 C1          30.3155  36.4654  38.9179 C.3            1 <1>                0.0000
      2 C2          28.8610  36.8567  38.9654 C.ar           1 <1>                0.0000
      3 C3          28.0808  36.4747  40.0366 C.ar           1 <1>                0.0000
      4 C4          26.7314  36.8391  40.0790 C.ar           1 <1>                0.0000
      5 C5          25.8918  36.4361  41.2185 C.2            1 <1>                0.0000
      6 O6          24.8827  37.0563  41.4773 O.2            1 <1>                0.0000
      7 C7          26.1838  37.5892  39.0330 C.ar           1 <1>                0.0000
      8 C8          26.9769  37.9632  37.9691 C.ar           1 <1>                0.0000
      9 C9          28.3131  37.6030  37.9370 C.ar           1 <1>                0.0000
     10 N10         29.1575  38.0088  36.7912 N.pl3          1 <1>                0.0000
     11 O11         29.9131  37.2041  36.2763 O.2            1 <1>                0.0000
     12 O12         29.0967  39.1475  36.3630 O.2            1 <1>                0.0000
     13 H13         30.4280  35.5559  38.3278 H              1 <1>                0.0000
     14 H14         30.8931  37.2689  38.4608 H              1 <1>                0.0000
     15 H15         30.6775  36.2885  39.9307 H              1 <1>                0.0000
     16 H16         28.5107  35.8954  40.8403 H              1 <1>                0.0000
     17 H17         26.1747  35.5879  41.8242 H              1 <1>                0.0000
     18 H18         25.1424  37.8741  39.0584 H              1 <1>                0.0000
     19 H19         26.5556  38.5423  37.1607 H              1 <1>                0.0000
@<TRIPOS>BOND
    1    1    2 1     
    2    1   13 1     
    3    1   14 1     
    4    1   15 1     
    5    2    3 ar    
    6    2    9 ar    
    7    3    4 ar    
    8    3   16 1     
    9    4    5 1     
   10    4    7 ar    
   11    5    6 2     
   12    5   17 1     
   13    7    8 ar    
   14    7   18 1     
   15    8    9 ar    
   16    8   19 1     
   17    9   10 1     
   18   10   11 2     
   19   10   12 2     
@<TRIPOS>SUBSTRUCTURE
      1 ****           1
@<TRIPOS>COMMENT
> <Gold.Version>
2022.2.0

> <Gold.Id.Protein>
1qkm|1qkm_protein|mol2

> <Gold.Protein.RotatedTorsions>
[  496  491  490  487 ] final -160.72 input  -89.99 | X-H torsion

> <Gold.Protein.ActiveResidues>
 MET295  LEU298  THR299  LEU301  ALA302  GLU305  TRP335  MET336  LEU339  MET340 
 GLY342  LEU343  ARG346  PHE356  ILE373  ILE376  PHE377  LEU380  LYS471  GLY472 
 MET473  HIS475  LEU476  LEU477  ASN478  MET479  VAL484  VAL487 

> <Gold.Protein.RotatedAtoms>
   37.2778   33.7520   40.7498 H   0  0  0  0  0  0  0  0  0  0  0  0  # atno 496  bound_to 491 

> <Gold.Score>
     Score     S(PLP)   S(hbond)     S(cho)   S(metal)  DE(clash)   DE(tors)     intcor
     38.82     -37.75       0.45       0.00       0.00       0.00       0.85       1.43

> <Gold.PLP.Fitness>
38.8216

> <Gold.PLP.PLP>
-37.7539

> <Gold.PLP.part.hbond>
-1.0000

> <Gold.PLP.part.metal>
0.0000

> <Gold.PLP.part.buried>
-3.4885

> <Gold.PLP.part.nonpolar>
-34.0161

> <Gold.PLP.part.repulsive>
0.3071

> <Gold.PLP.ligand.clash>
0.0000

> <Gold.PLP.ligand.torsion>
0.8509

> <Gold.PLP.Chemscore.Hbond>
0.4480

> <Gold.PLP.Chemscore.CHOScore>
0.0000

> <Gold.PLP.Chemscore.Metal>
0.0000

> <Gold.Chemscore.Hbonds>
donor molecule, donor type, donor heavy atom, donor atom, acceptor molecule, acceptor atom, score
      P1  H  1258  1270       L1     6  0.45

> <Gold.PLP.Chemscore.Internal.Correction>
1.4254

