#       Name:                EN300-128560_i001
#       Creating user name   aseyller
#       Creation time:       Fri Apr 21 19:12:59 2023


#       File generated by GOLD software.
#

@<TRIPOS>MOLECULE
EN300-128560_i001|benzaldehydes|mol2|755|dock14
    19    19     1
SMALL
USER_CHARGES


@<TRIPOS>ATOM
      1 C1          30.1764  38.0892  36.4772 C.3            1 <1>                0.0000
      2 C2          29.6934  37.2974  37.6649 C.ar           1 <1>                0.0000
      3 C3          28.4085  37.4751  38.1334 C.ar           1 <1>                0.0000
      4 C4          27.9621  36.7392  39.2354 C.ar           1 <1>                0.0000
      5 C5          26.5924  36.9223  39.7415 C.2            1 <1>                0.0000
      6 O6          25.7947  37.5795  39.1076 O.2            1 <1>                0.0000
      7 C7          28.8240  35.8276  39.8540 C.ar           1 <1>                0.0000
      8 C8          30.1056  35.6613  39.3738 C.ar           1 <1>                0.0000
      9 C9          30.5383  36.3898  38.2792 C.ar           1 <1>                0.0000
     10 N10         31.9157  36.2052  37.7700 N.pl3          1 <1>                0.0000
     11 O11         32.3820  35.0847  37.6671 O.2            1 <1>                0.0000
     12 O12         32.5830  37.1739  37.4537 O.2            1 <1>                0.0000
     13 H13         30.7145  38.9716  36.8233 H              1 <1>                0.0000
     14 H14         30.8419  37.4709  35.8746 H              1 <1>                0.0000
     15 H15         29.3222  38.3977  35.8745 H              1 <1>                0.0000
     16 H16         27.7490  38.1811  37.6507 H              1 <1>                0.0000
     17 H17         26.2979  36.4712  40.6775 H              1 <1>                0.0000
     18 H18         28.4866  35.2558  40.7057 H              1 <1>                0.0000
     19 H19         30.7723  34.9579  39.8503 H              1 <1>                0.0000
@<TRIPOS>BOND
    1    1    2 1     
    2    1   13 1     
    3    1   14 1     
    4    1   15 1     
    5    2    3 ar    
    6    2    9 ar    
    7    3    4 ar    
    8    3   16 1     
    9    4    5 1     
   10    4    7 ar    
   11    5    6 2     
   12    5   17 1     
   13    7    8 ar    
   14    7   18 1     
   15    8    9 ar    
   16    8   19 1     
   17    9   10 1     
   18   10   11 2     
   19   10   12 2     
@<TRIPOS>SUBSTRUCTURE
      1 ****           1
@<TRIPOS>COMMENT
> <Gold.Version>
2022.2.0

> <Gold.Id.Protein>
1qkm|1qkm_protein|mol2

> <Gold.Protein.RotatedTorsions>
[  496  491  490  487 ] final -168.40 input  -89.99 | X-H torsion

> <Gold.Protein.ActiveResidues>
 MET295  LEU298  THR299  LEU301  ALA302  GLU305  TRP335  MET336  LEU339  MET340 
 GLY342  LEU343  ARG346  PHE356  ILE373  ILE376  PHE377  LEU380  LYS471  GLY472 
 MET473  HIS475  LEU476  LEU477  ASN478  MET479  VAL484  VAL487 

> <Gold.Protein.RotatedAtoms>
   37.3007   33.6333   40.7864 H   0  0  0  0  0  0  0  0  0  0  0  0  # atno 496  bound_to 491 

> <Gold.Score>
     Score     S(PLP)   S(hbond)     S(cho)   S(metal)  DE(clash)   DE(tors)     intcor
     34.20     -34.26       0.00       0.00       0.00       0.00       0.72       1.37

> <Gold.PLP.Fitness>
34.1997

> <Gold.PLP.PLP>
-34.2632

> <Gold.PLP.part.hbond>
0.0000

> <Gold.PLP.part.metal>
0.0000

> <Gold.PLP.part.buried>
-3.5391

> <Gold.PLP.part.nonpolar>
-31.3809

> <Gold.PLP.part.repulsive>
0.0959

> <Gold.PLP.ligand.clash>
0.0000

> <Gold.PLP.ligand.torsion>
0.7184

> <Gold.PLP.Chemscore.Hbond>
0.0000

> <Gold.PLP.Chemscore.CHOScore>
0.0000

> <Gold.PLP.Chemscore.Metal>
0.0000

> <Gold.PLP.Chemscore.Internal.Correction>
1.3732

