#       Name:                EN300-128560_i001
#       Creating user name   aseyller
#       Creation time:       Fri Apr 21 19:12:58 2023


#       File generated by GOLD software.
#

@<TRIPOS>MOLECULE
EN300-128560_i001|benzaldehydes|mol2|755|dock11
    19    19     1
SMALL
USER_CHARGES


@<TRIPOS>ATOM
      1 C1          31.8038  34.2489  38.7503 C.3            1 <1>                0.0000
      2 C2          30.7404  35.3166  38.7379 C.ar           1 <1>                0.0000
      3 C3          29.5462  35.1054  39.3946 C.ar           1 <1>                0.0000
      4 C4          28.5608  36.0976  39.3821 C.ar           1 <1>                0.0000
      5 C5          27.2839  35.8807  40.0808 C.2            1 <1>                0.0000
      6 O6          26.4609  36.7697  40.1298 O.2            1 <1>                0.0000
      7 C7          28.7954  37.2975  38.7027 C.ar           1 <1>                0.0000
      8 C8          29.9944  37.4934  38.0509 C.ar           1 <1>                0.0000
      9 C9          30.9668  36.5084  38.0723 C.ar           1 <1>                0.0000
     10 N10         32.2512  36.7268  37.3700 N.pl3          1 <1>                0.0000
     11 O11         32.2614  37.2340  36.2627 O.2            1 <1>                0.0000
     12 O12         33.2982  36.3994  37.8995 O.2            1 <1>                0.0000
     13 H13         31.7244  33.6465  37.8454 H              1 <1>                0.0000
     14 H14         32.7876  34.7164  38.7906 H              1 <1>                0.0000
     15 H15         31.6685  33.6115  39.6241 H              1 <1>                0.0000
     16 H16         29.3723  34.1762  39.9167 H              1 <1>                0.0000
     17 H17         27.0799  34.9296  40.5500 H              1 <1>                0.0000
     18 H18         28.0391  38.0683  38.6883 H              1 <1>                0.0000
     19 H19         30.1769  38.4192  37.5258 H              1 <1>                0.0000
@<TRIPOS>BOND
    1    1    2 1     
    2    1   13 1     
    3    1   14 1     
    4    1   15 1     
    5    2    3 ar    
    6    2    9 ar    
    7    3    4 ar    
    8    3   16 1     
    9    4    5 1     
   10    4    7 ar    
   11    5    6 2     
   12    5   17 1     
   13    7    8 ar    
   14    7   18 1     
   15    8    9 ar    
   16    8   19 1     
   17    9   10 1     
   18   10   11 2     
   19   10   12 2     
@<TRIPOS>SUBSTRUCTURE
      1 ****           1
@<TRIPOS>COMMENT
> <Gold.Version>
2022.2.0

> <Gold.Id.Protein>
1qkm|1qkm_protein|mol2

> <Gold.Protein.RotatedTorsions>
[  496  491  490  487 ] final  -13.72 input  -89.99 | X-H torsion

> <Gold.Protein.ActiveResidues>
 MET295  LEU298  THR299  LEU301  ALA302  GLU305  TRP335  MET336  LEU339  MET340 
 GLY342  LEU343  ARG346  PHE356  ILE373  ILE376  PHE377  LEU380  LYS471  GLY472 
 MET473  HIS475  LEU476  LEU477  ASN478  MET479  VAL484  VAL487 

> <Gold.Protein.RotatedAtoms>
   36.2674   34.3964   42.1044 H   0  0  0  0  0  0  0  0  0  0  0  0  # atno 496  bound_to 491 

> <Gold.Score>
     Score     S(PLP)   S(hbond)     S(cho)   S(metal)  DE(clash)   DE(tors)     intcor
     34.85     -34.87       0.00       0.00       0.00       0.00       0.70       1.37

> <Gold.PLP.Fitness>
34.8465

> <Gold.PLP.PLP>
-34.8694

> <Gold.PLP.part.hbond>
0.0000

> <Gold.PLP.part.metal>
0.0000

> <Gold.PLP.part.buried>
-3.7044

> <Gold.PLP.part.nonpolar>
-31.3167

> <Gold.PLP.part.repulsive>
0.1378

> <Gold.PLP.ligand.clash>
0.0000

> <Gold.PLP.ligand.torsion>
0.6981

> <Gold.PLP.Chemscore.Hbond>
0.0000

> <Gold.PLP.Chemscore.CHOScore>
0.0000

> <Gold.PLP.Chemscore.Metal>
0.0000

> <Gold.PLP.Chemscore.Internal.Correction>
1.3732

