#       Name:                EN300-128560_i001
#       Creating user name   aseyller
#       Creation time:       Fri Apr 21 19:12:58 2023


#       File generated by GOLD software.
#

@<TRIPOS>MOLECULE
EN300-128560_i001|benzaldehydes|mol2|755|dock10
    19    19     1
SMALL
USER_CHARGES


@<TRIPOS>ATOM
      1 C1          26.3554  37.3154  38.9422 C.3            1 <1>                0.0000
      2 C2          27.8273  37.1492  38.6646 C.ar           1 <1>                0.0000
      3 C3          28.3556  37.5897  37.4692 C.ar           1 <1>                0.0000
      4 C4          29.7216  37.4350  37.2136 C.ar           1 <1>                0.0000
      5 C5          30.2937  37.9027  35.9409 C.2            1 <1>                0.0000
      6 O6          31.4520  37.6648  35.6731 O.2            1 <1>                0.0000
      7 C7          30.5417  36.8339  38.1742 C.ar           1 <1>                0.0000
      8 C8          29.9985  36.3987  39.3642 C.ar           1 <1>                0.0000
      9 C9          28.6461  36.5603  39.6119 C.ar           1 <1>                0.0000
     10 N10         28.0710  36.0903  40.8921 N.pl3          1 <1>                0.0000
     11 O11         28.6605  36.2983  41.9374 O.2            1 <1>                0.0000
     12 O12         27.0080  35.4956  40.9003 O.2            1 <1>                0.0000
     13 H13         25.8307  36.3958  38.6830 H              1 <1>                0.0000
     14 H14         26.2075  37.5323  40.0001 H              1 <1>                0.0000
     15 H15         25.9635  38.1382  38.3444 H              1 <1>                0.0000
     16 H16         27.7159  38.0526  36.7324 H              1 <1>                0.0000
     17 H17         29.6816  38.4579  35.2456 H              1 <1>                0.0000
     18 H18         31.5976  36.7106  37.9839 H              1 <1>                0.0000
     19 H19         30.6303  35.9344  40.1068 H              1 <1>                0.0000
@<TRIPOS>BOND
    1    1    2 1     
    2    1   13 1     
    3    1   14 1     
    4    1   15 1     
    5    2    3 ar    
    6    2    9 ar    
    7    3    4 ar    
    8    3   16 1     
    9    4    5 1     
   10    4    7 ar    
   11    5    6 2     
   12    5   17 1     
   13    7    8 ar    
   14    7   18 1     
   15    8    9 ar    
   16    8   19 1     
   17    9   10 1     
   18   10   11 2     
   19   10   12 2     
@<TRIPOS>SUBSTRUCTURE
      1 ****           1
@<TRIPOS>COMMENT
> <Gold.Version>
2022.2.0

> <Gold.Id.Protein>
1qkm|1qkm_protein|mol2

> <Gold.Protein.RotatedTorsions>
[  496  491  490  487 ] final  -60.48 input  -89.99 | X-H torsion

> <Gold.Protein.ActiveResidues>
 MET295  LEU298  THR299  LEU301  ALA302  GLU305  TRP335  MET336  LEU339  MET340 
 GLY342  LEU343  ARG346  PHE356  ILE373  ILE376  PHE377  LEU380  LYS471  GLY472 
 MET473  HIS475  LEU476  LEU477  ASN478  MET479  VAL484  VAL487 

> <Gold.Protein.RotatedAtoms>
   36.5007   34.7327   41.4778 H   0  0  0  0  0  0  0  0  0  0  0  0  # atno 496  bound_to 491 

> <Gold.Score>
     Score     S(PLP)   S(hbond)     S(cho)   S(metal)  DE(clash)   DE(tors)     intcor
     35.13     -35.16       0.00       0.00       0.00       0.00       0.70       1.37

> <Gold.PLP.Fitness>
35.1329

> <Gold.PLP.PLP>
-35.1641

> <Gold.PLP.part.hbond>
0.0000

> <Gold.PLP.part.metal>
0.0000

> <Gold.PLP.part.buried>
-3.8010

> <Gold.PLP.part.nonpolar>
-31.9330

> <Gold.PLP.part.repulsive>
0.3078

> <Gold.PLP.ligand.clash>
0.0000

> <Gold.PLP.ligand.torsion>
0.7022

> <Gold.PLP.Chemscore.Hbond>
0.0000

> <Gold.PLP.Chemscore.CHOScore>
0.0000

> <Gold.PLP.Chemscore.Metal>
0.0000

> <Gold.PLP.Chemscore.Internal.Correction>
1.3732

