#       Name:                EN300-128560_i001
#       Creating user name   aseyller
#       Creation time:       Fri Apr 21 19:13:01 2023


#       File generated by GOLD software.
#

@<TRIPOS>MOLECULE
EN300-128560_i001|benzaldehydes|mol2|755|dock17
    19    19     1
SMALL
USER_CHARGES


@<TRIPOS>ATOM
      1 C1          30.5129  35.4351  39.0983 C.3            1 <1>                0.0000
      2 C2          29.3397  36.2984  38.7121 C.ar           1 <1>                0.0000
      3 C3          28.1553  36.2024  39.4122 C.ar           1 <1>                0.0000
      4 C4          27.0680  37.0047  39.0525 C.ar           1 <1>                0.0000
      5 C5          25.8007  36.9090  39.7946 C.2            1 <1>                0.0000
      6 O6          25.7850  36.4306  40.9085 O.2            1 <1>                0.0000
      7 C7          27.1912  37.8990  37.9841 C.ar           1 <1>                0.0000
      8 C8          28.3818  37.9832  37.2941 C.ar           1 <1>                0.0000
      9 C9          29.4552  37.1893  37.6596 C.ar           1 <1>                0.0000
     10 N10         30.7299  37.2860  36.9136 N.pl3          1 <1>                0.0000
     11 O11         30.7201  37.3561  35.6976 O.2            1 <1>                0.0000
     12 O12         31.7887  37.2955  37.5156 O.2            1 <1>                0.0000
     13 H13         30.5294  34.5431  38.4720 H              1 <1>                0.0000
     14 H14         31.4377  35.9948  38.9579 H              1 <1>                0.0000
     15 H15         30.4203  35.1429  40.1443 H              1 <1>                0.0000
     16 H16         28.0678  35.5093  40.2357 H              1 <1>                0.0000
     17 H17         24.8847  37.2650  39.3467 H              1 <1>                0.0000
     18 H18         26.3557  38.5217  37.7001 H              1 <1>                0.0000
     19 H19         28.4784  38.6732  36.4689 H              1 <1>                0.0000
@<TRIPOS>BOND
    1    1    2 1     
    2    1   13 1     
    3    1   14 1     
    4    1   15 1     
    5    2    3 ar    
    6    2    9 ar    
    7    3    4 ar    
    8    3   16 1     
    9    4    5 1     
   10    4    7 ar    
   11    5    6 2     
   12    5   17 1     
   13    7    8 ar    
   14    7   18 1     
   15    8    9 ar    
   16    8   19 1     
   17    9   10 1     
   18   10   11 2     
   19   10   12 2     
@<TRIPOS>SUBSTRUCTURE
      1 ****           1
@<TRIPOS>COMMENT
> <Gold.Version>
2022.2.0

> <Gold.Id.Protein>
1qkm|1qkm_protein|mol2

> <Gold.Protein.RotatedTorsions>
[  496  491  490  487 ] final   95.31 input  -89.99 | X-H torsion

> <Gold.Protein.ActiveResidues>
 MET295  LEU298  THR299  LEU301  ALA302  GLU305  TRP335  MET336  LEU339  MET340 
 GLY342  LEU343  ARG346  PHE356  ILE373  ILE376  PHE377  LEU380  LYS471  GLY472 
 MET473  HIS475  LEU476  LEU477  ASN478  MET479  VAL484  VAL487 

> <Gold.Protein.RotatedAtoms>
   36.8691   32.9907   41.9589 H   0  0  0  0  0  0  0  0  0  0  0  0  # atno 496  bound_to 491 

> <Gold.Score>
     Score     S(PLP)   S(hbond)     S(cho)   S(metal)  DE(clash)   DE(tors)     intcor
     34.73     -34.92       0.00       0.00       0.00       0.00       0.79       1.37

> <Gold.PLP.Fitness>
34.7262

> <Gold.PLP.PLP>
-34.9245

> <Gold.PLP.part.hbond>
0.0000

> <Gold.PLP.part.metal>
0.0000

> <Gold.PLP.part.buried>
-2.8795

> <Gold.PLP.part.nonpolar>
-32.2236

> <Gold.PLP.part.repulsive>
0.2126

> <Gold.PLP.ligand.clash>
0.0000

> <Gold.PLP.ligand.torsion>
0.7858

> <Gold.PLP.Chemscore.Hbond>
0.0000

> <Gold.PLP.Chemscore.CHOScore>
0.0000

> <Gold.PLP.Chemscore.Metal>
0.0000

> <Gold.PLP.Chemscore.Internal.Correction>
1.3732

