#       Name:                EN300-128560_i001
#       Creating user name   aseyller
#       Creation time:       Fri Apr 21 19:13:01 2023


#       File generated by GOLD software.
#

@<TRIPOS>MOLECULE
EN300-128560_i001|benzaldehydes|mol2|755|dock16
    19    19     1
SMALL
USER_CHARGES


@<TRIPOS>ATOM
      1 C1          31.8044  38.2899  34.9959 C.3            1 <1>                0.0000
      2 C2          31.3958  37.5209  36.2258 C.ar           1 <1>                0.0000
      3 C3          31.9471  36.2819  36.4769 C.ar           1 <1>                0.0000
      4 C4          31.5669  35.5702  37.6189 C.ar           1 <1>                0.0000
      5 C5          32.1507  34.2477  37.8948 C.2            1 <1>                0.0000
      6 O6          31.5103  33.4172  38.5031 O.2            1 <1>                0.0000
      7 C7          30.6293  36.1219  38.4981 C.ar           1 <1>                0.0000
      8 C8          30.0872  37.3615  38.2331 C.ar           1 <1>                0.0000
      9 C9          30.4726  38.0621  37.1031 C.ar           1 <1>                0.0000
     10 N10         29.8858  39.3923  36.8261 N.pl3          1 <1>                0.0000
     11 O11         30.5950  40.3009  36.4323 O.2            1 <1>                0.0000
     12 O12         28.6935  39.5784  36.9917 O.2            1 <1>                0.0000
     13 H13         31.0844  38.1083  34.1980 H              1 <1>                0.0000
     14 H14         31.8312  39.3551  35.2256 H              1 <1>                0.0000
     15 H15         32.7931  37.9625  34.6745 H              1 <1>                0.0000
     16 H16         32.6702  35.8624  35.7932 H              1 <1>                0.0000
     17 H17         33.1497  34.0171  37.5553 H              1 <1>                0.0000
     18 H18         30.3304  35.5781  39.3820 H              1 <1>                0.0000
     19 H19         29.3631  37.7887  38.9109 H              1 <1>                0.0000
@<TRIPOS>BOND
    1    1    2 1     
    2    1   13 1     
    3    1   14 1     
    4    1   15 1     
    5    2    3 ar    
    6    2    9 ar    
    7    3    4 ar    
    8    3   16 1     
    9    4    5 1     
   10    4    7 ar    
   11    5    6 2     
   12    5   17 1     
   13    7    8 ar    
   14    7   18 1     
   15    8    9 ar    
   16    8   19 1     
   17    9   10 1     
   18   10   11 2     
   19   10   12 2     
@<TRIPOS>SUBSTRUCTURE
      1 ****           1
@<TRIPOS>COMMENT
> <Gold.Version>
2022.2.0

> <Gold.Id.Protein>
1qkm|1qkm_protein|mol2

> <Gold.Protein.RotatedTorsions>
[  496  491  490  487 ] final  156.37 input  -89.99 | X-H torsion

> <Gold.Protein.ActiveResidues>
 MET295  LEU298  THR299  LEU301  ALA302  GLU305  TRP335  MET336  LEU339  MET340 
 GLY342  LEU343  ARG346  PHE356  ILE373  ILE376  PHE377  LEU380  LYS471  GLY472 
 MET473  HIS475  LEU476  LEU477  ASN478  MET479  VAL484  VAL487 

> <Gold.Protein.RotatedAtoms>
   37.2861   33.1662   41.1142 H   0  0  0  0  0  0  0  0  0  0  0  0  # atno 496  bound_to 491 

> <Gold.Score>
     Score     S(PLP)   S(hbond)     S(cho)   S(metal)  DE(clash)   DE(tors)     intcor
     35.54     -35.91       0.00       0.00       0.00       0.00       0.87       1.37

> <Gold.PLP.Fitness>
35.5426

> <Gold.PLP.PLP>
-35.9140

> <Gold.PLP.part.hbond>
0.0000

> <Gold.PLP.part.metal>
0.0000

> <Gold.PLP.part.buried>
-3.4969

> <Gold.PLP.part.nonpolar>
-32.2656

> <Gold.PLP.part.repulsive>
0.0579

> <Gold.PLP.ligand.clash>
0.0000

> <Gold.PLP.ligand.torsion>
0.8723

> <Gold.PLP.Chemscore.Hbond>
0.0000

> <Gold.PLP.Chemscore.CHOScore>
0.0000

> <Gold.PLP.Chemscore.Metal>
0.0000

> <Gold.PLP.Chemscore.Internal.Correction>
1.3732

