#       Name:                EN300-128560_i001
#       Creating user name   aseyller
#       Creation time:       Fri Apr 21 19:12:57 2023


#       File generated by GOLD software.
#

@<TRIPOS>MOLECULE
EN300-128560_i001|benzaldehydes|mol2|755|dock9
    19    19     1
SMALL
USER_CHARGES


@<TRIPOS>ATOM
      1 C1          30.6489  38.4057  36.6846 C.3            1 <1>                0.0000
      2 C2          30.6591  37.1638  37.5382 C.ar           1 <1>                0.0000
      3 C3          29.8005  37.0606  38.6125 C.ar           1 <1>                0.0000
      4 C4          29.8113  35.9073  39.4030 C.ar           1 <1>                0.0000
      5 C5          28.8980  35.7887  40.5509 C.2            1 <1>                0.0000
      6 O6          28.1498  36.7019  40.8273 O.2            1 <1>                0.0000
      7 C7          30.6942  34.8665  39.0968 C.ar           1 <1>                0.0000
      8 C8          31.5464  34.9849  38.0195 C.ar           1 <1>                0.0000
      9 C9          31.5260  36.1277  37.2387 C.ar           1 <1>                0.0000
     10 N10         32.4442  36.2466  36.0839 N.pl3          1 <1>                0.0000
     11 O11         33.6026  35.8846  36.1870 O.2            1 <1>                0.0000
     12 O12         32.0413  36.7064  35.0304 O.2            1 <1>                0.0000
     13 H13         31.4277  39.0876  37.0260 H              1 <1>                0.0000
     14 H14         30.8338  38.1339  35.6454 H              1 <1>                0.0000
     15 H15         29.6776  38.8939  36.7651 H              1 <1>                0.0000
     16 H16         29.1219  37.8686  38.8428 H              1 <1>                0.0000
     17 H17         28.8944  34.8882  41.1471 H              1 <1>                0.0000
     18 H18         30.7087  33.9728  39.7029 H              1 <1>                0.0000
     19 H19         32.2287  34.1822  37.7819 H              1 <1>                0.0000
@<TRIPOS>BOND
    1    1    2 1     
    2    1   13 1     
    3    1   14 1     
    4    1   15 1     
    5    2    3 ar    
    6    2    9 ar    
    7    3    4 ar    
    8    3   16 1     
    9    4    5 1     
   10    4    7 ar    
   11    5    6 2     
   12    5   17 1     
   13    7    8 ar    
   14    7   18 1     
   15    8    9 ar    
   16    8   19 1     
   17    9   10 1     
   18   10   11 2     
   19   10   12 2     
@<TRIPOS>SUBSTRUCTURE
      1 ****           1
@<TRIPOS>COMMENT
> <Gold.Version>
2022.2.0

> <Gold.Id.Protein>
1qkm|1qkm_protein|mol2

> <Gold.Protein.RotatedTorsions>
[  496  491  490  487 ] final  -82.58 input  -89.99 | X-H torsion

> <Gold.Protein.ActiveResidues>
 MET295  LEU298  THR299  LEU301  ALA302  GLU305  TRP335  MET336  LEU339  MET340 
 GLY342  LEU343  ARG346  PHE356  ILE373  ILE376  PHE377  LEU380  LYS471  GLY472 
 MET473  HIS475  LEU476  LEU477  ASN478  MET479  VAL484  VAL487 

> <Gold.Protein.RotatedAtoms>
   36.6892   34.6950   41.1716 H   0  0  0  0  0  0  0  0  0  0  0  0  # atno 496  bound_to 491 

> <Gold.Score>
     Score     S(PLP)   S(hbond)     S(cho)   S(metal)  DE(clash)   DE(tors)     intcor
     34.69     -34.69       0.00       0.00       0.00       0.00       0.69       1.37

> <Gold.PLP.Fitness>
34.6890

> <Gold.PLP.PLP>
-34.6898

> <Gold.PLP.part.hbond>
0.0000

> <Gold.PLP.part.metal>
0.0000

> <Gold.PLP.part.buried>
-2.7044

> <Gold.PLP.part.nonpolar>
-32.5132

> <Gold.PLP.part.repulsive>
0.2267

> <Gold.PLP.ligand.clash>
0.0000

> <Gold.PLP.ligand.torsion>
0.6870

> <Gold.PLP.Chemscore.Hbond>
0.0000

> <Gold.PLP.Chemscore.CHOScore>
0.0000

> <Gold.PLP.Chemscore.Metal>
0.0000

> <Gold.PLP.Chemscore.Internal.Correction>
1.3732

