#       Name:                EN300-128560_i001
#       Creating user name   aseyller
#       Creation time:       Fri Apr 21 19:13:00 2023


#       File generated by GOLD software.
#

@<TRIPOS>MOLECULE
EN300-128560_i001|benzaldehydes|mol2|755|dock15
    19    19     1
SMALL
USER_CHARGES


@<TRIPOS>ATOM
      1 C1          31.1575  36.0806  38.6975 C.3            1 <1>                0.0000
      2 C2          29.7117  36.5055  38.6839 C.ar           1 <1>                0.0000
      3 C3          28.8707  36.1150  39.7047 C.ar           1 <1>                0.0000
      4 C4          27.5295  36.5106  39.6905 C.ar           1 <1>                0.0000
      5 C5          26.6253  36.0988  40.7761 C.2            1 <1>                0.0000
      6 O6          25.4983  36.5430  40.8277 O.2            1 <1>                0.0000
      7 C7          27.0519  37.3002  38.6392 C.ar           1 <1>                0.0000
      8 C8          27.9053  37.6822  37.6261 C.ar           1 <1>                0.0000
      9 C9          29.2329  37.2909  37.6502 C.ar           1 <1>                0.0000
     10 N10         30.1424  37.7055  36.5585 N.pl3          1 <1>                0.0000
     11 O11         30.9233  36.9034  36.0787 O.2            1 <1>                0.0000
     12 O12         30.1097  38.8489  36.1399 O.2            1 <1>                0.0000
     13 H13         31.2785  35.1841  38.0895 H              1 <1>                0.0000
     14 H14         31.7754  36.8814  38.2911 H              1 <1>                0.0000
     15 H15         31.4645  35.8692  39.7218 H              1 <1>                0.0000
     16 H16         29.2467  35.5051  40.5127 H              1 <1>                0.0000
     17 H17         26.9656  35.4010  41.5267 H              1 <1>                0.0000
     18 H18         26.0173  37.6093  38.6211 H              1 <1>                0.0000
     19 H19         27.5381  38.2918  36.8138 H              1 <1>                0.0000
@<TRIPOS>BOND
    1    1    2 1     
    2    1   13 1     
    3    1   14 1     
    4    1   15 1     
    5    2    3 ar    
    6    2    9 ar    
    7    3    4 ar    
    8    3   16 1     
    9    4    5 1     
   10    4    7 ar    
   11    5    6 2     
   12    5   17 1     
   13    7    8 ar    
   14    7   18 1     
   15    8    9 ar    
   16    8   19 1     
   17    9   10 1     
   18   10   11 2     
   19   10   12 2     
@<TRIPOS>SUBSTRUCTURE
      1 ****           1
@<TRIPOS>COMMENT
> <Gold.Version>
2022.2.0

> <Gold.Id.Protein>
1qkm|1qkm_protein|mol2

> <Gold.Protein.RotatedTorsions>
[  496  491  490  487 ] final  175.28 input  -89.99 | X-H torsion

> <Gold.Protein.ActiveResidues>
 MET295  LEU298  THR299  LEU301  ALA302  GLU305  TRP335  MET336  LEU339  MET340 
 GLY342  LEU343  ARG346  PHE356  ILE373  ILE376  PHE377  LEU380  LYS471  GLY472 
 MET473  HIS475  LEU476  LEU477  ASN478  MET479  VAL484  VAL487 

> <Gold.Protein.RotatedAtoms>
   37.3187   33.3958   40.9086 H   0  0  0  0  0  0  0  0  0  0  0  0  # atno 496  bound_to 491 

> <Gold.Score>
     Score     S(PLP)   S(hbond)     S(cho)   S(metal)  DE(clash)   DE(tors)     intcor
     34.79     -34.84       0.00       0.00       0.00       0.00       0.71       1.37

> <Gold.PLP.Fitness>
34.7913

> <Gold.PLP.PLP>
-34.8416

> <Gold.PLP.part.hbond>
0.0000

> <Gold.PLP.part.metal>
0.0000

> <Gold.PLP.part.buried>
-3.8400

> <Gold.PLP.part.nonpolar>
-31.3718

> <Gold.PLP.part.repulsive>
0.2131

> <Gold.PLP.ligand.clash>
0.0000

> <Gold.PLP.ligand.torsion>
0.7117

> <Gold.PLP.Chemscore.Hbond>
0.0000

> <Gold.PLP.Chemscore.CHOScore>
0.0000

> <Gold.PLP.Chemscore.Metal>
0.0000

> <Gold.PLP.Chemscore.Internal.Correction>
1.3732

