#       Name:                EN300-128560_i001
#       Creating user name   aseyller
#       Creation time:       Fri Apr 21 19:12:56 2023


#       File generated by GOLD software.
#

@<TRIPOS>MOLECULE
EN300-128560_i001|benzaldehydes|mol2|755|dock5
    19    19     1
SMALL
USER_CHARGES


@<TRIPOS>ATOM
      1 C1          29.4538  37.4424  36.4034 C.3            1 <1>                0.0000
      2 C2          28.9656  37.0576  37.7762 C.ar           1 <1>                0.0000
      3 C3          27.6609  37.3174  38.1399 C.ar           1 <1>                0.0000
      4 C4          27.2098  36.9592  39.4141 C.ar           1 <1>                0.0000
      5 C5          25.8190  37.2323  39.8102 C.2            1 <1>                0.0000
      6 O6          25.4836  37.1108  40.9690 O.2            1 <1>                0.0000
      7 C7          28.0871  36.3395  40.3101 C.ar           1 <1>                0.0000
      8 C8          29.3884  36.0866  39.9315 C.ar           1 <1>                0.0000
      9 C9          29.8259  36.4395  38.6665 C.ar           1 <1>                0.0000
     10 N10         31.2245  36.1643  38.2680 N.pl3          1 <1>                0.0000
     11 O11         31.7387  35.0962  38.5479 O.2            1 <1>                0.0000
     12 O12         31.8614  37.0060  37.6600 O.2            1 <1>                0.0000
     13 H13         29.9461  38.4136  36.4518 H              1 <1>                0.0000
     14 H14         30.1611  36.6938  36.0463 H              1 <1>                0.0000
     15 H15         28.6072  37.4979  35.7190 H              1 <1>                0.0000
     16 H16         26.9896  37.7965  37.4427 H              1 <1>                0.0000
     17 H17         25.0971  37.5409  39.0686 H              1 <1>                0.0000
     18 H18         27.7461  36.0602  41.2960 H              1 <1>                0.0000
     19 H19         30.0670  35.6082  40.6221 H              1 <1>                0.0000
@<TRIPOS>BOND
    1    1    2 1     
    2    1   13 1     
    3    1   14 1     
    4    1   15 1     
    5    2    3 ar    
    6    2    9 ar    
    7    3    4 ar    
    8    3   16 1     
    9    4    5 1     
   10    4    7 ar    
   11    5    6 2     
   12    5   17 1     
   13    7    8 ar    
   14    7   18 1     
   15    8    9 ar    
   16    8   19 1     
   17    9   10 1     
   18   10   11 2     
   19   10   12 2     
@<TRIPOS>SUBSTRUCTURE
      1 ****           1
@<TRIPOS>COMMENT
> <Gold.Version>
2022.2.0

> <Gold.Id.Protein>
1qkm|1qkm_protein|mol2

> <Gold.Protein.RotatedTorsions>
[  496  491  490  487 ] final  145.14 input  -89.99 | X-H torsion

> <Gold.Protein.ActiveResidues>
 MET295  LEU298  THR299  LEU301  ALA302  GLU305  TRP335  MET336  LEU339  MET340 
 GLY342  LEU343  ARG346  PHE356  ILE373  ILE376  PHE377  LEU380  LYS471  GLY472 
 MET473  HIS475  LEU476  LEU477  ASN478  MET479  VAL484  VAL487 

> <Gold.Protein.RotatedAtoms>
   37.2409   33.0629   41.2602 H   0  0  0  0  0  0  0  0  0  0  0  0  # atno 496  bound_to 491 

> <Gold.Score>
     Score     S(PLP)   S(hbond)     S(cho)   S(metal)  DE(clash)   DE(tors)     intcor
     36.14     -36.19       0.00       0.00       0.00       0.00       0.72       1.38

> <Gold.PLP.Fitness>
36.1359

> <Gold.PLP.PLP>
-36.1912

> <Gold.PLP.part.hbond>
0.0000

> <Gold.PLP.part.metal>
0.0000

> <Gold.PLP.part.buried>
-4.4793

> <Gold.PLP.part.nonpolar>
-32.5046

> <Gold.PLP.part.repulsive>
0.2505

> <Gold.PLP.ligand.clash>
0.0000

> <Gold.PLP.ligand.torsion>
0.7183

> <Gold.PLP.Chemscore.Hbond>
0.0000

> <Gold.PLP.Chemscore.CHOScore>
0.0000

> <Gold.PLP.Chemscore.Metal>
0.0000

> <Gold.PLP.Chemscore.Internal.Correction>
1.3814

