#       Name:                EN300-128560_i001
#       Creating user name   aseyller
#       Creation time:       Fri Apr 21 19:12:57 2023


#       File generated by GOLD software.
#

@<TRIPOS>MOLECULE
EN300-128560_i001|benzaldehydes|mol2|755|dock8
    19    19     1
SMALL
USER_CHARGES


@<TRIPOS>ATOM
      1 C1          32.6267  35.6329  37.5350 C.3            1 <1>                0.0000
      2 C2          31.2928  36.2095  37.9342 C.ar           1 <1>                0.0000
      3 C3          30.6877  35.7975  39.1030 C.ar           1 <1>                0.0000
      4 C4          29.4501  36.3340  39.4719 C.ar           1 <1>                0.0000
      5 C5          28.7977  35.9003  40.7177 C.2            1 <1>                0.0000
      6 O6          27.7087  36.3414  41.0171 O.2            1 <1>                0.0000
      7 C7          28.8358  37.2854  38.6509 C.ar           1 <1>                0.0000
      8 C8          29.4535  37.6869  37.4856 C.ar           1 <1>                0.0000
      9 C9          30.6810  37.1549  37.1301 C.ar           1 <1>                0.0000
     10 N10         31.3374  37.5914  35.8774 N.pl3          1 <1>                0.0000
     11 O11         31.3484  38.7712  35.5746 O.2            1 <1>                0.0000
     12 O12         31.8666  36.7709  35.1492 O.2            1 <1>                0.0000
     13 H13         32.4721  34.8040  36.8442 H              1 <1>                0.0000
     14 H14         33.2250  36.4038  37.0494 H              1 <1>                0.0000
     15 H15         33.1476  35.2739  38.4225 H              1 <1>                0.0000
     16 H16         31.1680  35.0622  39.7315 H              1 <1>                0.0000
     17 H17         29.2890  35.1892  41.3653 H              1 <1>                0.0000
     18 H18         27.8799  37.7040  38.9289 H              1 <1>                0.0000
     19 H19         28.9805  38.4213  36.8507 H              1 <1>                0.0000
@<TRIPOS>BOND
    1    1    2 1     
    2    1   13 1     
    3    1   14 1     
    4    1   15 1     
    5    2    3 ar    
    6    2    9 ar    
    7    3    4 ar    
    8    3   16 1     
    9    4    5 1     
   10    4    7 ar    
   11    5    6 2     
   12    5   17 1     
   13    7    8 ar    
   14    7   18 1     
   15    8    9 ar    
   16    8   19 1     
   17    9   10 1     
   18   10   11 2     
   19   10   12 2     
@<TRIPOS>SUBSTRUCTURE
      1 ****           1
@<TRIPOS>COMMENT
> <Gold.Version>
2022.2.0

> <Gold.Id.Protein>
1qkm|1qkm_protein|mol2

> <Gold.Protein.RotatedTorsions>
[  496  491  490  487 ] final  -74.16 input  -89.99 | X-H torsion

> <Gold.Protein.ActiveResidues>
 MET295  LEU298  THR299  LEU301  ALA302  GLU305  TRP335  MET336  LEU339  MET340 
 GLY342  LEU343  ARG346  PHE356  ILE373  ILE376  PHE377  LEU380  LYS471  GLY472 
 MET473  HIS475  LEU476  LEU477  ASN478  MET479  VAL484  VAL487 

> <Gold.Protein.RotatedAtoms>
   36.6141   34.7250   41.2840 H   0  0  0  0  0  0  0  0  0  0  0  0  # atno 496  bound_to 491 

> <Gold.Score>
     Score     S(PLP)   S(hbond)     S(cho)   S(metal)  DE(clash)   DE(tors)     intcor
     35.03     -35.03       0.00       0.00       0.00       0.00       0.69       1.38

> <Gold.PLP.Fitness>
35.0291

> <Gold.PLP.PLP>
-35.0304

> <Gold.PLP.part.hbond>
0.0000

> <Gold.PLP.part.metal>
0.0000

> <Gold.PLP.part.buried>
-3.0633

> <Gold.PLP.part.nonpolar>
-32.4670

> <Gold.PLP.part.repulsive>
0.1928

> <Gold.PLP.ligand.clash>
0.0000

> <Gold.PLP.ligand.torsion>
0.6913

> <Gold.PLP.Chemscore.Hbond>
0.0000

> <Gold.PLP.Chemscore.CHOScore>
0.0000

> <Gold.PLP.Chemscore.Metal>
0.0000

> <Gold.PLP.Chemscore.Internal.Correction>
1.3814

