#       Name:                EN300-128560_i001
#       Creating user name   aseyller
#       Creation time:       Fri Apr 21 19:12:54 2023


#       File generated by GOLD software.
#

@<TRIPOS>MOLECULE
EN300-128560_i001|benzaldehydes|mol2|755|dock1
    19    19     1
SMALL
USER_CHARGES


@<TRIPOS>ATOM
      1 C1          28.6254  37.3099  37.1356 C.3            1 <1>                0.0000
      2 C2          28.2862  36.9124  38.5490 C.ar           1 <1>                0.0000
      3 C3          27.0214  37.1491  39.0452 C.ar           1 <1>                0.0000
      4 C4          26.7085  36.7791  40.3570 C.ar           1 <1>                0.0000
      5 C5          25.3611  37.0275  40.8942 C.2            1 <1>                0.0000
      6 O6          25.1699  36.9938  42.0910 O.2            1 <1>                0.0000
      7 C7          27.6827  36.1711  41.1556 C.ar           1 <1>                0.0000
      8 C8          28.9425  35.9413  40.6450 C.ar           1 <1>                0.0000
      9 C9          29.2428  36.3058  39.3438 C.ar           1 <1>                0.0000
     10 N10         30.5978  36.0554  38.8034 N.pl3          1 <1>                0.0000
     11 O11         31.1258  34.9694  38.9623 O.2            1 <1>                0.0000
     12 O12         31.1848  36.9355  38.1996 O.2            1 <1>                0.0000
     13 H13         29.1042  38.2891  37.1385 H              1 <1>                0.0000
     14 H14         29.3047  36.5746  36.7044 H              1 <1>                0.0000
     15 H15         27.7126  37.3536  36.5414 H              1 <1>                0.0000
     16 H16         26.2747  37.6193  38.4226 H              1 <1>                0.0000
     17 H17         24.5427  37.2398  40.2223 H              1 <1>                0.0000
     18 H18         27.4487  35.8828  42.1698 H              1 <1>                0.0000
     19 H19         29.6957  35.4720  41.2604 H              1 <1>                0.0000
@<TRIPOS>BOND
    1    1    2 1     
    2    1   13 1     
    3    1   14 1     
    4    1   15 1     
    5    2    3 ar    
    6    2    9 ar    
    7    3    4 ar    
    8    3   16 1     
    9    4    5 1     
   10    4    7 ar    
   11    5    6 2     
   12    5   17 1     
   13    7    8 ar    
   14    7   18 1     
   15    8    9 ar    
   16    8   19 1     
   17    9   10 1     
   18   10   11 2     
   19   10   12 2     
@<TRIPOS>SUBSTRUCTURE
      1 ****           1
@<TRIPOS>COMMENT
> <Gold.Version>
2022.2.0

> <Gold.Id.Protein>
1qkm|1qkm_protein|mol2

> <Gold.Protein.RotatedTorsions>
[  496  491  490  487 ] final   68.42 input  -89.99 | X-H torsion

> <Gold.Protein.ActiveResidues>
 MET295  LEU298  THR299  LEU301  ALA302  GLU305  TRP335  MET336  LEU339  MET340 
 GLY342  LEU343  ARG346  PHE356  ILE373  ILE376  PHE377  LEU380  LYS471  GLY472 
 MET473  HIS475  LEU476  LEU477  ASN478  MET479  VAL484  VAL487 

> <Gold.Protein.RotatedAtoms>
   36.6234   33.2174   42.2428 H   0  0  0  0  0  0  0  0  0  0  0  0  # atno 496  bound_to 491 

> <Gold.Score>
     Score     S(PLP)   S(hbond)     S(cho)   S(metal)  DE(clash)   DE(tors)     intcor
     39.76     -39.04       0.34       0.00       0.00       0.00       0.86       1.43

> <Gold.PLP.Fitness>
39.7572

> <Gold.PLP.PLP>
-39.0366

> <Gold.PLP.part.hbond>
-0.8095

> <Gold.PLP.part.metal>
0.0000

> <Gold.PLP.part.buried>
-3.6780

> <Gold.PLP.part.nonpolar>
-36.2457

> <Gold.PLP.part.repulsive>
0.6764

> <Gold.PLP.ligand.clash>
0.0000

> <Gold.PLP.ligand.torsion>
0.8564

> <Gold.PLP.Chemscore.Hbond>
0.3360

> <Gold.PLP.Chemscore.CHOScore>
0.0000

> <Gold.PLP.Chemscore.Metal>
0.0000

> <Gold.Chemscore.Hbonds>
donor molecule, donor type, donor heavy atom, donor atom, acceptor molecule, acceptor atom, score
      P1  H  1258  1270       L1     6  0.34

> <Gold.PLP.Chemscore.Internal.Correction>
1.4254

