#       Name:                EN300-128560_i001
#       Creating user name   aseyller
#       Creation time:       Fri Apr 21 19:12:59 2023


#       File generated by GOLD software.
#

@<TRIPOS>MOLECULE
EN300-128560_i001|benzaldehydes|mol2|755|dock12
    19    19     1
SMALL
USER_CHARGES


@<TRIPOS>ATOM
      1 C1          28.5086  36.3641  42.0748 C.3            1 <1>                0.0000
      2 C2          28.0345  36.6995  40.6842 C.ar           1 <1>                0.0000
      3 C3          28.9289  36.7013  39.6345 C.ar           1 <1>                0.0000
      4 C4          28.4869  37.0124  38.3448 C.ar           1 <1>                0.0000
      5 C5          29.4345  37.0160  37.2188 C.2            1 <1>                0.0000
      6 O6          30.6190  36.8572  37.4228 O.2            1 <1>                0.0000
      7 C7          27.1392  37.3196  38.1304 C.ar           1 <1>                0.0000
      8 C8          26.2575  37.3136  39.1902 C.ar           1 <1>                0.0000
      9 C9          26.7018  36.9995  40.4630 C.ar           1 <1>                0.0000
     10 N10         25.7486  36.9953  41.5953 N.pl3          1 <1>                0.0000
     11 O11         26.0213  37.5891  42.6232 O.2            1 <1>                0.0000
     12 O12         24.6913  36.3982  41.4991 O.2            1 <1>                0.0000
     13 H13         28.7262  37.2847  42.6164 H              1 <1>                0.0000
     14 H14         27.7312  35.8088  42.5996 H              1 <1>                0.0000
     15 H15         29.4113  35.7563  42.0142 H              1 <1>                0.0000
     16 H16         29.9679  36.4634  39.8080 H              1 <1>                0.0000
     17 H17         29.0746  37.1603  36.2109 H              1 <1>                0.0000
     18 H18         26.7904  37.5612  37.1373 H              1 <1>                0.0000
     19 H19         25.2167  37.5506  39.0263 H              1 <1>                0.0000
@<TRIPOS>BOND
    1    1    2 1     
    2    1   13 1     
    3    1   14 1     
    4    1   15 1     
    5    2    3 ar    
    6    2    9 ar    
    7    3    4 ar    
    8    3   16 1     
    9    4    5 1     
   10    4    7 ar    
   11    5    6 2     
   12    5   17 1     
   13    7    8 ar    
   14    7   18 1     
   15    8    9 ar    
   16    8   19 1     
   17    9   10 1     
   18   10   11 2     
   19   10   12 2     
@<TRIPOS>SUBSTRUCTURE
      1 ****           1
@<TRIPOS>COMMENT
> <Gold.Version>
2022.2.0

> <Gold.Id.Protein>
1qkm|1qkm_protein|mol2

> <Gold.Protein.RotatedTorsions>
[  496  491  490  487 ] final -176.33 input  -89.99 | X-H torsion

> <Gold.Protein.ActiveResidues>
 MET295  LEU298  THR299  LEU301  ALA302  GLU305  TRP335  MET336  LEU339  MET340 
 GLY342  LEU343  ARG346  PHE356  ILE373  ILE376  PHE377  LEU380  LYS471  GLY472 
 MET473  HIS475  LEU476  LEU477  ASN478  MET479  VAL484  VAL487 

> <Gold.Protein.RotatedAtoms>
   37.3148   33.5146   40.8386 H   0  0  0  0  0  0  0  0  0  0  0  0  # atno 496  bound_to 491 

> <Gold.Score>
     Score     S(PLP)   S(hbond)     S(cho)   S(metal)  DE(clash)   DE(tors)     intcor
     39.92     -37.81       0.82       0.00       0.00       0.00       0.87       1.37

> <Gold.PLP.Fitness>
39.9189

> <Gold.PLP.PLP>
-37.8111

> <Gold.PLP.part.hbond>
-2.0000

> <Gold.PLP.part.metal>
0.0000

> <Gold.PLP.part.buried>
-2.2029

> <Gold.PLP.part.nonpolar>
-35.3243

> <Gold.PLP.part.repulsive>
2.5718

> <Gold.PLP.ligand.clash>
0.0000

> <Gold.PLP.ligand.torsion>
0.8661

> <Gold.PLP.Chemscore.Hbond>
0.8222

> <Gold.PLP.Chemscore.CHOScore>
0.0000

> <Gold.PLP.Chemscore.Metal>
0.0000

> <Gold.Chemscore.Hbonds>
donor molecule, donor type, donor heavy atom, donor atom, acceptor molecule, acceptor atom, score
      P1  H  1258  1270       L1    12  0.82
      P1  H  1258  1271       L1    11  0.01

> <Gold.PLP.Chemscore.Internal.Correction>
1.3732

