#       Name:                EN300-6486870_i001
#       Creating user name   fsindt
#       Creation time:       Thu Mar  2 00:35:15 2023


#       File generated by GOLD software.
#

@<TRIPOS>MOLECULE
EN300-6486870_i001|acide_1|mol2|10832|dock8
    19    20     1
SMALL
USER_CHARGES


@<TRIPOS>ATOM
      1 O1          -0.9256 -18.6621  12.5561 O.co2          1 <1>               -1.0000
      2 C2          -0.3081 -18.4812  11.5157 C.2            1 <1>                0.0000
      3 O3           0.1346 -19.4367  10.8931 O.co2          1 <1>                0.0000
      4 C4          -0.1029 -17.1138  11.0097 C.ar           1 <1>                0.0000
      5 C5          -0.2435 -16.8465   9.6468 C.ar           1 <1>                0.0000
      6 C6          -0.0493 -15.5590   9.1804 C.ar           1 <1>                0.0000
      7 N7          -0.1087 -14.9710   7.9310 N.pl3          1 <1>                0.0000
      8 C8           0.1811 -13.6538   8.0914 C.2            1 <1>                0.0000
      9 N9           0.4131 -13.3946   9.3466 N.2            1 <1>                0.0000
     10 C10          0.2879 -14.5282  10.0782 C.ar           1 <1>                0.0000
     11 C11          0.4257 -14.8127  11.4424 C.ar           1 <1>                0.0000
     12 C12          0.2281 -16.0802  11.8987 C.ar           1 <1>                0.0000
     13 N13          0.3753 -16.3723  13.3423 N.pl3          1 <1>                0.0000
     14 O14         -0.0761 -15.6001  14.1691 O.2            1 <1>                0.0000
     15 O15          0.9478 -17.3848  13.7035 O.2            1 <1>                0.0000
     16 H16         -0.5019 -17.6398   8.9611 H              1 <1>                0.0000
     17 H17          0.2147 -12.9267   7.2935 H              1 <1>                0.0000
     18 H18          0.6846 -14.0248  12.1341 H              1 <1>                0.0000
     19 H19         -0.3182 -15.4162   7.0951 H              1 <1>                0.0000
@<TRIPOS>BOND
    1    1    2 ar    
    2    2    3 ar    
    3    2    4 1     
    4    4    5 ar    
    5    4   12 ar    
    6    5    6 ar    
    7    5   16 1     
    8    6    7 1     
    9    6   10 ar    
   10    7    8 1     
   11    7   19 1     
   12    8    9 2     
   13    8   17 1     
   14    9   10 1     
   15   10   11 ar    
   16   11   12 ar    
   17   11   18 1     
   18   12   13 1     
   19   13   14 2     
   20   13   15 2     
@<TRIPOS>SUBSTRUCTURE
      1 ****           1
@<TRIPOS>SET
DONOR_HYDROGENS      STATIC     ATOMS    <user>   **** ""
1 19
ATOM$RED        STATIC     ATOMS    COLORGROUP SYSTEM
1 19
@<TRIPOS>COMMENT
> <Gold.Version>
2022.2.0

> <Gold.Id.Protein>
3pbl|protein|mol2

> <Gold.Protein.RotatedTorsions>
[ 1303 1298 1297 1294 ] final  -60.46 input  179.99 | X-H torsion
[ 2461 2456 2455 2452 ] final -177.72 input   30.03 | X-H torsion
[ 2515 2510 2509 2506 ] final  134.61 input  -89.99 | X-H torsion
[ 3721 3712 3711 3710 ] final   63.26 input -179.91 | X-H torsion
[ 3841 3832 3831 3830 ] final  -28.55 input -179.91 | X-H torsion
[ 3767 3762 3761 3758 ] final  131.07 input  -89.99 | X-H torsion
[ 2472 2467 2466 2463 ] final   82.30 input  -89.97 | X-H torsion

> <Gold.Protein.ActiveResidues>
 VAL82   VAL86   LEU89   PHE106  VAL107  ASP110  VAL111  MET112  CYS114  THR115 
 CYS181  SER182  ILE183  PHE188  VAL189  ILE190  SER192  SER193  SER196  TRP342 
 PHE345  PHE346  HIS349  VAL350  TYR365  THR369  GLY372  TYR373 

> <Gold.Protein.RotatedAtoms>
    3.5026   -8.9698    3.7780 H   0  0  0  0  0  0  0  0  0  0  0  0  # atno 1303 bound_to 1298
    1.4152   -9.2289    8.4007 H   0  0  0  0  0  0  0  0  0  0  0  0  # atno 2461 bound_to 2456
   -4.9927   -4.8868    7.7386 H   0  0  0  0  0  0  0  0  0  0  0  0  # atno 2472 bound_to 2467
    2.0794   -8.4009    6.0964 H   0  0  0  0  0  0  0  0  0  0  0  0  # atno 2515 bound_to 2510
   -2.6089  -17.8830   13.3451 H   0  0  0  0  0  0  0  0  0  0  0  0  # atno 3721 bound_to 3712
   -3.9163  -23.0956   11.0549 H   0  0  0  0  0  0  0  0  0  0  0  0  # atno 3767 bound_to 3762
    1.5744  -20.1480    9.3557 H   0  0  0  0  0  0  0  0  0  0  0  0  # atno 3841 bound_to 3832
    4.8578   -8.8810    4.6846 LP  0  0  0  0  0  0  0  0  0  0  0  0  # atno 4297 bound_to 1298
    4.0021  -10.2707    4.6292 LP  0  0  0  0  0  0  0  0  0  0  0  0  # atno 4298 bound_to 1298
    1.9403   -8.0470    7.4033 LP  0  0  0  0  0  0  0  0  0  0  0  0  # atno 4299 bound_to 2456
    0.3823   -8.5325    7.3444 LP  0  0  0  0  0  0  0  0  0  0  0  0  # atno 4300 bound_to 2456
    2.4393   -7.5004    4.7828 LP  0  0  0  0  0  0  0  0  0  0  0  0  # atno 4301 bound_to 2510
    2.7782   -9.0978    4.7957 LP  0  0  0  0  0  0  0  0  0  0  0  0  # atno 4302 bound_to 2510
   -2.9575  -17.4666   14.8560 LP  0  0  0  0  0  0  0  0  0  0  0  0  # atno 4306 bound_to 3712
   -3.5581  -16.6134   13.5999 LP  0  0  0  0  0  0  0  0  0  0  0  0  # atno 4307 bound_to 3712
    2.5704  -19.8260    8.1390 LP  0  0  0  0  0  0  0  0  0  0  0  0  # atno 4314 bound_to 3832
    2.8403  -21.1053    9.1173 LP  0  0  0  0  0  0  0  0  0  0  0  0  # atno 4315 bound_to 3832
   -5.2129  -22.8508   10.0928 LP  0  0  0  0  0  0  0  0  0  0  0  0  # atno 4318 bound_to 3762
   -4.9979  -21.9289   11.4234 LP  0  0  0  0  0  0  0  0  0  0  0  0  # atno 4319 bound_to 3762
   -3.6362   -5.0585    8.6313 LP  0  0  0  0  0  0  0  0  0  0  0  0  # atno 4320 bound_to 2467
   -5.0881   -5.4481    9.2691 LP  0  0  0  0  0  0  0  0  0  0  0  0  # atno 4321 bound_to 2467

> <Gold.Score>
     Score     S(PLP)   S(hbond)     S(cho)   S(metal)  DE(clash)   DE(tors)     intcor
     34.72     -27.56       2.43       0.00       0.00       0.00       1.33       2.53

> <Gold.PLP.Fitness>
34.7247

> <Gold.PLP.PLP>
-27.5632

> <Gold.PLP.part.hbond>
-2.3498

> <Gold.PLP.part.metal>
0.0000

> <Gold.PLP.part.buried>
-2.9115

> <Gold.PLP.part.nonpolar>
-23.1021

> <Gold.PLP.part.repulsive>
0.2392

> <Gold.PLP.ligand.clash>
0.0000

> <Gold.PLP.ligand.torsion>
1.3317

> <Gold.PLP.Chemscore.Hbond>
2.4300

> <Gold.PLP.Chemscore.CHOScore>
0.0000

> <Gold.PLP.Chemscore.Metal>
0.0000

> <Gold.Chemscore.Hbonds>
donor molecule, donor type, donor heavy atom, donor atom, acceptor molecule, acceptor atom, score
      P1  H  2305  2313       L1    14  0.73
      P1  H  3712  3721       L1     1  1.00
      P1  H  3832  3841       L1     3  0.70

> <Gold.PLP.Chemscore.Internal.Correction>
2.5349

