#       Name:                EN300-6486870_i001
#       Creating user name   fsindt
#       Creation time:       Thu Mar  2 00:35:18 2023


#       File generated by GOLD software.
#

@<TRIPOS>MOLECULE
EN300-6486870_i001|acide_1|mol2|10832|dock15
    19    20     1
SMALL
USER_CHARGES


@<TRIPOS>ATOM
      1 O1           0.5084  -9.3107  11.6996 O.co2          1 <1>               -1.0000
      2 C2           0.4115 -10.0736  10.7483 C.2            1 <1>                0.0000
      3 O3           1.4156 -10.4396  10.1529 O.co2          1 <1>                0.0000
      4 C4          -0.9132 -10.5563  10.3237 C.ar           1 <1>                0.0000
      5 C5          -2.0669  -9.9126  10.7746 C.ar           1 <1>                0.0000
      6 C6          -3.3070 -10.3725  10.3703 C.ar           1 <1>                0.0000
      7 N7          -4.6071  -9.9775  10.6235 N.pl3          1 <1>                0.0000
      8 C8          -5.4245 -10.8201   9.9406 C.2            1 <1>                0.0000
      9 N9          -4.7191 -11.7004   9.2893 N.2            1 <1>                0.0000
     10 C10         -3.4000 -11.4829   9.5096 C.ar           1 <1>                0.0000
     11 C11         -2.2332 -12.1178   9.0665 C.ar           1 <1>                0.0000
     12 C12         -1.0139 -11.6587   9.4620 C.ar           1 <1>                0.0000
     13 N13          0.2145 -12.3354   8.9886 N.pl3          1 <1>                0.0000
     14 O14          0.5674 -13.3838   9.4984 O.2            1 <1>                0.0000
     15 O15          0.8725 -11.8438   8.0892 O.2            1 <1>                0.0000
     16 H16         -1.9916  -9.0614  11.4350 H              1 <1>                0.0000
     17 H17         -6.5032 -10.7681   9.9382 H              1 <1>                0.0000
     18 H18         -2.3004 -12.9700   8.4065 H              1 <1>                0.0000
     19 H19         -4.8842  -9.2365  11.1847 H              1 <1>                0.0000
@<TRIPOS>BOND
    1    1    2 ar    
    2    2    3 ar    
    3    2    4 1     
    4    4    5 ar    
    5    4   12 ar    
    6    5    6 ar    
    7    5   16 1     
    8    6    7 1     
    9    6   10 ar    
   10    7    8 1     
   11    7   19 1     
   12    8    9 2     
   13    8   17 1     
   14    9   10 1     
   15   10   11 ar    
   16   11   12 ar    
   17   11   18 1     
   18   12   13 1     
   19   13   14 2     
   20   13   15 2     
@<TRIPOS>SUBSTRUCTURE
      1 ****           1
@<TRIPOS>SET
DONOR_HYDROGENS      STATIC     ATOMS    <user>   **** ""
1 19
ATOM$RED        STATIC     ATOMS    COLORGROUP SYSTEM
1 19
@<TRIPOS>COMMENT
> <Gold.Version>
2022.2.0

> <Gold.Id.Protein>
3pbl|protein|mol2

> <Gold.Protein.RotatedTorsions>
[ 1303 1298 1297 1294 ] final   58.02 input  179.99 | X-H torsion
[ 2461 2456 2455 2452 ] final -175.43 input   30.03 | X-H torsion
[ 2515 2510 2509 2506 ] final  161.06 input  -89.99 | X-H torsion
[ 3721 3712 3711 3710 ] final   28.73 input -179.91 | X-H torsion
[ 3841 3832 3831 3830 ] final  -34.30 input -179.91 | X-H torsion
[ 3767 3762 3761 3758 ] final   11.11 input  -89.99 | X-H torsion
[ 2472 2467 2466 2463 ] final  -13.54 input  -89.97 | X-H torsion

> <Gold.Protein.ActiveResidues>
 VAL82   VAL86   LEU89   PHE106  VAL107  ASP110  VAL111  MET112  CYS114  THR115 
 CYS181  SER182  ILE183  PHE188  VAL189  ILE190  SER192  SER193  SER196  TRP342 
 PHE345  PHE346  HIS349  VAL350  TYR365  THR369  GLY372  TYR373 

> <Gold.Protein.RotatedAtoms>
    3.9811  -10.2714    4.6156 H   0  0  0  0  0  0  0  0  0  0  0  0  # atno 1303 bound_to 1298
    1.3790   -9.2396    8.3988 H   0  0  0  0  0  0  0  0  0  0  0  0  # atno 2461 bound_to 2456
   -3.6955   -4.9328    8.2622 H   0  0  0  0  0  0  0  0  0  0  0  0  # atno 2472 bound_to 2467
    2.2035   -8.8044    6.0085 H   0  0  0  0  0  0  0  0  0  0  0  0  # atno 2515 bound_to 2510
   -2.4804  -18.0337   13.8196 H   0  0  0  0  0  0  0  0  0  0  0  0  # atno 3721 bound_to 3712
   -5.2122  -22.8508   10.0921 H   0  0  0  0  0  0  0  0  0  0  0  0  # atno 3767 bound_to 3762
    1.5639  -20.0806    9.3019 H   0  0  0  0  0  0  0  0  0  0  0  0  # atno 3841 bound_to 3832
    3.5160   -8.9487    3.7785 LP  0  0  0  0  0  0  0  0  0  0  0  0  # atno 4297 bound_to 1298
    4.8651   -8.9009    4.6974 LP  0  0  0  0  0  0  0  0  0  0  0  0  # atno 4298 bound_to 1298
    1.9636   -8.0635    7.4279 LP  0  0  0  0  0  0  0  0  0  0  0  0  # atno 4299 bound_to 2456
    0.3951   -8.5053    7.3217 LP  0  0  0  0  0  0  0  0  0  0  0  0  # atno 4300 bound_to 2456
    2.2587   -7.4084    5.1636 LP  0  0  0  0  0  0  0  0  0  0  0  0  # atno 4301 bound_to 2510
    2.8346   -8.7861    4.5028 LP  0  0  0  0  0  0  0  0  0  0  0  0  # atno 4302 bound_to 2510
   -3.2425  -16.9834   14.7651 LP  0  0  0  0  0  0  0  0  0  0  0  0  # atno 4306 bound_to 3712
   -3.4216  -16.9227   13.1431 LP  0  0  0  0  0  0  0  0  0  0  0  0  # atno 4307 bound_to 3712
    2.6502  -19.8795    8.1375 LP  0  0  0  0  0  0  0  0  0  0  0  0  # atno 4314 bound_to 3832
    2.7726  -21.1296    9.1810 LP  0  0  0  0  0  0  0  0  0  0  0  0  # atno 4315 bound_to 3832
   -4.9986  -21.9288   11.4229 LP  0  0  0  0  0  0  0  0  0  0  0  0  # atno 4318 bound_to 3762
   -3.9167  -23.0956   11.0558 LP  0  0  0  0  0  0  0  0  0  0  0  0  # atno 4319 bound_to 3762
   -4.7224   -5.4611    9.4167 LP  0  0  0  0  0  0  0  0  0  0  0  0  # atno 4320 bound_to 2467
   -5.2989   -4.9996    7.9602 LP  0  0  0  0  0  0  0  0  0  0  0  0  # atno 4321 bound_to 2467

> <Gold.Score>
     Score     S(PLP)   S(hbond)     S(cho)   S(metal)  DE(clash)   DE(tors)     intcor
     39.71     -34.43       0.94       1.00       0.00       0.00       1.54       2.53

> <Gold.PLP.Fitness>
39.7071

> <Gold.PLP.PLP>
-34.4286

> <Gold.PLP.part.hbond>
-1.0000

> <Gold.PLP.part.metal>
0.0000

> <Gold.PLP.part.buried>
1.1998

> <Gold.PLP.part.nonpolar>
-36.4798

> <Gold.PLP.part.repulsive>
0.3024

> <Gold.PLP.ligand.clash>
0.0000

> <Gold.PLP.ligand.torsion>
1.5420

> <Gold.PLP.Chemscore.Hbond>
0.9425

> <Gold.PLP.Chemscore.CHOScore>
1.0000

> <Gold.PLP.Chemscore.Metal>
0.0000

> <Gold.Chemscore.Hbonds>
donor molecule, donor type, donor heavy atom, donor atom, acceptor molecule, acceptor atom, score
      P1  H  2456  2461       L1     3  0.94
      L1  C     8    17       P1  3417  1.00

> <Gold.PLP.Chemscore.Internal.Correction>
2.5349

