#       Name:                EN300-6486870_i001
#       Creating user name   fsindt
#       Creation time:       Thu Mar  2 00:35:16 2023


#       File generated by GOLD software.
#

@<TRIPOS>MOLECULE
EN300-6486870_i001|acide_1|mol2|10832|dock10
    19    20     1
SMALL
USER_CHARGES


@<TRIPOS>ATOM
      1 O1          -0.7235 -16.8712  15.0729 O.co2          1 <1>               -1.0000
      2 C2          -0.0414 -16.6003  14.0941 C.2            1 <1>                0.0000
      3 O3           0.7931 -15.7081  14.1580 O.co2          1 <1>                0.0000
      4 C4          -0.2207 -17.3524  12.8410 C.ar           1 <1>                0.0000
      5 C5          -0.2053 -16.6812  11.6171 C.ar           1 <1>                0.0000
      6 C6          -0.3741 -17.3957  10.4450 C.ar           1 <1>                0.0000
      7 N7          -0.4099 -17.0512   9.1069 N.pl3          1 <1>                0.0000
      8 C8          -0.6079 -18.1948   8.4015 C.2            1 <1>                0.0000
      9 N9          -0.6956 -19.2119   9.2104 N.2            1 <1>                0.0000
     10 C10         -0.5598 -18.7906  10.4910 C.ar           1 <1>                0.0000
     11 C11         -0.5731 -19.4490  11.7269 C.ar           1 <1>                0.0000
     12 C12         -0.4009 -18.7431  12.8784 C.ar           1 <1>                0.0000
     13 N13         -0.4159 -19.4470  14.1804 N.pl3          1 <1>                0.0000
     14 O14          0.3901 -19.1485  15.0434 O.2            1 <1>                0.0000
     15 O15         -1.2343 -20.3247  14.3888 O.2            1 <1>                0.0000
     16 H16         -0.0629 -15.6111  11.5857 H              1 <1>                0.0000
     17 H17         -0.6822 -18.2524   7.3256 H              1 <1>                0.0000
     18 H18         -0.7157 -20.5188  11.7664 H              1 <1>                0.0000
     19 H19         -0.3120 -16.1587   8.7399 H              1 <1>                0.0000
@<TRIPOS>BOND
    1    1    2 ar    
    2    2    3 ar    
    3    2    4 1     
    4    4    5 ar    
    5    4   12 ar    
    6    5    6 ar    
    7    5   16 1     
    8    6    7 1     
    9    6   10 ar    
   10    7    8 1     
   11    7   19 1     
   12    8    9 2     
   13    8   17 1     
   14    9   10 1     
   15   10   11 ar    
   16   11   12 ar    
   17   11   18 1     
   18   12   13 1     
   19   13   14 2     
   20   13   15 2     
@<TRIPOS>SUBSTRUCTURE
      1 ****           1
@<TRIPOS>SET
DONOR_HYDROGENS      STATIC     ATOMS    <user>   **** ""
1 19
ATOM$RED        STATIC     ATOMS    COLORGROUP SYSTEM
1 19
@<TRIPOS>COMMENT
> <Gold.Version>
2022.2.0

> <Gold.Id.Protein>
3pbl|protein|mol2

> <Gold.Protein.RotatedTorsions>
[ 1303 1298 1297 1294 ] final   61.15 input  179.99 | X-H torsion
[ 2461 2456 2455 2452 ] final  -32.01 input   30.03 | X-H torsion
[ 2515 2510 2509 2506 ] final   14.37 input  -89.99 | X-H torsion
[ 3721 3712 3711 3710 ] final  -34.31 input -179.91 | X-H torsion
[ 3841 3832 3831 3830 ] final  -58.65 input -179.91 | X-H torsion
[ 3767 3762 3761 3758 ] final   49.71 input  -89.99 | X-H torsion
[ 2472 2467 2466 2463 ] final  169.45 input  -89.97 | X-H torsion

> <Gold.Protein.ActiveResidues>
 VAL82   VAL86   LEU89   PHE106  VAL107  ASP110  VAL111  MET112  CYS114  THR115 
 CYS181  SER182  ILE183  PHE188  VAL189  ILE190  SER192  SER193  SER196  TRP342 
 PHE345  PHE346  HIS349  VAL350  TYR365  THR369  GLY372  TYR373 

> <Gold.Protein.RotatedAtoms>
    4.0238  -10.2685    4.6441 H   0  0  0  0  0  0  0  0  0  0  0  0  # atno 1303 bound_to 1298
    0.5991   -8.2434    7.1313 H   0  0  0  0  0  0  0  0  0  0  0  0  # atno 2461 bound_to 2456
   -5.4304   -5.3441    8.8738 H   0  0  0  0  0  0  0  0  0  0  0  0  # atno 2472 bound_to 2467
    2.4410   -7.5024    4.7800 H   0  0  0  0  0  0  0  0  0  0  0  0  # atno 2515 bound_to 2510
   -2.6275  -17.6516   14.6274 H   0  0  0  0  0  0  0  0  0  0  0  0  # atno 3721 bound_to 3712
   -4.7125  -23.2217   10.1269 H   0  0  0  0  0  0  0  0  0  0  0  0  # atno 3767 bound_to 3762
    1.6068  -19.8241    9.0456 H   0  0  0  0  0  0  0  0  0  0  0  0  # atno 3841 bound_to 3832
    3.4891   -8.9925    3.7768 LP  0  0  0  0  0  0  0  0  0  0  0  0  # atno 4297 bound_to 1298
    4.8493   -8.8599    4.6706 LP  0  0  0  0  0  0  0  0  0  0  0  0  # atno 4298 bound_to 1298
    1.0082   -9.2883    8.3180 LP  0  0  0  0  0  0  0  0  0  0  0  0  # atno 4299 bound_to 2456
    2.1303   -8.2763    7.6987 LP  0  0  0  0  0  0  0  0  0  0  0  0  # atno 4300 bound_to 2456
    2.7773   -9.1000    4.7989 LP  0  0  0  0  0  0  0  0  0  0  0  0  # atno 4301 bound_to 2510
    2.0783   -8.3972    6.0966 LP  0  0  0  0  0  0  0  0  0  0  0  0  # atno 4302 bound_to 2510
   -3.5627  -16.5559   13.9184 LP  0  0  0  0  0  0  0  0  0  0  0  0  # atno 4306 bound_to 3712
   -2.9315  -17.7913   13.0571 LP  0  0  0  0  0  0  0  0  0  0  0  0  # atno 4307 bound_to 3712
    2.9355  -20.1563    8.2087 LP  0  0  0  0  0  0  0  0  0  0  0  0  # atno 4314 bound_to 3832
    2.4377  -21.1492    9.4059 LP  0  0  0  0  0  0  0  0  0  0  0  0  # atno 4315 bound_to 3832
   -5.4021  -21.9930   10.9524 LP  0  0  0  0  0  0  0  0  0  0  0  0  # atno 4318 bound_to 3762
   -4.0128  -22.6606   11.4916 LP  0  0  0  0  0  0  0  0  0  0  0  0  # atno 4319 bound_to 3762
   -4.4709   -4.8033    7.6683 LP  0  0  0  0  0  0  0  0  0  0  0  0  # atno 4320 bound_to 2467
   -3.8158   -5.2462    9.0971 LP  0  0  0  0  0  0  0  0  0  0  0  0  # atno 4321 bound_to 2467

> <Gold.Score>
     Score     S(PLP)   S(hbond)     S(cho)   S(metal)  DE(clash)   DE(tors)     intcor
     35.36     -29.90       1.86       0.00       0.00       0.00       1.33       2.53

> <Gold.PLP.Fitness>
35.3624

> <Gold.PLP.PLP>
-29.8986

> <Gold.PLP.part.hbond>
-3.4130

> <Gold.PLP.part.metal>
0.0000

> <Gold.PLP.part.buried>
-3.7510

> <Gold.PLP.part.nonpolar>
-23.3637

> <Gold.PLP.part.repulsive>
0.2344

> <Gold.PLP.ligand.clash>
0.0000

> <Gold.PLP.ligand.torsion>
1.3261

> <Gold.PLP.Chemscore.Hbond>
1.8604

> <Gold.PLP.Chemscore.CHOScore>
0.0000

> <Gold.PLP.Chemscore.Metal>
0.0000

> <Gold.Chemscore.Hbonds>
donor molecule, donor type, donor heavy atom, donor atom, acceptor molecule, acceptor atom, score
      P1  H  2305  2313       L1     3  1.00
      P1  H  3712  3721       L1     1  0.76
      P1  H  3832  3841       L1     9  0.10

> <Gold.PLP.Chemscore.Internal.Correction>
2.5349

