#       Name:                EN300-6486870_i001
#       Creating user name   fsindt
#       Creation time:       Thu Mar  2 00:35:19 2023


#       File generated by GOLD software.
#

@<TRIPOS>MOLECULE
EN300-6486870_i001|acide_1|mol2|10832|dock19
    19    20     1
SMALL
USER_CHARGES


@<TRIPOS>ATOM
      1 O1          -1.0665 -18.8479  13.6715 O.co2          1 <1>               -1.0000
      2 C2          -0.5298 -18.9132  12.5741 C.2            1 <1>                0.0000
      3 O3          -0.2049 -19.9999  12.1157 O.co2          1 <1>                0.0000
      4 C4          -0.2802 -17.6843  11.8024 C.ar           1 <1>                0.0000
      5 C5          -0.4577 -17.6827  10.4178 C.ar           1 <1>                0.0000
      6 C6          -0.2214 -16.5238   9.7010 C.ar           1 <1>                0.0000
      7 N7          -0.2988 -16.1900   8.3620 N.pl3          1 <1>                0.0000
      8 C8           0.0569 -14.8840   8.2510 C.2            1 <1>                0.0000
      9 N9           0.3458 -14.3960   9.4236 N.2            1 <1>                0.0000
     10 C10          0.1952 -15.3558  10.3680 C.ar           1 <1>                0.0000
     11 C11          0.3690 -15.3739  11.7574 C.ar           1 <1>                0.0000
     12 C12          0.1299 -16.5152  12.4604 C.ar           1 <1>                0.0000
     13 N13          0.3156 -16.5255  13.9289 N.pl3          1 <1>                0.0000
     14 O14          0.8844 -17.4601  14.4643 O.2            1 <1>                0.0000
     15 O15         -0.1005 -15.5996  14.6019 O.2            1 <1>                0.0000
     16 H16         -0.7769 -18.5806   9.9097 H              1 <1>                0.0000
     17 H17          0.0950 -14.3303   7.3245 H              1 <1>                0.0000
     18 H18          0.6887 -14.4802  12.2725 H              1 <1>                0.0000
     19 H19         -0.5587 -16.7791   7.6365 H              1 <1>                0.0000
@<TRIPOS>BOND
    1    1    2 ar    
    2    2    3 ar    
    3    2    4 1     
    4    4    5 ar    
    5    4   12 ar    
    6    5    6 ar    
    7    5   16 1     
    8    6    7 1     
    9    6   10 ar    
   10    7    8 1     
   11    7   19 1     
   12    8    9 2     
   13    8   17 1     
   14    9   10 1     
   15   10   11 ar    
   16   11   12 ar    
   17   11   18 1     
   18   12   13 1     
   19   13   14 2     
   20   13   15 2     
@<TRIPOS>SUBSTRUCTURE
      1 ****           1
@<TRIPOS>SET
DONOR_HYDROGENS      STATIC     ATOMS    <user>   **** ""
1 19
ATOM$RED        STATIC     ATOMS    COLORGROUP SYSTEM
1 19
@<TRIPOS>COMMENT
> <Gold.Version>
2022.2.0

> <Gold.Id.Protein>
3pbl|protein|mol2

> <Gold.Protein.RotatedTorsions>
[ 1303 1298 1297 1294 ] final -117.83 input  179.99 | X-H torsion
[ 2461 2456 2455 2452 ] final  -80.33 input   30.03 | X-H torsion
[ 2515 2510 2509 2506 ] final   21.90 input  -89.99 | X-H torsion
[ 3721 3712 3711 3710 ] final   25.35 input -179.91 | X-H torsion
[ 3841 3832 3831 3830 ] final  -56.94 input -179.91 | X-H torsion
[ 3767 3762 3761 3758 ] final  177.17 input  -89.99 | X-H torsion
[ 2472 2467 2466 2463 ] final  146.94 input  -89.97 | X-H torsion

> <Gold.Protein.ActiveResidues>
 VAL82   VAL86   LEU89   PHE106  VAL107  ASP110  VAL111  MET112  CYS114  THR115 
 CYS181  SER182  ILE183  PHE188  VAL189  ILE190  SER192  SER193  SER196  TRP342 
 PHE345  PHE346  HIS349  VAL350  TYR365  THR369  GLY372  TYR373 

> <Gold.Protein.RotatedAtoms>
    4.2032   -8.4803    4.0749 H   0  0  0  0  0  0  0  0  0  0  0  0  # atno 1303 bound_to 1298
    0.3318   -8.8002    7.5943 H   0  0  0  0  0  0  0  0  0  0  0  0  # atno 2461 bound_to 2456
   -5.5098   -5.2300    8.5330 H   0  0  0  0  0  0  0  0  0  0  0  0  # atno 2472 bound_to 2467
    2.3881   -7.4564    4.8818 H   0  0  0  0  0  0  0  0  0  0  0  0  # atno 2515 bound_to 2510
   -2.4755  -18.0343   13.8704 H   0  0  0  0  0  0  0  0  0  0  0  0  # atno 3721 bound_to 3712
   -4.0699  -22.5676   11.5478 H   0  0  0  0  0  0  0  0  0  0  0  0  # atno 3767 bound_to 3762
    1.5993  -19.8400    9.0646 H   0  0  0  0  0  0  0  0  0  0  0  0  # atno 3841 bound_to 3832
    4.7610   -9.7405    4.9509 LP  0  0  0  0  0  0  0  0  0  0  0  0  # atno 4297 bound_to 1298
    3.3980   -9.9008    4.0659 LP  0  0  0  0  0  0  0  0  0  0  0  0  # atno 4298 bound_to 1298
    1.7480   -9.0728    8.3609 LP  0  0  0  0  0  0  0  0  0  0  0  0  # atno 4299 bound_to 2456
    1.6577   -7.9352    7.1929 LP  0  0  0  0  0  0  0  0  0  0  0  0  # atno 4300 bound_to 2456
    2.8018   -9.0257    4.7030 LP  0  0  0  0  0  0  0  0  0  0  0  0  # atno 4301 bound_to 2510
    2.1068   -8.5174    6.0906 LP  0  0  0  0  0  0  0  0  0  0  0  0  # atno 4302 bound_to 2510
   -3.2690  -16.9413   14.7385 LP  0  0  0  0  0  0  0  0  0  0  0  0  # atno 4306 bound_to 3712
   -3.4007  -16.9641   13.1110 LP  0  0  0  0  0  0  0  0  0  0  0  0  # atno 4307 bound_to 3712
    2.9188  -20.1348    8.1997 LP  0  0  0  0  0  0  0  0  0  0  0  0  # atno 4314 bound_to 3832
    2.4632  -21.1523    9.3929 LP  0  0  0  0  0  0  0  0  0  0  0  0  # atno 4315 bound_to 3832
   -4.6086  -23.2671   10.1741 LP  0  0  0  0  0  0  0  0  0  0  0  0  # atno 4318 bound_to 3762
   -5.4486  -22.0404   10.8494 LP  0  0  0  0  0  0  0  0  0  0  0  0  # atno 4319 bound_to 3762
   -4.1216   -4.8068    7.7845 LP  0  0  0  0  0  0  0  0  0  0  0  0  # atno 4320 bound_to 2467
   -4.0856   -5.3568    9.3217 LP  0  0  0  0  0  0  0  0  0  0  0  0  # atno 4321 bound_to 2467

> <Gold.Score>
     Score     S(PLP)   S(hbond)     S(cho)   S(metal)  DE(clash)   DE(tors)     intcor
     33.31     -27.38       2.00       0.00       0.00       0.00       1.30       2.53

> <Gold.PLP.Fitness>
33.3099

> <Gold.PLP.PLP>
-27.3776

> <Gold.PLP.part.hbond>
-2.0000

> <Gold.PLP.part.metal>
0.0000

> <Gold.PLP.part.buried>
-3.4346

> <Gold.PLP.part.nonpolar>
-22.8322

> <Gold.PLP.part.repulsive>
0.2166

> <Gold.PLP.ligand.clash>
0.0000

> <Gold.PLP.ligand.torsion>
1.3013

> <Gold.PLP.Chemscore.Hbond>
2.0000

> <Gold.PLP.Chemscore.CHOScore>
0.0000

> <Gold.PLP.Chemscore.Metal>
0.0000

> <Gold.Chemscore.Hbonds>
donor molecule, donor type, donor heavy atom, donor atom, acceptor molecule, acceptor atom, score
      P1  H  2305  2313       L1    15  1.00
      P1  H  3712  3721       L1     1  1.00

> <Gold.PLP.Chemscore.Internal.Correction>
2.5349

