#       Name:                EN300-6486870_i001
#       Creating user name   fsindt
#       Creation time:       Thu Mar  2 00:35:18 2023


#       File generated by GOLD software.
#

@<TRIPOS>MOLECULE
EN300-6486870_i001|acide_1|mol2|10832|dock16
    19    20     1
SMALL
USER_CHARGES


@<TRIPOS>ATOM
      1 O1           0.2124 -15.8201  10.7898 O.co2          1 <1>               -1.0000
      2 C2          -0.1072 -14.8297  11.4329 C.2            1 <1>                0.0000
      3 O3          -0.0976 -14.8649  12.6557 O.co2          1 <1>                0.0000
      4 C4          -0.4975 -13.5933  10.7350 C.ar           1 <1>                0.0000
      5 C5          -1.2523 -12.6259  11.4007 C.ar           1 <1>                0.0000
      6 C6          -1.6142 -11.4674  10.7376 C.ar           1 <1>                0.0000
      7 N7          -2.3359 -10.3432  11.0923 N.pl3          1 <1>                0.0000
      8 C8          -2.3638  -9.5240  10.0094 C.2            1 <1>                0.0000
      9 N9          -1.7124 -10.0653   9.0198 N.2            1 <1>                0.0000
     10 C10         -1.2215 -11.2696   9.4000 C.ar           1 <1>                0.0000
     11 C11         -0.4648 -12.2499   8.7462 C.ar           1 <1>                0.0000
     12 C12         -0.1055 -13.3866   9.4040 C.ar           1 <1>                0.0000
     13 N13          0.6948 -14.4174   8.7056 N.pl3          1 <1>                0.0000
     14 O14          1.9097 -14.4068   8.7912 O.2            1 <1>                0.0000
     15 O15          0.1383 -15.2763   8.0452 O.2            1 <1>                0.0000
     16 H16         -1.5520 -12.7812  12.4266 H              1 <1>                0.0000
     17 H17         -2.8553  -8.5630   9.9738 H              1 <1>                0.0000
     18 H18         -0.1619 -12.1020   7.7202 H              1 <1>                0.0000
     19 H19         -2.7462 -10.1714  11.9542 H              1 <1>                0.0000
@<TRIPOS>BOND
    1    1    2 ar    
    2    2    3 ar    
    3    2    4 1     
    4    4    5 ar    
    5    4   12 ar    
    6    5    6 ar    
    7    5   16 1     
    8    6    7 1     
    9    6   10 ar    
   10    7    8 1     
   11    7   19 1     
   12    8    9 2     
   13    8   17 1     
   14    9   10 1     
   15   10   11 ar    
   16   11   12 ar    
   17   11   18 1     
   18   12   13 1     
   19   13   14 2     
   20   13   15 2     
@<TRIPOS>SUBSTRUCTURE
      1 ****           1
@<TRIPOS>SET
DONOR_HYDROGENS      STATIC     ATOMS    <user>   **** ""
1 19
ATOM$RED        STATIC     ATOMS    COLORGROUP SYSTEM
1 19
@<TRIPOS>COMMENT
> <Gold.Version>
2022.2.0

> <Gold.Id.Protein>
3pbl|protein|mol2

> <Gold.Protein.RotatedTorsions>
[ 1303 1298 1297 1294 ] final -152.50 input  179.99 | X-H torsion
[ 2461 2456 2455 2452 ] final -132.97 input   30.03 | X-H torsion
[ 2515 2510 2509 2506 ] final  -32.12 input  -89.99 | X-H torsion
[ 3721 3712 3711 3710 ] final  122.96 input -179.91 | X-H torsion
[ 3841 3832 3831 3830 ] final   14.15 input -179.91 | X-H torsion
[ 3767 3762 3761 3758 ] final   82.69 input  -89.99 | X-H torsion
[ 2472 2467 2466 2463 ] final  172.51 input  -89.97 | X-H torsion

> <Gold.Protein.ActiveResidues>
 VAL82   VAL86   LEU89   PHE106  VAL107  ASP110  VAL111  MET112  CYS114  THR115 
 CYS181  SER182  ILE183  PHE188  VAL189  ILE190  SER192  SER193  SER196  TRP342 
 PHE345  PHE346  HIS349  VAL350  TYR365  THR369  GLY372  TYR373 

> <Gold.Protein.RotatedAtoms>
    4.6362   -8.5864    4.4169 H   0  0  0  0  0  0  0  0  0  0  0  0  # atno 1303 bound_to 1298
    0.7326   -9.2448    8.1783 H   0  0  0  0  0  0  0  0  0  0  0  0  # atno 2461 bound_to 2456
   -5.4091   -5.3574    8.9172 H   0  0  0  0  0  0  0  0  0  0  0  0  # atno 2472 bound_to 2467
    2.7309   -8.0554    4.3754 H   0  0  0  0  0  0  0  0  0  0  0  0  # atno 2515 bound_to 2510
   -3.0304  -17.1945   13.0421 H   0  0  0  0  0  0  0  0  0  0  0  0  # atno 3721 bound_to 3712
   -4.2751  -23.3354   10.4140 H   0  0  0  0  0  0  0  0  0  0  0  0  # atno 3767 bound_to 3762
    1.8763  -20.6398    9.6091 H   0  0  0  0  0  0  0  0  0  0  0  0  # atno 3841 bound_to 3832
    4.3826  -10.1419    4.8437 LP  0  0  0  0  0  0  0  0  0  0  0  0  # atno 4297 bound_to 1298
    3.3432   -9.3933    3.8309 LP  0  0  0  0  0  0  0  0  0  0  0  0  # atno 4298 bound_to 1298
    2.1589   -8.4911    7.9232 LP  0  0  0  0  0  0  0  0  0  0  0  0  # atno 4299 bound_to 2456
    0.8461   -8.0725    7.0468 LP  0  0  0  0  0  0  0  0  0  0  0  0  # atno 4300 bound_to 2456
    2.5180   -9.2358    5.4832 LP  0  0  0  0  0  0  0  0  0  0  0  0  # atno 4301 bound_to 2510
    2.0477   -7.7081    5.8171 LP  0  0  0  0  0  0  0  0  0  0  0  0  # atno 4302 bound_to 2510
   -2.6226  -18.1418   14.2726 LP  0  0  0  0  0  0  0  0  0  0  0  0  # atno 4306 bound_to 3712
   -3.4065  -16.7332   14.5332 LP  0  0  0  0  0  0  0  0  0  0  0  0  # atno 4307 bound_to 3712
    1.9374  -19.6345    8.3595 LP  0  0  0  0  0  0  0  0  0  0  0  0  # atno 4314 bound_to 3832
    3.1246  -20.7287    8.6041 LP  0  0  0  0  0  0  0  0  0  0  0  0  # atno 4315 bound_to 3832
   -5.5104  -22.2714   10.5082 LP  0  0  0  0  0  0  0  0  0  0  0  0  # atno 4318 bound_to 3762
   -4.3416  -22.2685   11.6486 LP  0  0  0  0  0  0  0  0  0  0  0  0  # atno 4319 bound_to 3762
   -4.5206   -4.8068    7.6627 LP  0  0  0  0  0  0  0  0  0  0  0  0  # atno 4320 bound_to 2467
   -3.7874   -5.2294    9.0593 LP  0  0  0  0  0  0  0  0  0  0  0  0  # atno 4321 bound_to 2467

> <Gold.Score>
     Score     S(PLP)   S(hbond)     S(cho)   S(metal)  DE(clash)   DE(tors)     intcor
     38.96     -36.79       0.00       1.00       0.00       0.00       1.68       2.53

> <Gold.PLP.Fitness>
38.9592

> <Gold.PLP.PLP>
-36.7883

> <Gold.PLP.part.hbond>
0.0000

> <Gold.PLP.part.metal>
0.0000

> <Gold.PLP.part.buried>
-4.6907

> <Gold.PLP.part.nonpolar>
-33.1862

> <Gold.PLP.part.repulsive>
0.5567

> <Gold.PLP.ligand.clash>
0.0000

> <Gold.PLP.ligand.torsion>
1.6821

> <Gold.PLP.Chemscore.Hbond>
0.0000

> <Gold.PLP.Chemscore.CHOScore>
1.0000

> <Gold.PLP.Chemscore.Metal>
0.0000

> <Gold.Chemscore.Hbonds>
donor molecule, donor type, donor heavy atom, donor atom, acceptor molecule, acceptor atom, score
      L1  C     8    17       P1  2398  1.00

> <Gold.PLP.Chemscore.Internal.Correction>
2.5349

