#       Name:                EN300-6486870_i001
#       Creating user name   fsindt
#       Creation time:       Thu Mar  2 00:35:17 2023


#       File generated by GOLD software.
#

@<TRIPOS>MOLECULE
EN300-6486870_i001|acide_1|mol2|10832|dock12
    19    20     1
SMALL
USER_CHARGES


@<TRIPOS>ATOM
      1 O1           1.0293 -18.6233  12.5499 O.co2          1 <1>               -1.0000
      2 C2           1.0642 -19.7800  12.1532 C.2            1 <1>                0.0000
      3 O3           1.9545 -20.1402  11.3954 O.co2          1 <1>                0.0000
      4 C4           0.0380 -20.7402  12.5925 C.ar           1 <1>                0.0000
      5 C5          -0.3288 -21.7983  11.7591 C.ar           1 <1>                0.0000
      6 C6          -1.2933 -22.6956  12.1800 C.ar           1 <1>                0.0000
      7 N7          -1.8703 -23.8191  11.6186 N.pl3          1 <1>                0.0000
      8 C8          -2.7731 -24.2982  12.5129 C.2            1 <1>                0.0000
      9 N9          -2.7898 -23.5499  13.5789 N.2            1 <1>                0.0000
     10 C10         -1.8984 -22.5388  13.4417 C.ar           1 <1>                0.0000
     11 C11         -1.5197 -21.4718  14.2657 C.ar           1 <1>                0.0000
     12 C12         -0.5656 -20.5937  13.8504 C.ar           1 <1>                0.0000
     13 N13         -0.1708 -19.4689  14.7278 N.pl3          1 <1>                0.0000
     14 O14          1.0062 -19.2681  14.9683 O.2            1 <1>                0.0000
     15 O15         -1.0230 -18.7441  15.2095 O.2            1 <1>                0.0000
     16 H16          0.1372 -21.9152  10.7919 H              1 <1>                0.0000
     17 H17         -3.3884 -25.1729  12.3620 H              1 <1>                0.0000
     18 H18         -1.9817 -21.3479  15.2340 H              1 <1>                0.0000
     19 H19         -1.6681 -24.1954  10.7477 H              1 <1>                0.0000
@<TRIPOS>BOND
    1    1    2 ar    
    2    2    3 ar    
    3    2    4 1     
    4    4    5 ar    
    5    4   12 ar    
    6    5    6 ar    
    7    5   16 1     
    8    6    7 1     
    9    6   10 ar    
   10    7    8 1     
   11    7   19 1     
   12    8    9 2     
   13    8   17 1     
   14    9   10 1     
   15   10   11 ar    
   16   11   12 ar    
   17   11   18 1     
   18   12   13 1     
   19   13   14 2     
   20   13   15 2     
@<TRIPOS>SUBSTRUCTURE
      1 ****           1
@<TRIPOS>SET
DONOR_HYDROGENS      STATIC     ATOMS    <user>   **** ""
1 19
ATOM$RED        STATIC     ATOMS    COLORGROUP SYSTEM
1 19
@<TRIPOS>COMMENT
> <Gold.Version>
2022.2.0

> <Gold.Id.Protein>
3pbl|protein|mol2

> <Gold.Protein.RotatedTorsions>
[ 1303 1298 1297 1294 ] final -162.04 input  179.99 | X-H torsion
[ 2461 2456 2455 2452 ] final -122.41 input   30.03 | X-H torsion
[ 2515 2510 2509 2506 ] final   98.88 input  -89.99 | X-H torsion
[ 3721 3712 3711 3710 ] final  -14.88 input -179.91 | X-H torsion
[ 3841 3832 3831 3830 ] final    3.63 input -179.91 | X-H torsion
[ 3767 3762 3761 3758 ] final  153.27 input  -89.99 | X-H torsion
[ 2472 2467 2466 2463 ] final  -87.51 input  -89.97 | X-H torsion

> <Gold.Protein.ActiveResidues>
 VAL82   VAL86   LEU89   PHE106  VAL107  ASP110  VAL111  MET112  CYS114  THR115 
 CYS181  SER182  ILE183  PHE188  VAL189  ILE190  SER192  SER193  SER196  TRP342 
 PHE345  PHE346  HIS349  VAL350  TYR365  THR369  GLY372  TYR373 

> <Gold.Protein.RotatedAtoms>
    4.7285   -8.6689    4.5131 H   0  0  0  0  0  0  0  0  0  0  0  0  # atno 1303 bound_to 1298
    0.6024   -9.1896    8.0778 H   0  0  0  0  0  0  0  0  0  0  0  0  # atno 2461 bound_to 2456
   -4.0102   -5.3328    9.2759 H   0  0  0  0  0  0  0  0  0  0  0  0  # atno 2472 bound_to 2467
    2.0316   -7.8498    5.9280 H   0  0  0  0  0  0  0  0  0  0  0  0  # atno 2515 bound_to 2510
   -2.5319  -17.8485   14.4337 H   0  0  0  0  0  0  0  0  0  0  0  0  # atno 3721 bound_to 3712
   -3.9281  -22.8595   11.3306 H   0  0  0  0  0  0  0  0  0  0  0  0  # atno 3767 bound_to 3762
    1.7694  -20.5277    9.5750 H   0  0  0  0  0  0  0  0  0  0  0  0  # atno 3841 bound_to 3832
    4.2552  -10.2085    4.7810 LP  0  0  0  0  0  0  0  0  0  0  0  0  # atno 4297 bound_to 1298
    3.3782   -9.2442    3.7974 LP  0  0  0  0  0  0  0  0  0  0  0  0  # atno 4298 bound_to 1298
    2.1315   -8.6169    8.0393 LP  0  0  0  0  0  0  0  0  0  0  0  0  # atno 4299 bound_to 2456
    1.0037   -8.0018    7.0312 LP  0  0  0  0  0  0  0  0  0  0  0  0  # atno 4300 bound_to 2456
    2.6736   -7.8921    4.4274 LP  0  0  0  0  0  0  0  0  0  0  0  0  # atno 4301 bound_to 2510
    2.5917   -9.2575    5.3195 LP  0  0  0  0  0  0  0  0  0  0  0  0  # atno 4302 bound_to 2510
   -3.5131  -16.5933   14.2355 LP  0  0  0  0  0  0  0  0  0  0  0  0  # atno 4306 bound_to 3712
   -3.0914  -17.5266   12.9636 LP  0  0  0  0  0  0  0  0  0  0  0  0  # atno 4307 bound_to 3712
    2.0902  -19.6445    8.2738 LP  0  0  0  0  0  0  0  0  0  0  0  0  # atno 4314 bound_to 3832
    3.0953  -20.8482    8.7292 LP  0  0  0  0  0  0  0  0  0  0  0  0  # atno 4315 bound_to 3832
   -4.9396  -23.0887   10.0692 LP  0  0  0  0  0  0  0  0  0  0  0  0  # atno 4318 bound_to 3762
   -5.2593  -21.9270   11.1715 LP  0  0  0  0  0  0  0  0  0  0  0  0  # atno 4319 bound_to 3762
   -5.5034   -5.2596    8.6192 LP  0  0  0  0  0  0  0  0  0  0  0  0  # atno 4320 bound_to 2467
   -4.2032   -4.8012    7.7441 LP  0  0  0  0  0  0  0  0  0  0  0  0  # atno 4321 bound_to 2467

> <Gold.Score>
     Score     S(PLP)   S(hbond)     S(cho)   S(metal)  DE(clash)   DE(tors)     intcor
     34.31     -28.33       2.00       0.00       0.00       0.00       1.28       2.53

> <Gold.PLP.Fitness>
34.3139

> <Gold.PLP.PLP>
-28.3346

> <Gold.PLP.part.hbond>
-3.8034

> <Gold.PLP.part.metal>
0.0000

> <Gold.PLP.part.buried>
-4.5216

> <Gold.PLP.part.nonpolar>
-21.1168

> <Gold.PLP.part.repulsive>
0.3788

> <Gold.PLP.ligand.clash>
0.0000

> <Gold.PLP.ligand.torsion>
1.2778

> <Gold.PLP.Chemscore.Hbond>
2.0000

> <Gold.PLP.Chemscore.CHOScore>
0.0000

> <Gold.PLP.Chemscore.Metal>
0.0000

> <Gold.Chemscore.Hbonds>
donor molecule, donor type, donor heavy atom, donor atom, acceptor molecule, acceptor atom, score
      P1  H  3712  3721       L1    15  1.00
      P1  H  3832  3841       L1     3  1.00

> <Gold.PLP.Chemscore.Internal.Correction>
2.5349

