#       Name:                EN300-6486870_i001
#       Creating user name   fsindt
#       Creation time:       Thu Mar  2 00:35:14 2023


#       File generated by GOLD software.
#

@<TRIPOS>MOLECULE
EN300-6486870_i001|acide_1|mol2|10832|dock4
    19    20     1
SMALL
USER_CHARGES


@<TRIPOS>ATOM
      1 O1          -0.8839 -10.7644   8.3853 O.co2          1 <1>               -1.0000
      2 C2           0.0827 -11.4139   8.7601 C.2            1 <1>                0.0000
      3 O3           1.1867 -11.2014   8.2779 O.co2          1 <1>                0.0000
      4 C4          -0.0818 -12.4473   9.7960 C.ar           1 <1>                0.0000
      5 C5           0.5809 -13.6697   9.6723 C.ar           1 <1>                0.0000
      6 C6           0.4210 -14.6344  10.6503 C.ar           1 <1>                0.0000
      7 N7           0.9175 -15.9118  10.8297 N.pl3          1 <1>                0.0000
      8 C8           0.4035 -16.3841  11.9947 C.2            1 <1>                0.0000
      9 N9          -0.3702 -15.4891  12.5397 N.2            1 <1>                0.0000
     10 C10         -0.4058 -14.3806  11.7614 C.ar           1 <1>                0.0000
     11 C11         -1.0639 -13.1494  11.8705 C.ar           1 <1>                0.0000
     12 C12         -0.8996 -12.1998  10.9087 C.ar           1 <1>                0.0000
     13 N13         -1.5986 -10.9009  11.0320 N.pl3          1 <1>                0.0000
     14 O14         -1.0279  -9.8704  10.7223 O.2            1 <1>                0.0000
     15 O15         -2.7444 -10.8626  11.4431 O.2            1 <1>                0.0000
     16 H16          1.2139 -13.8609   8.8185 H              1 <1>                0.0000
     17 H17          0.6067 -17.3605  12.4091 H              1 <1>                0.0000
     18 H18         -1.6992 -12.9510  12.7211 H              1 <1>                0.0000
     19 H19          1.5207 -16.3833  10.2341 H              1 <1>                0.0000
@<TRIPOS>BOND
    1    1    2 ar    
    2    2    3 ar    
    3    2    4 1     
    4    4    5 ar    
    5    4   12 ar    
    6    5    6 ar    
    7    5   16 1     
    8    6    7 1     
    9    6   10 ar    
   10    7    8 1     
   11    7   19 1     
   12    8    9 2     
   13    8   17 1     
   14    9   10 1     
   15   10   11 ar    
   16   11   12 ar    
   17   11   18 1     
   18   12   13 1     
   19   13   14 2     
   20   13   15 2     
@<TRIPOS>SUBSTRUCTURE
      1 ****           1
@<TRIPOS>SET
DONOR_HYDROGENS      STATIC     ATOMS    <user>   **** ""
1 19
ATOM$RED        STATIC     ATOMS    COLORGROUP SYSTEM
1 19
@<TRIPOS>COMMENT
> <Gold.Version>
2022.2.0

> <Gold.Id.Protein>
3pbl|protein|mol2

> <Gold.Protein.RotatedTorsions>
[ 1303 1298 1297 1294 ] final -139.76 input  179.99 | X-H torsion
[ 2461 2456 2455 2452 ] final -165.00 input   30.03 | X-H torsion
[ 2515 2510 2509 2506 ] final   -8.19 input  -89.99 | X-H torsion
[ 3721 3712 3711 3710 ] final   53.56 input -179.91 | X-H torsion
[ 3841 3832 3831 3830 ] final  -32.37 input -179.91 | X-H torsion
[ 3767 3762 3761 3758 ] final    4.62 input  -89.99 | X-H torsion
[ 2472 2467 2466 2463 ] final  -96.14 input  -89.97 | X-H torsion

> <Gold.Protein.ActiveResidues>
 VAL82   VAL86   LEU89   PHE106  VAL107  ASP110  VAL111  MET112  CYS114  THR115 
 CYS181  SER182  ILE183  PHE188  VAL189  ILE190  SER192  SER193  SER196  TRP342 
 PHE345  PHE346  HIS349  VAL350  TYR365  THR369  GLY372  TYR373 

> <Gold.Protein.RotatedAtoms>
    4.4911   -8.5104    4.2866 H   0  0  0  0  0  0  0  0  0  0  0  0  # atno 1303 bound_to 1298
    1.2129   -9.2752    8.3764 H   0  0  0  0  0  0  0  0  0  0  0  0  # atno 2461 bound_to 2456
   -4.1292   -5.3702    9.3435 H   0  0  0  0  0  0  0  0  0  0  0  0  # atno 2472 bound_to 2467
    2.5952   -7.7216    4.5267 H   0  0  0  0  0  0  0  0  0  0  0  0  # atno 2515 bound_to 2510
   -2.5595  -17.9507   13.4652 H   0  0  0  0  0  0  0  0  0  0  0  0  # atno 3721 bound_to 3712
   -5.2796  -22.7732   10.1209 H   0  0  0  0  0  0  0  0  0  0  0  0  # atno 3767 bound_to 3762
    1.5666  -20.1031    9.3204 H   0  0  0  0  0  0  0  0  0  0  0  0  # atno 3841 bound_to 3832
    4.5409  -10.0203    4.9065 LP  0  0  0  0  0  0  0  0  0  0  0  0  # atno 4297 bound_to 1298
    3.3300   -9.5910    3.8985 LP  0  0  0  0  0  0  0  0  0  0  0  0  # atno 4298 bound_to 1298
    2.0546   -8.1492    7.5452 LP  0  0  0  0  0  0  0  0  0  0  0  0  # atno 4299 bound_to 2456
    0.4703   -8.3840    7.2267 LP  0  0  0  0  0  0  0  0  0  0  0  0  # atno 4300 bound_to 2456
    2.6706   -9.2395    5.1233 LP  0  0  0  0  0  0  0  0  0  0  0  0  # atno 4301 bound_to 2510
    2.0309   -8.0383    6.0257 LP  0  0  0  0  0  0  0  0  0  0  0  0  # atno 4302 bound_to 2510
   -3.0373  -17.3261   14.8650 LP  0  0  0  0  0  0  0  0  0  0  0  0  # atno 4306 bound_to 3712
   -3.5355  -16.6759   13.4523 LP  0  0  0  0  0  0  0  0  0  0  0  0  # atno 4307 bound_to 3712
    2.6237  -19.8609    8.1372 LP  0  0  0  0  0  0  0  0  0  0  0  0  # atno 4314 bound_to 3832
    2.7960  -21.1223    9.1599 LP  0  0  0  0  0  0  0  0  0  0  0  0  # atno 4315 bound_to 3832
   -4.9122  -21.9492   11.4822 LP  0  0  0  0  0  0  0  0  0  0  0  0  # atno 4318 bound_to 3762
   -3.9358  -23.1527   10.9677 LP  0  0  0  0  0  0  0  0  0  0  0  0  # atno 4319 bound_to 3762
   -5.5096   -5.2122    8.4857 LP  0  0  0  0  0  0  0  0  0  0  0  0  # atno 4320 bound_to 2467
   -4.0780   -4.8112    7.8101 LP  0  0  0  0  0  0  0  0  0  0  0  0  # atno 4321 bound_to 2467

> <Gold.Score>
     Score     S(PLP)   S(hbond)     S(cho)   S(metal)  DE(clash)   DE(tors)     intcor
     38.77     -33.43       2.00       0.00       0.00       0.64       1.28       2.53

> <Gold.PLP.Fitness>
38.7696

> <Gold.PLP.PLP>
-33.4350

> <Gold.PLP.part.hbond>
-2.7347

> <Gold.PLP.part.metal>
0.0000

> <Gold.PLP.part.buried>
-1.1797

> <Gold.PLP.part.nonpolar>
-30.6003

> <Gold.PLP.part.repulsive>
0.2319

> <Gold.PLP.ligand.clash>
0.6362

> <Gold.PLP.ligand.torsion>
1.2821

> <Gold.PLP.Chemscore.Hbond>
2.0000

> <Gold.PLP.Chemscore.CHOScore>
0.0000

> <Gold.PLP.Chemscore.Metal>
0.0000

> <Gold.Chemscore.Hbonds>
donor molecule, donor type, donor heavy atom, donor atom, acceptor molecule, acceptor atom, score
      L1  H     7    19       P1  1227  1.00
      P1  H  2456  2461       L1     3  1.00

> <Gold.PLP.Chemscore.Internal.Correction>
2.5349

