#       Name:                EN300-6486870_i001
#       Creating user name   fsindt
#       Creation time:       Thu Mar  2 00:35:17 2023


#       File generated by GOLD software.
#

@<TRIPOS>MOLECULE
EN300-6486870_i001|acide_1|mol2|10832|dock13
    19    20     1
SMALL
USER_CHARGES


@<TRIPOS>ATOM
      1 O1           1.6788 -11.9951   5.7900 O.co2          1 <1>               -1.0000
      2 C2           1.1393 -11.8120   6.8726 C.2            1 <1>                0.0000
      3 O3           0.9262 -10.6731   7.2650 O.co2          1 <1>                0.0000
      4 C4           0.7410 -12.9626   7.7006 C.ar           1 <1>                0.0000
      5 C5           0.8667 -14.2591   7.1987 C.ar           1 <1>                0.0000
      6 C6           0.4906 -15.3340   7.9835 C.ar           1 <1>                0.0000
      7 N7           0.4855 -16.7036   7.7979 N.pl3          1 <1>                0.0000
      8 C8          -0.0019 -17.2628   8.9356 C.2            1 <1>                0.0000
      9 N9          -0.2947 -16.3353   9.8020 N.2            1 <1>                0.0000
     10 C10         -0.0152 -15.1168   9.2795 C.ar           1 <1>                0.0000
     11 C11         -0.1355 -13.8100   9.7681 C.ar           1 <1>                0.0000
     12 C12          0.2412 -12.7546   8.9948 C.ar           1 <1>                0.0000
     13 N13          0.1112 -11.3766   9.5192 N.pl3          1 <1>                0.0000
     14 O14         -0.9928 -10.8890   9.6833 O.2            1 <1>                0.0000
     15 O15          1.1083 -10.7301   9.7865 O.2            1 <1>                0.0000
     16 H16          1.2547 -14.4218   6.2040 H              1 <1>                0.0000
     17 H17         -0.1286 -18.3229   9.0982 H              1 <1>                0.0000
     18 H18         -0.5233 -13.6393  10.7615 H              1 <1>                0.0000
     19 H19          0.7759 -17.1773   7.0028 H              1 <1>                0.0000
@<TRIPOS>BOND
    1    1    2 ar    
    2    2    3 ar    
    3    2    4 1     
    4    4    5 ar    
    5    4   12 ar    
    6    5    6 ar    
    7    5   16 1     
    8    6    7 1     
    9    6   10 ar    
   10    7    8 1     
   11    7   19 1     
   12    8    9 2     
   13    8   17 1     
   14    9   10 1     
   15   10   11 ar    
   16   11   12 ar    
   17   11   18 1     
   18   12   13 1     
   19   13   14 2     
   20   13   15 2     
@<TRIPOS>SUBSTRUCTURE
      1 ****           1
@<TRIPOS>SET
DONOR_HYDROGENS      STATIC     ATOMS    <user>   **** ""
1 19
ATOM$RED        STATIC     ATOMS    COLORGROUP SYSTEM
1 19
@<TRIPOS>COMMENT
> <Gold.Version>
2022.2.0

> <Gold.Id.Protein>
3pbl|protein|mol2

> <Gold.Protein.RotatedTorsions>
[ 1303 1298 1297 1294 ] final -173.71 input  179.99 | X-H torsion
[ 2461 2456 2455 2452 ] final -161.64 input   30.03 | X-H torsion
[ 2515 2510 2509 2506 ] final  175.76 input  -89.99 | X-H torsion
[ 3721 3712 3711 3710 ] final   13.77 input -179.91 | X-H torsion
[ 3841 3832 3831 3830 ] final -140.73 input -179.91 | X-H torsion
[ 3767 3762 3761 3758 ] final   32.78 input  -89.99 | X-H torsion
[ 2472 2467 2466 2463 ] final  134.62 input  -89.97 | X-H torsion

> <Gold.Protein.ActiveResidues>
 VAL82   VAL86   LEU89   PHE106  VAL107  ASP110  VAL111  MET112  CYS114  THR115 
 CYS181  SER182  ILE183  PHE188  VAL189  ILE190  SER192  SER193  SER196  TRP342 
 PHE345  PHE346  HIS349  VAL350  TYR365  THR369  GLY372  TYR373 

> <Gold.Protein.RotatedAtoms>
    4.8183   -8.7960    4.6248 H   0  0  0  0  0  0  0  0  0  0  0  0  # atno 1303 bound_to 1298
    1.1594   -9.2820    8.3645 H   0  0  0  0  0  0  0  0  0  0  0  0  # atno 2461 bound_to 2456
   -5.4927   -5.1600    8.3439 H   0  0  0  0  0  0  0  0  0  0  0  0  # atno 2472 bound_to 2467
    2.2953   -8.9908    5.8860 H   0  0  0  0  0  0  0  0  0  0  0  0  # atno 2515 bound_to 2510
   -2.4702  -18.0165   14.0441 H   0  0  0  0  0  0  0  0  0  0  0  0  # atno 3721 bound_to 3712
   -4.9459  -23.0836   10.0678 H   0  0  0  0  0  0  0  0  0  0  0  0  # atno 3767 bound_to 3762
    2.5066  -19.6859    8.3648 H   0  0  0  0  0  0  0  0  0  0  0  0  # atno 3841 bound_to 3832
    4.0948  -10.2584    4.6889 LP  0  0  0  0  0  0  0  0  0  0  0  0  # atno 4297 bound_to 1298
    3.4489   -9.0671    3.7778 LP  0  0  0  0  0  0  0  0  0  0  0  0  # atno 4298 bound_to 1298
    2.0783   -8.1800    7.5843 LP  0  0  0  0  0  0  0  0  0  0  0  0  # atno 4299 bound_to 2456
    0.5000   -8.3463    7.1995 LP  0  0  0  0  0  0  0  0  0  0  0  0  # atno 4300 bound_to 2456
    2.1719   -7.4413    5.3863 LP  0  0  0  0  0  0  0  0  0  0  0  0  # atno 4301 bound_to 2510
    2.8295   -8.5667    4.4026 LP  0  0  0  0  0  0  0  0  0  0  0  0  # atno 4302 bound_to 2510
   -3.3545  -16.8095   14.6262 LP  0  0  0  0  0  0  0  0  0  0  0  0  # atno 4306 bound_to 3712
   -3.3212  -17.1164   13.0227 LP  0  0  0  0  0  0  0  0  0  0  0  0  # atno 4307 bound_to 3712
    2.8930  -21.0793    9.0614 LP  0  0  0  0  0  0  0  0  0  0  0  0  # atno 4314 bound_to 3832
    1.4409  -20.3859    9.3397 LP  0  0  0  0  0  0  0  0  0  0  0  0  # atno 4315 bound_to 3832
   -5.2544  -21.9259   11.1776 LP  0  0  0  0  0  0  0  0  0  0  0  0  # atno 4318 bound_to 3762
   -3.9271  -22.8657   11.3254 LP  0  0  0  0  0  0  0  0  0  0  0  0  # atno 4319 bound_to 3762
   -3.9565   -4.8299    7.8992 LP  0  0  0  0  0  0  0  0  0  0  0  0  # atno 4320 bound_to 2467
   -4.2679   -5.4036    9.3960 LP  0  0  0  0  0  0  0  0  0  0  0  0  # atno 4321 bound_to 2467

> <Gold.Score>
     Score     S(PLP)   S(hbond)     S(cho)   S(metal)  DE(clash)   DE(tors)     intcor
     36.17     -33.38       1.00       0.00       0.00       0.08       1.34       2.53

> <Gold.PLP.Fitness>
36.1725

> <Gold.PLP.PLP>
-33.3839

> <Gold.PLP.part.hbond>
-2.4816

> <Gold.PLP.part.metal>
0.0000

> <Gold.PLP.part.buried>
-0.5308

> <Gold.PLP.part.nonpolar>
-31.4084

> <Gold.PLP.part.repulsive>
0.2649

> <Gold.PLP.ligand.clash>
0.0756

> <Gold.PLP.ligand.torsion>
1.3353

> <Gold.PLP.Chemscore.Hbond>
1.0000

> <Gold.PLP.Chemscore.CHOScore>
0.0000

> <Gold.PLP.Chemscore.Metal>
0.0000

> <Gold.Chemscore.Hbonds>
donor molecule, donor type, donor heavy atom, donor atom, acceptor molecule, acceptor atom, score
      P1  H  2456  2461       L1    15  1.00

> <Gold.PLP.Chemscore.Internal.Correction>
2.5349

