#       Name:                EN300-6486870_i001
#       Creating user name   fsindt
#       Creation time:       Thu Mar  2 00:35:15 2023


#       File generated by GOLD software.
#

@<TRIPOS>MOLECULE
EN300-6486870_i001|acide_1|mol2|10832|dock7
    19    20     1
SMALL
USER_CHARGES


@<TRIPOS>ATOM
      1 O1          -2.3901 -10.4516   9.8770 O.co2          1 <1>               -1.0000
      2 C2          -1.3869 -10.8961   9.3361 C.2            1 <1>                0.0000
      3 O3          -0.8917 -10.3059   8.3859 O.co2          1 <1>                0.0000
      4 C4          -0.7720 -12.1385   9.8327 C.ar           1 <1>                0.0000
      5 C5          -1.2084 -12.7004  11.0337 C.ar           1 <1>                0.0000
      6 C6          -0.6255 -13.8677  11.4924 C.ar           1 <1>                0.0000
      7 N7          -0.8154 -14.6625  12.6071 N.pl3          1 <1>                0.0000
      8 C8           0.0615 -15.6959  12.5195 C.2            1 <1>                0.0000
      9 N9           0.7728 -15.5903  11.4334 N.2            1 <1>                0.0000
     10 C10          0.4009 -14.4815  10.7492 C.ar           1 <1>                0.0000
     11 C11          0.8276 -13.9050   9.5465 C.ar           1 <1>                0.0000
     12 C12          0.2474 -12.7589   9.0952 C.ar           1 <1>                0.0000
     13 N13          0.7042 -12.1564   7.8227 N.pl3          1 <1>                0.0000
     14 O14          0.3887 -12.6632   6.7610 O.2            1 <1>                0.0000
     15 O15          1.3955 -11.1537   7.8372 O.2            1 <1>                0.0000
     16 H16         -1.9957 -12.2266  11.6012 H              1 <1>                0.0000
     17 H17          0.1557 -16.4899  13.2454 H              1 <1>                0.0000
     18 H18          1.6148 -14.3726   8.9738 H              1 <1>                0.0000
     19 H19         -1.4558 -14.5104  13.3195 H              1 <1>                0.0000
@<TRIPOS>BOND
    1    1    2 ar    
    2    2    3 ar    
    3    2    4 1     
    4    4    5 ar    
    5    4   12 ar    
    6    5    6 ar    
    7    5   16 1     
    8    6    7 1     
    9    6   10 ar    
   10    7    8 1     
   11    7   19 1     
   12    8    9 2     
   13    8   17 1     
   14    9   10 1     
   15   10   11 ar    
   16   11   12 ar    
   17   11   18 1     
   18   12   13 1     
   19   13   14 2     
   20   13   15 2     
@<TRIPOS>SUBSTRUCTURE
      1 ****           1
@<TRIPOS>SET
DONOR_HYDROGENS      STATIC     ATOMS    <user>   **** ""
1 19
ATOM$RED        STATIC     ATOMS    COLORGROUP SYSTEM
1 19
@<TRIPOS>COMMENT
> <Gold.Version>
2022.2.0

> <Gold.Id.Protein>
3pbl|protein|mol2

> <Gold.Protein.RotatedTorsions>
[ 1303 1298 1297 1294 ] final -123.58 input  179.99 | X-H torsion
[ 2461 2456 2455 2452 ] final -128.69 input   30.03 | X-H torsion
[ 2515 2510 2509 2506 ] final   43.58 input  -89.99 | X-H torsion
[ 3721 3712 3711 3710 ] final  177.95 input -179.91 | X-H torsion
[ 3841 3832 3831 3830 ] final  -12.37 input -179.91 | X-H torsion
[ 3767 3762 3761 3758 ] final  -65.76 input  -89.99 | X-H torsion
[ 2472 2467 2466 2463 ] final  -48.55 input  -89.97 | X-H torsion

> <Gold.Protein.ActiveResidues>
 VAL82   VAL86   LEU89   PHE106  VAL107  ASP110  VAL111  MET112  CYS114  THR115 
 CYS181  SER182  ILE183  PHE188  VAL189  ILE190  SER192  SER193  SER196  TRP342 
 PHE345  PHE346  HIS349  VAL350  TYR365  THR369  GLY372  TYR373 

> <Gold.Protein.RotatedAtoms>
    4.2817   -8.4756    4.1276 H   0  0  0  0  0  0  0  0  0  0  0  0  # atno 1303 bound_to 1298
    0.6776   -9.2250    8.1393 H   0  0  0  0  0  0  0  0  0  0  0  0  # atno 2461 bound_to 2456
   -3.6632   -5.1216    8.7960 H   0  0  0  0  0  0  0  0  0  0  0  0  # atno 2472 bound_to 2467
    2.2431   -7.4101    5.2020 H   0  0  0  0  0  0  0  0  0  0  0  0  # atno 2515 bound_to 2510
   -3.3172  -16.6199   13.5187 H   0  0  0  0  0  0  0  0  0  0  0  0  # atno 3721 bound_to 3712
   -5.4316  -22.0199   10.8895 H   0  0  0  0  0  0  0  0  0  0  0  0  # atno 3767 bound_to 3762
    1.6449  -20.3418    9.4856 H   0  0  0  0  0  0  0  0  0  0  0  0  # atno 3841 bound_to 3832
    4.7111   -9.8208    4.9474 LP  0  0  0  0  0  0  0  0  0  0  0  0  # atno 4297 bound_to 1298
    3.3693   -9.8253    4.0167 LP  0  0  0  0  0  0  0  0  0  0  0  0  # atno 4298 bound_to 1298
    2.1515   -8.5418    7.9713 LP  0  0  0  0  0  0  0  0  0  0  0  0  # atno 4299 bound_to 2456
    0.9086   -8.0416    7.0377 LP  0  0  0  0  0  0  0  0  0  0  0  0  # atno 4300 bound_to 2456
    2.8356   -8.7504    4.4821 LP  0  0  0  0  0  0  0  0  0  0  0  0  # atno 4301 bound_to 2510
    2.2181   -8.8392    5.9912 LP  0  0  0  0  0  0  0  0  0  0  0  0  # atno 4302 bound_to 2510
   -2.7214  -18.1056   13.3948 LP  0  0  0  0  0  0  0  0  0  0  0  0  # atno 4306 bound_to 3712
   -2.9765  -17.4328   14.8607 LP  0  0  0  0  0  0  0  0  0  0  0  0  # atno 4307 bound_to 3712
    2.3318  -19.7078    8.1809 LP  0  0  0  0  0  0  0  0  0  0  0  0  # atno 4314 bound_to 3832
    2.9975  -20.9997    8.9255 LP  0  0  0  0  0  0  0  0  0  0  0  0  # atno 4315 bound_to 3832
   -4.0465  -22.6043   11.5273 LP  0  0  0  0  0  0  0  0  0  0  0  0  # atno 4318 bound_to 3762
   -4.6495  -23.2507   10.1543 LP  0  0  0  0  0  0  0  0  0  0  0  0  # atno 4319 bound_to 3762
   -5.2263   -5.4237    9.1592 LP  0  0  0  0  0  0  0  0  0  0  0  0  # atno 4320 bound_to 2467
   -4.8273   -4.8482    7.6840 LP  0  0  0  0  0  0  0  0  0  0  0  0  # atno 4321 bound_to 2467

> <Gold.Score>
     Score     S(PLP)   S(hbond)     S(cho)   S(metal)  DE(clash)   DE(tors)     intcor
     34.64     -31.98       1.00       0.00       0.00       0.00       1.43       2.53

> <Gold.PLP.Fitness>
34.6446

> <Gold.PLP.PLP>
-31.9770

> <Gold.PLP.part.hbond>
-2.0722

> <Gold.PLP.part.metal>
0.0000

> <Gold.PLP.part.buried>
-0.1682

> <Gold.PLP.part.nonpolar>
-30.2770

> <Gold.PLP.part.repulsive>
0.3307

> <Gold.PLP.ligand.clash>
0.0000

> <Gold.PLP.ligand.torsion>
1.4337

> <Gold.PLP.Chemscore.Hbond>
1.0000

> <Gold.PLP.Chemscore.CHOScore>
0.0000

> <Gold.PLP.Chemscore.Metal>
0.0000

> <Gold.Chemscore.Hbonds>
donor molecule, donor type, donor heavy atom, donor atom, acceptor molecule, acceptor atom, score
      P1  H  2456  2461       L1     3  1.00

> <Gold.PLP.Chemscore.Internal.Correction>
2.5349

