#       Name:                EN300-6486870_i001
#       Creating user name   fsindt
#       Creation time:       Thu Mar  2 00:35:16 2023


#       File generated by GOLD software.
#

@<TRIPOS>MOLECULE
EN300-6486870_i001|acide_1|mol2|10832|dock9
    19    20     1
SMALL
USER_CHARGES


@<TRIPOS>ATOM
      1 O1          -0.0945 -12.6852   7.6397 O.co2          1 <1>               -1.0000
      2 C2           0.5200 -13.5228   8.2859 C.2            1 <1>                0.0000
      3 O3           1.4672 -14.1102   7.7816 O.co2          1 <1>                0.0000
      4 C4           0.1233 -13.8194   9.6724 C.ar           1 <1>                0.0000
      5 C5           0.4879 -15.0334  10.2571 C.ar           1 <1>                0.0000
      6 C6           0.1113 -15.3035  11.5602 C.ar           1 <1>                0.0000
      7 N7           0.3017 -16.3747  12.4126 N.pl3          1 <1>                0.0000
      8 C8          -0.3065 -16.0679  13.5875 C.2            1 <1>                0.0000
      9 N9          -0.8542 -14.8883  13.5151 N.2            1 <1>                0.0000
     10 C10         -0.6348 -14.3570  12.2881 C.ar           1 <1>                0.0000
     11 C11         -0.9931 -13.1440  11.6871 C.ar           1 <1>                0.0000
     12 C12         -0.6156 -12.8792  10.4060 C.ar           1 <1>                0.0000
     13 N13         -0.9981 -11.5943   9.7784 N.pl3          1 <1>                0.0000
     14 O14         -2.1736 -11.2914   9.6784 O.2            1 <1>                0.0000
     15 O15         -0.1373 -10.8400   9.3618 O.2            1 <1>                0.0000
     16 H16          1.0600 -15.7571   9.6955 H              1 <1>                0.0000
     17 H17         -0.3325 -16.7093  14.4560 H              1 <1>                0.0000
     18 H18         -1.5656 -12.4156  12.2420 H              1 <1>                0.0000
     19 H19          0.7805 -17.1934  12.2093 H              1 <1>                0.0000
@<TRIPOS>BOND
    1    1    2 ar    
    2    2    3 ar    
    3    2    4 1     
    4    4    5 ar    
    5    4   12 ar    
    6    5    6 ar    
    7    5   16 1     
    8    6    7 1     
    9    6   10 ar    
   10    7    8 1     
   11    7   19 1     
   12    8    9 2     
   13    8   17 1     
   14    9   10 1     
   15   10   11 ar    
   16   11   12 ar    
   17   11   18 1     
   18   12   13 1     
   19   13   14 2     
   20   13   15 2     
@<TRIPOS>SUBSTRUCTURE
      1 ****           1
@<TRIPOS>SET
DONOR_HYDROGENS      STATIC     ATOMS    <user>   **** ""
1 19
ATOM$RED        STATIC     ATOMS    COLORGROUP SYSTEM
1 19
@<TRIPOS>COMMENT
> <Gold.Version>
2022.2.0

> <Gold.Id.Protein>
3pbl|protein|mol2

> <Gold.Protein.RotatedTorsions>
[ 1303 1298 1297 1294 ] final  109.78 input  179.99 | X-H torsion
[ 2461 2456 2455 2452 ] final -150.11 input   30.03 | X-H torsion
[ 2515 2510 2509 2506 ] final  141.89 input  -89.99 | X-H torsion
[ 3721 3712 3711 3710 ] final  170.06 input -179.91 | X-H torsion
[ 3841 3832 3831 3830 ] final    9.72 input -179.91 | X-H torsion
[ 3767 3762 3761 3758 ] final   60.35 input  -89.99 | X-H torsion
[ 2472 2467 2466 2463 ] final   96.82 input  -89.97 | X-H torsion

> <Gold.Protein.ActiveResidues>
 VAL82   VAL86   LEU89   PHE106  VAL107  ASP110  VAL111  MET112  CYS114  THR115 
 CYS181  SER182  ILE183  PHE188  VAL189  ILE190  SER192  SER193  SER196  TRP342 
 PHE345  PHE346  HIS349  VAL350  TYR365  THR369  GLY372  TYR373 

> <Gold.Protein.RotatedAtoms>
    4.6459   -9.9076    4.9364 H   0  0  0  0  0  0  0  0  0  0  0  0  # atno 1303 bound_to 1298
    0.9789   -9.2875    8.3069 H   0  0  0  0  0  0  0  0  0  0  0  0  # atno 2461 bound_to 2456
   -5.1893   -4.9510    7.8567 H   0  0  0  0  0  0  0  0  0  0  0  0  # atno 2472 bound_to 2467
    2.1071   -8.5171    6.0903 H   0  0  0  0  0  0  0  0  0  0  0  0  # atno 2515 bound_to 2510
   -3.2947  -16.6752   13.4154 H   0  0  0  0  0  0  0  0  0  0  0  0  # atno 3721 bound_to 3712
   -4.5643  -23.2826   10.1969 H   0  0  0  0  0  0  0  0  0  0  0  0  # atno 3767 bound_to 3762
    1.8291  -20.5939    9.5973 H   0  0  0  0  0  0  0  0  0  0  0  0  # atno 3841 bound_to 3832
    3.3457   -9.7323    3.9642 LP  0  0  0  0  0  0  0  0  0  0  0  0  # atno 4297 bound_to 1298
    4.3704   -8.4812    4.1908 LP  0  0  0  0  0  0  0  0  0  0  0  0  # atno 4298 bound_to 1298
    2.1376   -8.2966    7.7215 LP  0  0  0  0  0  0  0  0  0  0  0  0  # atno 4299 bound_to 2456
    0.6212   -8.2243    7.1199 LP  0  0  0  0  0  0  0  0  0  0  0  0  # atno 4300 bound_to 2456
    2.3880   -7.4562    4.8815 LP  0  0  0  0  0  0  0  0  0  0  0  0  # atno 4301 bound_to 2510
    2.8018   -9.0257    4.7030 LP  0  0  0  0  0  0  0  0  0  0  0  0  # atno 4302 bound_to 2510
   -2.6821  -18.1562   13.5100 LP  0  0  0  0  0  0  0  0  0  0  0  0  # atno 4306 bound_to 3712
   -3.0418  -17.3183   14.8647 LP  0  0  0  0  0  0  0  0  0  0  0  0  # atno 4307 bound_to 3712
    2.0007  -19.6356    8.3213 LP  0  0  0  0  0  0  0  0  0  0  0  0  # atno 4314 bound_to 3832
    3.1157  -20.7806    8.6561 LP  0  0  0  0  0  0  0  0  0  0  0  0  # atno 4315 bound_to 3832
   -5.4648  -22.0637   10.8053 LP  0  0  0  0  0  0  0  0  0  0  0  0  # atno 4318 bound_to 3762
   -4.0982  -22.5289   11.5686 LP  0  0  0  0  0  0  0  0  0  0  0  0  # atno 4319 bound_to 3762
   -3.6523   -4.9795    8.4072 LP  0  0  0  0  0  0  0  0  0  0  0  0  # atno 4320 bound_to 2467
   -4.8754   -5.4629    9.3752 LP  0  0  0  0  0  0  0  0  0  0  0  0  # atno 4321 bound_to 2467

> <Gold.Score>
     Score     S(PLP)   S(hbond)     S(cho)   S(metal)  DE(clash)   DE(tors)     intcor
     33.86     -31.55       0.80       0.00       0.00       0.00       1.31       2.53

> <Gold.PLP.Fitness>
33.8581

> <Gold.PLP.PLP>
-31.5506

> <Gold.PLP.part.hbond>
-1.9052

> <Gold.PLP.part.metal>
0.0000

> <Gold.PLP.part.buried>
-1.2779

> <Gold.PLP.part.nonpolar>
-28.9938

> <Gold.PLP.part.repulsive>
0.3095

> <Gold.PLP.ligand.clash>
0.0000

> <Gold.PLP.ligand.torsion>
1.3081

> <Gold.PLP.Chemscore.Hbond>
0.7963

> <Gold.PLP.Chemscore.CHOScore>
0.0000

> <Gold.PLP.Chemscore.Metal>
0.0000

> <Gold.Chemscore.Hbonds>
donor molecule, donor type, donor heavy atom, donor atom, acceptor molecule, acceptor atom, score
      P1  H  2456  2461       L1    15  0.80

> <Gold.PLP.Chemscore.Internal.Correction>
2.5349

