#       Name:                EN300-6486870_i001
#       Creating user name   fsindt
#       Creation time:       Thu Mar  2 00:35:18 2023


#       File generated by GOLD software.
#

@<TRIPOS>MOLECULE
EN300-6486870_i001|acide_1|mol2|10832|dock17
    19    20     1
SMALL
USER_CHARGES


@<TRIPOS>ATOM
      1 O1           2.1479 -14.8506  10.1816 O.co2          1 <1>               -1.0000
      2 C2           1.4503 -14.2619   9.3670 C.2            1 <1>                0.0000
      3 O3           1.6499 -14.4114   8.1694 O.co2          1 <1>                0.0000
      4 C4           0.3666 -13.3782   9.8282 C.ar           1 <1>                0.0000
      5 C5           0.0896 -12.1967   9.1383 C.ar           1 <1>                0.0000
      6 C6          -0.9304 -11.3728   9.5783 C.ar           1 <1>                0.0000
      7 N7          -1.4498 -10.1693   9.1398 N.pl3          1 <1>                0.0000
      8 C8          -2.4605  -9.8353   9.9833 C.2            1 <1>                0.0000
      9 N9          -2.5963 -10.7463  10.9043 N.2            1 <1>                0.0000
     10 C10         -1.6817 -11.7278  10.7150 C.ar           1 <1>                0.0000
     11 C11         -1.3910 -12.9163  11.3962 C.ar           1 <1>                0.0000
     12 C12         -0.3899 -13.7277  10.9567 C.ar           1 <1>                0.0000
     13 N13         -0.0896 -14.9824  11.6824 N.pl3          1 <1>                0.0000
     14 O14         -0.0453 -14.9864  12.8996 O.2            1 <1>                0.0000
     15 O15          0.1134 -16.0109  11.0623 O.2            1 <1>                0.0000
     16 H16          0.6682 -11.9275   8.2670 H              1 <1>                0.0000
     17 H17         -3.0640  -8.9434   9.9022 H              1 <1>                0.0000
     18 H18         -1.9648 -13.1919  12.2686 H              1 <1>                0.0000
     19 H19         -1.1483  -9.6582   8.3725 H              1 <1>                0.0000
@<TRIPOS>BOND
    1    1    2 ar    
    2    2    3 ar    
    3    2    4 1     
    4    4    5 ar    
    5    4   12 ar    
    6    5    6 ar    
    7    5   16 1     
    8    6    7 1     
    9    6   10 ar    
   10    7    8 1     
   11    7   19 1     
   12    8    9 2     
   13    8   17 1     
   14    9   10 1     
   15   10   11 ar    
   16   11   12 ar    
   17   11   18 1     
   18   12   13 1     
   19   13   14 2     
   20   13   15 2     
@<TRIPOS>SUBSTRUCTURE
      1 ****           1
@<TRIPOS>SET
DONOR_HYDROGENS      STATIC     ATOMS    <user>   **** ""
1 19
ATOM$RED        STATIC     ATOMS    COLORGROUP SYSTEM
1 19
@<TRIPOS>COMMENT
> <Gold.Version>
2022.2.0

> <Gold.Id.Protein>
3pbl|protein|mol2

> <Gold.Protein.RotatedTorsions>
[ 1303 1298 1297 1294 ] final  -16.41 input  179.99 | X-H torsion
[ 2461 2456 2455 2452 ] final   68.51 input   30.03 | X-H torsion
[ 2515 2510 2509 2506 ] final -169.10 input  -89.99 | X-H torsion
[ 3721 3712 3711 3710 ] final  -38.31 input -179.91 | X-H torsion
[ 3841 3832 3831 3830 ] final   39.51 input -179.91 | X-H torsion
[ 3767 3762 3761 3758 ] final   26.92 input  -89.99 | X-H torsion
[ 2472 2467 2466 2463 ] final  121.16 input  -89.97 | X-H torsion

> <Gold.Protein.ActiveResidues>
 VAL82   VAL86   LEU89   PHE106  VAL107  ASP110  VAL111  MET112  CYS114  THR115 
 CYS181  SER182  ILE183  PHE188  VAL189  ILE190  SER192  SER193  SER196  TRP342 
 PHE345  PHE346  HIS349  VAL350  TYR365  THR369  GLY372  TYR373 

> <Gold.Protein.RotatedAtoms>
    3.3330   -9.6413    3.9207 H   0  0  0  0  0  0  0  0  0  0  0  0  # atno 1303 bound_to 1298
    2.0011   -8.0937    7.4712 H   0  0  0  0  0  0  0  0  0  0  0  0  # atno 2461 bound_to 2456
   -5.4255   -5.0821    8.1482 H   0  0  0  0  0  0  0  0  0  0  0  0  # atno 2472 bound_to 2467
    2.3992   -9.1376    5.7149 H   0  0  0  0  0  0  0  0  0  0  0  0  # atno 2515 bound_to 2510
   -2.6515  -17.6049   14.6575 H   0  0  0  0  0  0  0  0  0  0  0  0  # atno 3721 bound_to 3712
   -5.0229  -23.0258   10.0632 H   0  0  0  0  0  0  0  0  0  0  0  0  # atno 3767 bound_to 3762
    2.1912  -20.8524    9.6046 H   0  0  0  0  0  0  0  0  0  0  0  0  # atno 3841 bound_to 3832
    4.4500   -8.4974    4.2524 LP  0  0  0  0  0  0  0  0  0  0  0  0  # atno 4297 bound_to 1298
    4.5795   -9.9826    4.9187 LP  0  0  0  0  0  0  0  0  0  0  0  0  # atno 4298 bound_to 1298
    0.4203   -8.4589    7.2841 LP  0  0  0  0  0  0  0  0  0  0  0  0  # atno 4299 bound_to 2456
    1.3165   -9.2554    8.3927 LP  0  0  0  0  0  0  0  0  0  0  0  0  # atno 4300 bound_to 2456
    2.1004   -7.5362    5.6044 LP  0  0  0  0  0  0  0  0  0  0  0  0  # atno 4301 bound_to 2510
    2.7972   -8.3250    4.3558 LP  0  0  0  0  0  0  0  0  0  0  0  0  # atno 4302 bound_to 2510
   -3.5663  -16.5600   13.8517 LP  0  0  0  0  0  0  0  0  0  0  0  0  # atno 4306 bound_to 3712
   -2.9001  -17.8411   13.0890 LP  0  0  0  0  0  0  0  0  0  0  0  0  # atno 4307 bound_to 3712
    1.6224  -19.7144    8.6260 LP  0  0  0  0  0  0  0  0  0  0  0  0  # atno 4314 bound_to 3832
    3.0757  -20.4032    8.3429 LP  0  0  0  0  0  0  0  0  0  0  0  0  # atno 4315 bound_to 3832
   -5.1915  -21.9167   11.2500 LP  0  0  0  0  0  0  0  0  0  0  0  0  # atno 4318 bound_to 3762
   -3.9131  -22.9327   11.2575 LP  0  0  0  0  0  0  0  0  0  0  0  0  # atno 4319 bound_to 3762
   -3.8088   -4.8710    8.0583 LP  0  0  0  0  0  0  0  0  0  0  0  0  # atno 4320 bound_to 2467
   -4.4828   -5.4404    9.4325 LP  0  0  0  0  0  0  0  0  0  0  0  0  # atno 4321 bound_to 2467

> <Gold.Score>
     Score     S(PLP)   S(hbond)     S(cho)   S(metal)  DE(clash)   DE(tors)     intcor
     39.23     -36.25       0.00       1.00       0.00       0.00       1.28       2.53

> <Gold.PLP.Fitness>
39.2310

> <Gold.PLP.PLP>
-36.2480

> <Gold.PLP.part.hbond>
-0.0329

> <Gold.PLP.part.metal>
0.0000

> <Gold.PLP.part.buried>
-7.4132

> <Gold.PLP.part.nonpolar>
-33.1831

> <Gold.PLP.part.repulsive>
2.9545

> <Gold.PLP.ligand.clash>
0.0000

> <Gold.PLP.ligand.torsion>
1.2760

> <Gold.PLP.Chemscore.Hbond>
0.0000

> <Gold.PLP.Chemscore.CHOScore>
1.0000

> <Gold.PLP.Chemscore.Metal>
0.0000

> <Gold.Chemscore.Hbonds>
donor molecule, donor type, donor heavy atom, donor atom, acceptor molecule, acceptor atom, score
      L1  C     8    17       P1  2398  1.00

> <Gold.PLP.Chemscore.Internal.Correction>
2.5349

