#       Name:                EN300-6486870_i001
#       Creating user name   fsindt
#       Creation time:       Thu Mar  2 00:35:14 2023


#       File generated by GOLD software.
#

@<TRIPOS>MOLECULE
EN300-6486870_i001|acide_1|mol2|10832|dock5
    19    20     1
SMALL
USER_CHARGES


@<TRIPOS>ATOM
      1 O1          -1.6625 -10.9838   9.3001 O.co2          1 <1>               -1.0000
      2 C2          -1.4473 -11.3356  10.4519 C.2            1 <1>                0.0000
      3 O3          -1.8314 -10.6436  11.3847 O.co2          1 <1>                0.0000
      4 C4          -0.7314 -12.5950  10.7153 C.ar           1 <1>                0.0000
      5 C5          -1.0011 -13.3201  11.8772 C.ar           1 <1>                0.0000
      6 C6          -0.3242 -14.5022  12.1164 C.ar           1 <1>                0.0000
      7 N7          -0.3507 -15.4348  13.1361 N.pl3          1 <1>                0.0000
      8 C8           0.5483 -16.4026  12.8206 C.2            1 <1>                0.0000
      9 N9           1.1218 -16.1294  11.6835 N.2            1 <1>                0.0000
     10 C10          0.6298 -14.9670  11.1910 C.ar           1 <1>                0.0000
     11 C11          0.8892 -14.2277  10.0303 C.ar           1 <1>                0.0000
     12 C12          0.2167 -13.0673   9.7955 C.ar           1 <1>                0.0000
     13 N13          0.4966 -12.2923   8.5659 N.pl3          1 <1>                0.0000
     14 O14          0.4740 -12.8435   7.4800 O.2            1 <1>                0.0000
     15 O15          0.7497 -11.1031   8.6400 O.2            1 <1>                0.0000
     16 H16         -1.7333 -12.9602  12.5849 H              1 <1>                0.0000
     17 H17          0.7577 -17.2726  13.4253 H              1 <1>                0.0000
     18 H18          1.6204 -14.5807   9.3183 H              1 <1>                0.0000
     19 H19         -0.9078 -15.4038  13.9295 H              1 <1>                0.0000
@<TRIPOS>BOND
    1    1    2 ar    
    2    2    3 ar    
    3    2    4 1     
    4    4    5 ar    
    5    4   12 ar    
    6    5    6 ar    
    7    5   16 1     
    8    6    7 1     
    9    6   10 ar    
   10    7    8 1     
   11    7   19 1     
   12    8    9 2     
   13    8   17 1     
   14    9   10 1     
   15   10   11 ar    
   16   11   12 ar    
   17   11   18 1     
   18   12   13 1     
   19   13   14 2     
   20   13   15 2     
@<TRIPOS>SUBSTRUCTURE
      1 ****           1
@<TRIPOS>SET
DONOR_HYDROGENS      STATIC     ATOMS    <user>   **** ""
1 19
ATOM$RED        STATIC     ATOMS    COLORGROUP SYSTEM
1 19
@<TRIPOS>COMMENT
> <Gold.Version>
2022.2.0

> <Gold.Id.Protein>
3pbl|protein|mol2

> <Gold.Protein.RotatedTorsions>
[ 1303 1298 1297 1294 ] final   -7.39 input  179.99 | X-H torsion
[ 2461 2456 2455 2452 ] final -153.83 input   30.03 | X-H torsion
[ 2515 2510 2509 2506 ] final  166.66 input  -89.99 | X-H torsion
[ 3721 3712 3711 3710 ] final -162.37 input -179.91 | X-H torsion
[ 3841 3832 3831 3830 ] final  -99.69 input -179.91 | X-H torsion
[ 3767 3762 3761 3758 ] final  -17.75 input  -89.99 | X-H torsion
[ 2472 2467 2466 2463 ] final  -45.46 input  -89.97 | X-H torsion

> <Gold.Protein.ActiveResidues>
 VAL82   VAL86   LEU89   PHE106  VAL107  ASP110  VAL111  MET112  CYS114  THR115 
 CYS181  SER182  ILE183  PHE188  VAL189  ILE190  SER192  SER193  SER196  TRP342 
 PHE345  PHE346  HIS349  VAL350  TYR365  THR369  GLY372  TYR373 

> <Gold.Protein.RotatedAtoms>
    3.3544   -9.7724    3.9865 H   0  0  0  0  0  0  0  0  0  0  0  0  # atno 1303 bound_to 1298
    1.0363   -9.2888    8.3283 H   0  0  0  0  0  0  0  0  0  0  0  0  # atno 2461 bound_to 2456
   -3.6521   -5.1037    8.7496 H   0  0  0  0  0  0  0  0  0  0  0  0  # atno 2472 bound_to 2467
    2.2370   -8.8797    5.9676 H   0  0  0  0  0  0  0  0  0  0  0  0  # atno 2515 bound_to 2510
   -3.3387  -16.5384   13.8024 H   0  0  0  0  0  0  0  0  0  0  0  0  # atno 3721 bound_to 3712
   -5.4512  -22.4975   10.2894 H   0  0  0  0  0  0  0  0  0  0  0  0  # atno 3767 bound_to 3762
    1.9620  -19.5877    8.6141 H   0  0  0  0  0  0  0  0  0  0  0  0  # atno 3841 bound_to 3832
    4.3331   -8.4773    4.1634 LP  0  0  0  0  0  0  0  0  0  0  0  0  # atno 4297 bound_to 1298
    4.6749   -9.8715    4.9419 LP  0  0  0  0  0  0  0  0  0  0  0  0  # atno 4298 bound_to 1298
    2.1223   -8.2574    7.6770 LP  0  0  0  0  0  0  0  0  0  0  0  0  # atno 4299 bound_to 2456
    0.5791   -8.2622    7.1431 LP  0  0  0  0  0  0  0  0  0  0  0  0  # atno 4300 bound_to 2456
    2.2240   -7.4138    5.2487 LP  0  0  0  0  0  0  0  0  0  0  0  0  # atno 4301 bound_to 2510
    2.8358   -8.7054    4.4587 LP  0  0  0  0  0  0  0  0  0  0  0  0  # atno 4302 bound_to 2510
   -2.8474  -17.9229   13.1546 LP  0  0  0  0  0  0  0  0  0  0  0  0  # atno 4306 bound_to 3712
   -2.8257  -17.7096   14.7734 LP  0  0  0  0  0  0  0  0  0  0  0  0  # atno 4307 bound_to 3712
    3.1277  -20.6900    8.5675 LP  0  0  0  0  0  0  0  0  0  0  0  0  # atno 4314 bound_to 3832
    1.8352  -20.8885    9.5456 LP  0  0  0  0  0  0  0  0  0  0  0  0  # atno 4315 bound_to 3832
   -4.6016  -22.0833   11.6211 LP  0  0  0  0  0  0  0  0  0  0  0  0  # atno 4318 bound_to 3762
   -4.0748  -23.2942   10.6604 LP  0  0  0  0  0  0  0  0  0  0  0  0  # atno 4319 bound_to 3762
   -5.1890   -5.4318    9.1930 LP  0  0  0  0  0  0  0  0  0  0  0  0  # atno 4320 bound_to 2467
   -4.8756   -4.8580    7.6966 LP  0  0  0  0  0  0  0  0  0  0  0  0  # atno 4321 bound_to 2467

> <Gold.Score>
     Score     S(PLP)   S(hbond)     S(cho)   S(metal)  DE(clash)   DE(tors)     intcor
     38.26     -35.27       1.00       0.00       0.00       0.00       1.27       2.53

> <Gold.PLP.Fitness>
38.2643

> <Gold.PLP.PLP>
-35.2750

> <Gold.PLP.part.hbond>
-1.0000

> <Gold.PLP.part.metal>
0.0000

> <Gold.PLP.part.buried>
-6.0523

> <Gold.PLP.part.nonpolar>
-30.6100

> <Gold.PLP.part.repulsive>
1.4858

> <Gold.PLP.ligand.clash>
0.0000

> <Gold.PLP.ligand.torsion>
1.2728

> <Gold.PLP.Chemscore.Hbond>
1.0000

> <Gold.PLP.Chemscore.CHOScore>
0.0000

> <Gold.PLP.Chemscore.Metal>
0.0000

> <Gold.Chemscore.Hbonds>
donor molecule, donor type, donor heavy atom, donor atom, acceptor molecule, acceptor atom, score
      P1  H  2456  2461       L1    15  1.00

> <Gold.PLP.Chemscore.Internal.Correction>
2.5349

