#       Name:                EN300-6486870_i001
#       Creating user name   fsindt
#       Creation time:       Thu Mar  2 00:35:20 2023


#       File generated by GOLD software.
#

@<TRIPOS>MOLECULE
EN300-6486870_i001|acide_1|mol2|10832|dock20
    19    20     1
SMALL
USER_CHARGES


@<TRIPOS>ATOM
      1 O1          -2.6402 -24.2970  11.4785 O.co2          1 <1>               -1.0000
      2 C2          -2.2595 -23.9936  12.6008 C.2            1 <1>                0.0000
      3 O3          -2.5319 -24.7106  13.5538 O.co2          1 <1>                0.0000
      4 C4          -1.4682 -22.7685  12.8035 C.ar           1 <1>                0.0000
      5 C5          -0.5658 -22.3516  11.8235 C.ar           1 <1>                0.0000
      6 C6           0.1731 -21.1994  12.0222 C.ar           1 <1>                0.0000
      7 N7           1.1237 -20.5277  11.2770 N.pl3          1 <1>                0.0000
      8 C8           1.5023 -19.4384  11.9944 C.2            1 <1>                0.0000
      9 N9           0.8528 -19.3958  13.1226 N.2            1 <1>                0.0000
     10 C10          0.0124 -20.4553  13.2066 C.ar           1 <1>                0.0000
     11 C11         -0.8967 -20.8872  14.1802 C.ar           1 <1>                0.0000
     12 C12         -1.6265 -22.0188  13.9787 C.ar           1 <1>                0.0000
     13 N13         -2.5857 -22.4680  15.0127 N.pl3          1 <1>                0.0000
     14 O14         -3.7121 -22.8042  14.6937 O.2            1 <1>                0.0000
     15 O15         -2.2486 -22.5013  16.1826 O.2            1 <1>                0.0000
     16 H16         -0.4450 -22.9252  10.9164 H              1 <1>                0.0000
     17 H17          2.2360 -18.7128  11.6757 H              1 <1>                0.0000
     18 H18         -1.0226 -20.3194  15.0902 H              1 <1>                0.0000
     19 H19          1.4584 -20.7862  10.4041 H              1 <1>                0.0000
@<TRIPOS>BOND
    1    1    2 ar    
    2    2    3 ar    
    3    2    4 1     
    4    4    5 ar    
    5    4   12 ar    
    6    5    6 ar    
    7    5   16 1     
    8    6    7 1     
    9    6   10 ar    
   10    7    8 1     
   11    7   19 1     
   12    8    9 2     
   13    8   17 1     
   14    9   10 1     
   15   10   11 ar    
   16   11   12 ar    
   17   11   18 1     
   18   12   13 1     
   19   13   14 2     
   20   13   15 2     
@<TRIPOS>SUBSTRUCTURE
      1 ****           1
@<TRIPOS>SET
DONOR_HYDROGENS      STATIC     ATOMS    <user>   **** ""
1 19
ATOM$RED        STATIC     ATOMS    COLORGROUP SYSTEM
1 19
@<TRIPOS>COMMENT
> <Gold.Version>
2022.2.0

> <Gold.Id.Protein>
3pbl|protein|mol2

> <Gold.Protein.RotatedTorsions>
[ 1303 1298 1297 1294 ] final  160.27 input  179.99 | X-H torsion
[ 2461 2456 2455 2452 ] final   76.03 input   30.03 | X-H torsion
[ 2515 2510 2509 2506 ] final -105.25 input  -89.99 | X-H torsion
[ 3721 3712 3711 3710 ] final   58.20 input -179.91 | X-H torsion
[ 3841 3832 3831 3830 ] final -148.65 input -179.91 | X-H torsion
[ 3767 3762 3761 3758 ] final  143.22 input  -89.99 | X-H torsion
[ 2472 2467 2466 2463 ] final  -16.39 input  -89.97 | X-H torsion

> <Gold.Protein.ActiveResidues>
 VAL82   VAL86   LEU89   PHE106  VAL107  ASP110  VAL111  MET112  CYS114  THR115 
 CYS181  SER182  ILE183  PHE188  VAL189  ILE190  SER192  SER193  SER196  TRP342 
 PHE345  PHE346  HIS349  VAL350  TYR365  THR369  GLY372  TYR373 

> <Gold.Protein.RotatedAtoms>
    4.9111   -9.1563    4.8291 H   0  0  0  0  0  0  0  0  0  0  0  0  # atno 1303 bound_to 1298
    2.0624   -8.1582    7.5571 H   0  0  0  0  0  0  0  0  0  0  0  0  # atno 2461 bound_to 2456
   -3.6801   -4.9463    8.3042 H   0  0  0  0  0  0  0  0  0  0  0  0  # atno 2472 bound_to 2467
    2.7787   -9.0962    4.7941 H   0  0  0  0  0  0  0  0  0  0  0  0  # atno 2515 bound_to 2510
   -2.5819  -17.9206   13.4060 H   0  0  0  0  0  0  0  0  0  0  0  0  # atno 3721 bound_to 3712
   -3.9079  -22.9729   11.2123 H   0  0  0  0  0  0  0  0  0  0  0  0  # atno 3767 bound_to 3762
    2.6111  -19.7421    8.3504 H   0  0  0  0  0  0  0  0  0  0  0  0  # atno 3841 bound_to 3832
    3.7504  -10.2374    4.4414 LP  0  0  0  0  0  0  0  0  0  0  0  0  # atno 4297 bound_to 1298
    3.7003   -8.7278    3.8208 LP  0  0  0  0  0  0  0  0  0  0  0  0  # atno 4298 bound_to 1298
    0.4791   -8.3724    7.2183 LP  0  0  0  0  0  0  0  0  0  0  0  0  # atno 4299 bound_to 2456
    1.1966   -9.2774    8.3728 LP  0  0  0  0  0  0  0  0  0  0  0  0  # atno 4300 bound_to 2456
    2.0796   -8.4031    6.0967 LP  0  0  0  0  0  0  0  0  0  0  0  0  # atno 4301 bound_to 2510
    2.4382   -7.4994    4.7847 LP  0  0  0  0  0  0  0  0  0  0  0  0  # atno 4302 bound_to 2510
   -2.9988  -17.3933   14.8641 LP  0  0  0  0  0  0  0  0  0  0  0  0  # atno 4306 bound_to 3712
   -3.5479  -16.6434   13.5215 LP  0  0  0  0  0  0  0  0  0  0  0  0  # atno 4307 bound_to 3712
    2.8049  -21.1192    9.1517 LP  0  0  0  0  0  0  0  0  0  0  0  0  # atno 4314 bound_to 3832
    1.4082  -20.2810    9.2661 LP  0  0  0  0  0  0  0  0  0  0  0  0  # atno 4315 bound_to 3832
   -5.0702  -22.9876   10.0652 LP  0  0  0  0  0  0  0  0  0  0  0  0  # atno 4318 bound_to 3762
   -5.1490  -21.9147   11.2937 LP  0  0  0  0  0  0  0  0  0  0  0  0  # atno 4319 bound_to 3762
   -4.7681   -5.4626    9.4070 LP  0  0  0  0  0  0  0  0  0  0  0  0  # atno 4320 bound_to 2467
   -5.2686   -4.9846    7.9279 LP  0  0  0  0  0  0  0  0  0  0  0  0  # atno 4321 bound_to 2467

> <Gold.Score>
     Score     S(PLP)   S(hbond)     S(cho)   S(metal)  DE(clash)   DE(tors)     intcor
     33.94     -24.99       2.00       1.00       0.00       0.00       1.29       2.53

> <Gold.PLP.Fitness>
33.9378

> <Gold.PLP.PLP>
-24.9870

> <Gold.PLP.part.hbond>
-2.9380

> <Gold.PLP.part.metal>
0.0000

> <Gold.PLP.part.buried>
-4.6603

> <Gold.PLP.part.nonpolar>
-20.5720

> <Gold.PLP.part.repulsive>
2.5009

> <Gold.PLP.ligand.clash>
0.0000

> <Gold.PLP.ligand.torsion>
1.2896

> <Gold.PLP.Chemscore.Hbond>
2.0000

> <Gold.PLP.Chemscore.CHOScore>
1.0000

> <Gold.PLP.Chemscore.Metal>
0.0000

> <Gold.Chemscore.Hbonds>
donor molecule, donor type, donor heavy atom, donor atom, acceptor molecule, acceptor atom, score
      L1  H     7    19       P1  3832  1.00
      P1  H  3762  3767       L1     1  1.00
      L1  C     8    17       P1  1227  1.00

> <Gold.PLP.Chemscore.Internal.Correction>
2.5299

