#       Name:                EN300-6486870_i001
#       Creating user name   fsindt
#       Creation time:       Thu Mar  2 00:35:14 2023


#       File generated by GOLD software.
#

@<TRIPOS>MOLECULE
EN300-6486870_i001|acide_1|mol2|10832|dock3
    19    20     1
SMALL
USER_CHARGES


@<TRIPOS>ATOM
      1 O1           1.2504 -12.1534   7.3616 O.co2          1 <1>               -1.0000
      2 C2           0.5941 -13.1605   7.5887 C.2            1 <1>                0.0000
      3 O3           0.1424 -13.8183   6.6614 O.co2          1 <1>                0.0000
      4 C4           0.3529 -13.5842   8.9780 C.ar           1 <1>                0.0000
      5 C5           0.9634 -14.7389   9.4705 C.ar           1 <1>                0.0000
      6 C6           0.7315 -15.1292  10.7769 C.ar           1 <1>                0.0000
      7 N7           1.1648 -16.1863  11.5548 N.pl3          1 <1>                0.0000
      8 C8           0.5959 -16.0449  12.7799 C.2            1 <1>                0.0000
      9 N9          -0.1527 -14.9794  12.8071 N.2            1 <1>                0.0000
     10 C10         -0.1155 -14.3636  11.6008 C.ar           1 <1>                0.0000
     11 C11         -0.7208 -13.2080  11.0916 C.ar           1 <1>                0.0000
     12 C12         -0.4856 -12.8237   9.8067 C.ar           1 <1>                0.0000
     13 N13         -1.1290 -11.6007   9.2765 N.pl3          1 <1>                0.0000
     14 O14         -2.2927 -11.3599   9.5438 O.2            1 <1>                0.0000
     15 O15         -0.4948 -10.8350   8.5729 O.2            1 <1>                0.0000
     16 H16          1.6123 -15.3238   8.8355 H              1 <1>                0.0000
     17 H17          0.7427 -16.7187  13.6111 H              1 <1>                0.0000
     18 H18         -1.3714 -12.6183  11.7202 H              1 <1>                0.0000
     19 H19          1.7636 -16.8971  11.2772 H              1 <1>                0.0000
@<TRIPOS>BOND
    1    1    2 ar    
    2    2    3 ar    
    3    2    4 1     
    4    4    5 ar    
    5    4   12 ar    
    6    5    6 ar    
    7    5   16 1     
    8    6    7 1     
    9    6   10 ar    
   10    7    8 1     
   11    7   19 1     
   12    8    9 2     
   13    8   17 1     
   14    9   10 1     
   15   10   11 ar    
   16   11   12 ar    
   17   11   18 1     
   18   12   13 1     
   19   13   14 2     
   20   13   15 2     
@<TRIPOS>SUBSTRUCTURE
      1 ****           1
@<TRIPOS>SET
DONOR_HYDROGENS      STATIC     ATOMS    <user>   **** ""
1 19
ATOM$RED        STATIC     ATOMS    COLORGROUP SYSTEM
1 19
@<TRIPOS>COMMENT
> <Gold.Version>
2022.2.0

> <Gold.Id.Protein>
3pbl|protein|mol2

> <Gold.Protein.RotatedTorsions>
[ 1303 1298 1297 1294 ] final -132.14 input  179.99 | X-H torsion
[ 2461 2456 2455 2452 ] final -137.66 input   30.03 | X-H torsion
[ 2515 2510 2509 2506 ] final -138.15 input  -89.99 | X-H torsion
[ 3721 3712 3711 3710 ] final   14.70 input -179.91 | X-H torsion
[ 3841 3832 3831 3830 ] final  -68.52 input -179.91 | X-H torsion
[ 3767 3762 3761 3758 ] final -129.53 input  -89.99 | X-H torsion
[ 2472 2467 2466 2463 ] final  179.53 input  -89.97 | X-H torsion

> <Gold.Protein.ActiveResidues>
 VAL82   VAL86   LEU89   PHE106  VAL107  ASP110  VAL111  MET112  CYS114  THR115 
 CYS181  SER182  ILE183  PHE188  VAL189  ILE190  SER192  SER193  SER196  TRP342 
 PHE345  PHE346  HIS349  VAL350  TYR365  THR369  GLY372  TYR373 

> <Gold.Protein.RotatedAtoms>
    4.3952   -8.4852    4.2102 H   0  0  0  0  0  0  0  0  0  0  0  0  # atno 1303 bound_to 1298
    0.7964   -9.2624    8.2182 H   0  0  0  0  0  0  0  0  0  0  0  0  # atno 2461 bound_to 2456
   -5.3510   -5.3856    9.0131 H   0  0  0  0  0  0  0  0  0  0  0  0  # atno 2472 bound_to 2467
    2.6107   -9.2571    5.2746 H   0  0  0  0  0  0  0  0  0  0  0  0  # atno 2515 bound_to 2510
   -2.4700  -18.0191   14.0303 H   0  0  0  0  0  0  0  0  0  0  0  0  # atno 3721 bound_to 3712
   -4.7159  -22.0226   11.5824 H   0  0  0  0  0  0  0  0  0  0  0  0  # atno 3767 bound_to 3762
    1.6630  -19.7404    8.9360 H   0  0  0  0  0  0  0  0  0  0  0  0  # atno 3841 bound_to 3832
    4.6261   -9.9319    4.9314 LP  0  0  0  0  0  0  0  0  0  0  0  0  # atno 4297 bound_to 1298
    3.3408   -9.7046    3.9500 LP  0  0  0  0  0  0  0  0  0  0  0  0  # atno 4298 bound_to 1298
    2.1612   -8.4361    7.8690 LP  0  0  0  0  0  0  0  0  0  0  0  0  # atno 4299 bound_to 2456
    0.7801   -8.1099    7.0611 LP  0  0  0  0  0  0  0  0  0  0  0  0  # atno 4300 bound_to 2456
    2.0294   -7.8910    5.9539 LP  0  0  0  0  0  0  0  0  0  0  0  0  # atno 4301 bound_to 2510
    2.6565   -7.8506    4.4467 LP  0  0  0  0  0  0  0  0  0  0  0  0  # atno 4302 bound_to 2510
   -3.3480  -16.8192   14.6363 LP  0  0  0  0  0  0  0  0  0  0  0  0  # atno 4306 bound_to 3712
   -3.3280  -17.1037   13.0284 LP  0  0  0  0  0  0  0  0  0  0  0  0  # atno 4307 bound_to 3712
    3.0190  -20.2838    8.2711 LP  0  0  0  0  0  0  0  0  0  0  0  0  # atno 4314 bound_to 3832
    2.2893  -21.1183    9.4701 LP  0  0  0  0  0  0  0  0  0  0  0  0  # atno 4315 bound_to 3832
   -4.0111  -23.2530   10.7724 LP  0  0  0  0  0  0  0  0  0  0  0  0  # atno 4318 bound_to 3762
   -5.4004  -22.5992   10.2165 LP  0  0  0  0  0  0  0  0  0  0  0  0  # atno 4319 bound_to 3762
   -4.6355   -4.8182    7.6593 LP  0  0  0  0  0  0  0  0  0  0  0  0  # atno 4320 bound_to 2467
   -3.7305   -5.1898    8.9668 LP  0  0  0  0  0  0  0  0  0  0  0  0  # atno 4321 bound_to 2467

> <Gold.Score>
     Score     S(PLP)   S(hbond)     S(cho)   S(metal)  DE(clash)   DE(tors)     intcor
     39.99     -36.05       1.78       0.00       0.00       0.00       1.97       2.53

> <Gold.PLP.Fitness>
39.9912

> <Gold.PLP.PLP>
-36.0545

> <Gold.PLP.part.hbond>
-2.0000

> <Gold.PLP.part.metal>
0.0000

> <Gold.PLP.part.buried>
-6.6798

> <Gold.PLP.part.nonpolar>
-29.3283

> <Gold.PLP.part.repulsive>
0.1359

> <Gold.PLP.ligand.clash>
0.0011

> <Gold.PLP.ligand.torsion>
1.9746

> <Gold.PLP.Chemscore.Hbond>
1.7840

> <Gold.PLP.Chemscore.CHOScore>
0.0000

> <Gold.PLP.Chemscore.Metal>
0.0000

> <Gold.Chemscore.Hbonds>
donor molecule, donor type, donor heavy atom, donor atom, acceptor molecule, acceptor atom, score
      L1  H     7    19       P1  1227  0.78
      P1  H  2456  2461       L1    15  1.00

> <Gold.PLP.Chemscore.Internal.Correction>
2.5349

