#       Name:                EN300-6486870_i001
#       Creating user name   fsindt
#       Creation time:       Thu Mar  2 00:35:14 2023


#       File generated by GOLD software.
#

@<TRIPOS>MOLECULE
EN300-6486870_i001|acide_1|mol2|10832|dock2
    19    20     1
SMALL
USER_CHARGES


@<TRIPOS>ATOM
      1 O1           0.2068 -10.7746   7.5849 O.co2          1 <1>               -1.0000
      2 C2           0.3689 -11.9864   7.6277 C.2            1 <1>                0.0000
      3 O3           0.7519 -12.5879   6.6337 O.co2          1 <1>                0.0000
      4 C4           0.1088 -12.7201   8.8776 C.ar           1 <1>                0.0000
      5 C5           0.7036 -13.9647   9.0918 C.ar           1 <1>                0.0000
      6 C6           0.4540 -14.6467  10.2688 C.ar           1 <1>                0.0000
      7 N7           0.8693 -15.8611  10.7818 N.pl3          1 <1>                0.0000
      8 C8           0.2884 -16.0033  12.0012 C.2            1 <1>                0.0000
      9 N9          -0.4509 -14.9652  12.2702 N.2            1 <1>                0.0000
     10 C10         -0.3951 -14.0852  11.2415 C.ar           1 <1>                0.0000
     11 C11         -0.9844 -12.8359  11.0113 C.ar           1 <1>                0.0000
     12 C12         -0.7318 -12.1648   9.8538 C.ar           1 <1>                0.0000
     13 N13         -1.3584 -10.8446   9.6186 N.pl3          1 <1>                0.0000
     14 O14         -0.6963  -9.8281   9.7274 O.2            1 <1>                0.0000
     15 O15         -2.5363 -10.7748   9.3164 O.2            1 <1>                0.0000
     16 H16          1.3541 -14.3924   8.3432 H              1 <1>                0.0000
     17 H17          0.4201 -16.8542  12.6531 H              1 <1>                0.0000
     18 H18         -1.6365 -12.4020  11.7548 H              1 <1>                0.0000
     19 H19          1.4647 -16.4941  10.3509 H              1 <1>                0.0000
@<TRIPOS>BOND
    1    1    2 ar    
    2    2    3 ar    
    3    2    4 1     
    4    4    5 ar    
    5    4   12 ar    
    6    5    6 ar    
    7    5   16 1     
    8    6    7 1     
    9    6   10 ar    
   10    7    8 1     
   11    7   19 1     
   12    8    9 2     
   13    8   17 1     
   14    9   10 1     
   15   10   11 ar    
   16   11   12 ar    
   17   11   18 1     
   18   12   13 1     
   19   13   14 2     
   20   13   15 2     
@<TRIPOS>SUBSTRUCTURE
      1 ****           1
@<TRIPOS>SET
DONOR_HYDROGENS      STATIC     ATOMS    <user>   **** ""
1 19
ATOM$RED        STATIC     ATOMS    COLORGROUP SYSTEM
1 19
@<TRIPOS>COMMENT
> <Gold.Version>
2022.2.0

> <Gold.Id.Protein>
3pbl|protein|mol2

> <Gold.Protein.RotatedTorsions>
[ 1303 1298 1297 1294 ] final  -10.85 input  179.99 | X-H torsion
[ 2461 2456 2455 2452 ] final -126.06 input   30.03 | X-H torsion
[ 2515 2510 2509 2506 ] final -164.47 input  -89.99 | X-H torsion
[ 3721 3712 3711 3710 ] final   47.89 input -179.91 | X-H torsion
[ 3841 3832 3831 3830 ] final  -81.46 input -179.91 | X-H torsion
[ 3767 3762 3761 3758 ] final  -46.40 input  -89.99 | X-H torsion
[ 2472 2467 2466 2463 ] final   32.47 input  -89.97 | X-H torsion

> <Gold.Protein.ActiveResidues>
 VAL82   VAL86   LEU89   PHE106  VAL107  ASP110  VAL111  MET112  CYS114  THR115 
 CYS181  SER182  ILE183  PHE188  VAL189  ILE190  SER192  SER193  SER196  TRP342 
 PHE345  PHE346  HIS349  VAL350  TYR365  THR369  GLY372  TYR373 

> <Gold.Protein.RotatedAtoms>
    3.3439   -9.7230    3.9600 H   0  0  0  0  0  0  0  0  0  0  0  0  # atno 1303 bound_to 1298
    0.6451   -9.2110    8.1141 H   0  0  0  0  0  0  0  0  0  0  0  0  # atno 2461 bound_to 2456
   -4.2029   -4.8019    7.7439 H   0  0  0  0  0  0  0  0  0  0  0  0  # atno 2472 bound_to 2467
    2.4318   -9.1717    5.6551 H   0  0  0  0  0  0  0  0  0  0  0  0  # atno 2515 bound_to 2510
   -2.5350  -17.9815   13.5413 H   0  0  0  0  0  0  0  0  0  0  0  0  # atno 3721 bound_to 3712
   -5.5062  -22.1778   10.6248 H   0  0  0  0  0  0  0  0  0  0  0  0  # atno 3767 bound_to 3762
    1.7670  -19.6548    8.7949 H   0  0  0  0  0  0  0  0  0  0  0  0  # atno 3841 bound_to 3832
    4.3788   -8.4824    4.1971 LP  0  0  0  0  0  0  0  0  0  0  0  0  # atno 4297 bound_to 1298
    4.6397   -9.9158    4.9346 LP  0  0  0  0  0  0  0  0  0  0  0  0  # atno 4298 bound_to 1298
    2.1444   -8.5733    8.0002 LP  0  0  0  0  0  0  0  0  0  0  0  0  # atno 4299 bound_to 2456
    0.9481   -8.0240    7.0339 LP  0  0  0  0  0  0  0  0  0  0  0  0  # atno 4300 bound_to 2456
    2.0829   -7.5767    5.6665 LP  0  0  0  0  0  0  0  0  0  0  0  0  # atno 4301 bound_to 2510
    2.7820   -8.2503    4.3535 LP  0  0  0  0  0  0  0  0  0  0  0  0  # atno 4302 bound_to 2510
   -3.0847  -17.2445   14.8576 LP  0  0  0  0  0  0  0  0  0  0  0  0  # atno 4306 bound_to 3712
   -3.5162  -16.7219   13.3718 LP  0  0  0  0  0  0  0  0  0  0  0  0  # atno 4307 bound_to 3712
    3.0942  -20.4554    8.3782 LP  0  0  0  0  0  0  0  0  0  0  0  0  # atno 4314 bound_to 3832
    2.0939  -21.0457    9.5261 LP  0  0  0  0  0  0  0  0  0  0  0  0  # atno 4315 bound_to 3832
   -4.2337  -22.3700   11.6302 LP  0  0  0  0  0  0  0  0  0  0  0  0  # atno 4318 bound_to 3762
   -4.3878  -23.3270   10.3160 LP  0  0  0  0  0  0  0  0  0  0  0  0  # atno 4319 bound_to 3762
   -4.0105   -5.3322    9.2763 LP  0  0  0  0  0  0  0  0  0  0  0  0  # atno 4320 bound_to 2467
   -5.5035   -5.2595    8.6188 LP  0  0  0  0  0  0  0  0  0  0  0  0  # atno 4321 bound_to 2467

> <Gold.Score>
     Score     S(PLP)   S(hbond)     S(cho)   S(metal)  DE(clash)   DE(tors)     intcor
     41.14     -35.96       1.96       0.00       0.00       0.00       1.62       2.53

> <Gold.PLP.Fitness>
41.1372

> <Gold.PLP.PLP>
-35.9597

> <Gold.PLP.part.hbond>
-3.0000

> <Gold.PLP.part.metal>
0.0000

> <Gold.PLP.part.buried>
-3.9430

> <Gold.PLP.part.nonpolar>
-29.6961

> <Gold.PLP.part.repulsive>
0.2198

> <Gold.PLP.ligand.clash>
0.0000

> <Gold.PLP.ligand.torsion>
1.6187

> <Gold.PLP.Chemscore.Hbond>
1.9600

> <Gold.PLP.Chemscore.CHOScore>
0.0000

> <Gold.PLP.Chemscore.Metal>
0.0000

> <Gold.Chemscore.Hbonds>
donor molecule, donor type, donor heavy atom, donor atom, acceptor molecule, acceptor atom, score
      L1  H     7    19       P1  1227  1.00
      P1  H  2456  2461       L1     1  0.96

> <Gold.PLP.Chemscore.Internal.Correction>
2.5349

