#       Name:                EN300-6486870_i001
#       Creating user name   fsindt
#       Creation time:       Thu Mar  2 00:35:15 2023


#       File generated by GOLD software.
#

@<TRIPOS>MOLECULE
EN300-6486870_i001|acide_1|mol2|10832|dock6
    19    20     1
SMALL
USER_CHARGES


@<TRIPOS>ATOM
      1 O1           0.8774 -17.8426  13.6562 O.co2          1 <1>               -1.0000
      2 C2           0.5805 -16.6904  13.3719 C.2            1 <1>                0.0000
      3 O3           0.4507 -15.8560  14.2571 O.co2          1 <1>                0.0000
      4 C4           0.3851 -16.3065  11.9639 C.ar           1 <1>                0.0000
      5 C5           0.6350 -14.9944  11.5582 C.ar           1 <1>                0.0000
      6 C6           0.4492 -14.6427  10.2336 C.ar           1 <1>                0.0000
      7 N7           0.6004 -13.4678   9.5215 N.pl3          1 <1>                0.0000
      8 C8           0.2652 -13.7320   8.2321 C.2            1 <1>                0.0000
      9 N9          -0.0795 -14.9816   8.1048 N.2            1 <1>                0.0000
     10 C10          0.0109 -15.6054   9.3042 C.ar           1 <1>                0.0000
     11 C11         -0.2358 -16.9173   9.7273 C.ar           1 <1>                0.0000
     12 C12         -0.0462 -17.2612  11.0310 C.ar           1 <1>                0.0000
     13 N13         -0.3089 -18.6503  11.4696 N.pl3          1 <1>                0.0000
     14 O14         -1.0435 -18.8609  12.4180 O.2            1 <1>                0.0000
     15 O15          0.2098 -19.5828  10.8822 O.2            1 <1>                0.0000
     16 H16          0.9707 -14.2587  12.2739 H              1 <1>                0.0000
     17 H17          0.2817 -13.0104   7.4288 H              1 <1>                0.0000
     18 H18         -0.5724 -17.6584   9.0175 H              1 <1>                0.0000
     19 H19          0.8916 -12.6135   9.8766 H              1 <1>                0.0000
@<TRIPOS>BOND
    1    1    2 ar    
    2    2    3 ar    
    3    2    4 1     
    4    4    5 ar    
    5    4   12 ar    
    6    5    6 ar    
    7    5   16 1     
    8    6    7 1     
    9    6   10 ar    
   10    7    8 1     
   11    7   19 1     
   12    8    9 2     
   13    8   17 1     
   14    9   10 1     
   15   10   11 ar    
   16   11   12 ar    
   17   11   18 1     
   18   12   13 1     
   19   13   14 2     
   20   13   15 2     
@<TRIPOS>SUBSTRUCTURE
      1 ****           1
@<TRIPOS>SET
DONOR_HYDROGENS      STATIC     ATOMS    <user>   **** ""
1 19
ATOM$RED        STATIC     ATOMS    COLORGROUP SYSTEM
1 19
@<TRIPOS>COMMENT
> <Gold.Version>
2022.2.0

> <Gold.Id.Protein>
3pbl|protein|mol2

> <Gold.Protein.RotatedTorsions>
[ 1303 1298 1297 1294 ] final   30.97 input  179.99 | X-H torsion
[ 2461 2456 2455 2452 ] final -148.30 input   30.03 | X-H torsion
[ 2515 2510 2509 2506 ] final  -77.81 input  -89.99 | X-H torsion
[ 3721 3712 3711 3710 ] final   71.51 input -179.91 | X-H torsion
[ 3841 3832 3831 3830 ] final  -23.27 input -179.91 | X-H torsion
[ 3767 3762 3761 3758 ] final  169.24 input  -89.99 | X-H torsion
[ 2472 2467 2466 2463 ] final   59.48 input  -89.97 | X-H torsion

> <Gold.Protein.ActiveResidues>
 VAL82   VAL86   LEU89   PHE106  VAL107  ASP110  VAL111  MET112  CYS114  THR115 
 CYS181  SER182  ILE183  PHE188  VAL189  ILE190  SER192  SER193  SER196  TRP342 
 PHE345  PHE346  HIS349  VAL350  TYR365  THR369  GLY372  TYR373 

> <Gold.Protein.RotatedAtoms>
    3.6422  -10.1857    4.3468 H   0  0  0  0  0  0  0  0  0  0  0  0  # atno 1303 bound_to 1298
    0.9513   -9.2858    8.2957 H   0  0  0  0  0  0  0  0  0  0  0  0  # atno 2461 bound_to 2456
   -4.6345   -4.8188    7.6590 H   0  0  0  0  0  0  0  0  0  0  0  0  # atno 2472 bound_to 2467
    2.8351   -8.7700    4.4937 H   0  0  0  0  0  0  0  0  0  0  0  0  # atno 2515 bound_to 2510
   -2.6577  -17.8119   13.2552 H   0  0  0  0  0  0  0  0  0  0  0  0  # atno 3721 bound_to 3712
   -4.0090  -22.6659   11.4874 H   0  0  0  0  0  0  0  0  0  0  0  0  # atno 3767 bound_to 3762
    1.5908  -20.2109    9.4019 H   0  0  0  0  0  0  0  0  0  0  0  0  # atno 3841 bound_to 3832
    3.8143   -8.6353    3.8642 LP  0  0  0  0  0  0  0  0  0  0  0  0  # atno 4297 bound_to 1298
    4.9059   -9.3000    4.8806 LP  0  0  0  0  0  0  0  0  0  0  0  0  # atno 4298 bound_to 1298
    2.1437   -8.3161    7.7431 LP  0  0  0  0  0  0  0  0  0  0  0  0  # atno 4299 bound_to 2456
    0.6426   -8.2064    7.1095 LP  0  0  0  0  0  0  0  0  0  0  0  0  # atno 4300 bound_to 2456
    2.2099   -8.8202    6.0011 LP  0  0  0  0  0  0  0  0  0  0  0  0  # atno 4301 bound_to 2510
    2.2515   -7.4088    5.1809 LP  0  0  0  0  0  0  0  0  0  0  0  0  # atno 4302 bound_to 2510
   -2.8925  -17.5846   14.8271 LP  0  0  0  0  0  0  0  0  0  0  0  0  # atno 4306 bound_to 3712
   -3.5668  -16.5776   13.7326 LP  0  0  0  0  0  0  0  0  0  0  0  0  # atno 4307 bound_to 3712
    2.4944  -19.7819    8.1466 LP  0  0  0  0  0  0  0  0  0  0  0  0  # atno 4314 bound_to 3832
    2.8974  -21.0767    9.0564 LP  0  0  0  0  0  0  0  0  0  0  0  0  # atno 4315 bound_to 3832
   -4.7194  -23.2189   10.1249 LP  0  0  0  0  0  0  0  0  0  0  0  0  # atno 4318 bound_to 3762
   -5.3987  -21.9903   10.9590 LP  0  0  0  0  0  0  0  0  0  0  0  0  # atno 4319 bound_to 3762
   -3.7308   -5.1901    8.9674 LP  0  0  0  0  0  0  0  0  0  0  0  0  # atno 4320 bound_to 2467
   -5.3516   -5.3846    9.0126 LP  0  0  0  0  0  0  0  0  0  0  0  0  # atno 4321 bound_to 2467

> <Gold.Score>
     Score     S(PLP)   S(hbond)     S(cho)   S(metal)  DE(clash)   DE(tors)     intcor
     35.15     -26.29       2.96       0.00       0.00       0.00       1.27       2.53

> <Gold.PLP.Fitness>
35.1534

> <Gold.PLP.PLP>
-26.2881

> <Gold.PLP.part.hbond>
-2.9566

> <Gold.PLP.part.metal>
0.0000

> <Gold.PLP.part.buried>
-1.9986

> <Gold.PLP.part.nonpolar>
-23.0488

> <Gold.PLP.part.repulsive>
0.2330

> <Gold.PLP.ligand.clash>
0.0000

> <Gold.PLP.ligand.torsion>
1.2729

> <Gold.PLP.Chemscore.Hbond>
2.9588

> <Gold.PLP.Chemscore.CHOScore>
0.0000

> <Gold.PLP.Chemscore.Metal>
0.0000

> <Gold.Chemscore.Hbonds>
donor molecule, donor type, donor heavy atom, donor atom, acceptor molecule, acceptor atom, score
      P1  H  2305  2313       L1     3  1.00
      P1  H  3712  3721       L1    14  1.00
      P1  H  3832  3841       L1    15  0.96

> <Gold.PLP.Chemscore.Internal.Correction>
2.5349

