#       Name:                EN300-6486870_i001
#       Creating user name   fsindt
#       Creation time:       Thu Mar  2 00:35:16 2023


#       File generated by GOLD software.
#

@<TRIPOS>MOLECULE
EN300-6486870_i001|acide_1|mol2|10832|dock11
    19    20     1
SMALL
USER_CHARGES


@<TRIPOS>ATOM
      1 O1           0.1931 -10.8013   8.7407 O.co2          1 <1>               -1.0000
      2 C2          -0.6992 -11.4635   9.2524 C.2            1 <1>                0.0000
      3 O3          -1.8385 -11.0207   9.3012 O.co2          1 <1>                0.0000
      4 C4          -0.4030 -12.7961   9.8042 C.ar           1 <1>                0.0000
      5 C5          -0.6485 -13.0625  11.1523 C.ar           1 <1>                0.0000
      6 C6          -0.3676 -14.3171  11.6621 C.ar           1 <1>                0.0000
      7 N7          -0.4880 -14.8951  12.9118 N.pl3          1 <1>                0.0000
      8 C8          -0.0477 -16.1757  12.8077 C.2            1 <1>                0.0000
      9 N9           0.3326 -16.4219  11.5865 N.2            1 <1>                0.0000
     10 C10          0.1623 -15.3157  10.8228 C.ar           1 <1>                0.0000
     11 C11          0.4033 -15.0325   9.4727 C.ar           1 <1>                0.0000
     12 C12          0.1201 -13.7979   8.9731 C.ar           1 <1>                0.0000
     13 N13          0.3774 -13.5070   7.5448 N.pl3          1 <1>                0.0000
     14 O14          1.1035 -12.5800   7.2332 O.2            1 <1>                0.0000
     15 O15         -0.1370 -14.1946   6.6810 O.2            1 <1>                0.0000
     16 H16         -1.0547 -12.2939  11.7931 H              1 <1>                0.0000
     17 H17         -0.0171 -16.8867  13.6200 H              1 <1>                0.0000
     18 H18          0.8099 -15.7957   8.8259 H              1 <1>                0.0000
     19 H19         -0.8242 -14.4658  13.7140 H              1 <1>                0.0000
@<TRIPOS>BOND
    1    1    2 ar    
    2    2    3 ar    
    3    2    4 1     
    4    4    5 ar    
    5    4   12 ar    
    6    5    6 ar    
    7    5   16 1     
    8    6    7 1     
    9    6   10 ar    
   10    7    8 1     
   11    7   19 1     
   12    8    9 2     
   13    8   17 1     
   14    9   10 1     
   15   10   11 ar    
   16   11   12 ar    
   17   11   18 1     
   18   12   13 1     
   19   13   14 2     
   20   13   15 2     
@<TRIPOS>SUBSTRUCTURE
      1 ****           1
@<TRIPOS>SET
DONOR_HYDROGENS      STATIC     ATOMS    <user>   **** ""
1 19
ATOM$RED        STATIC     ATOMS    COLORGROUP SYSTEM
1 19
@<TRIPOS>COMMENT
> <Gold.Version>
2022.2.0

> <Gold.Id.Protein>
3pbl|protein|mol2

> <Gold.Protein.RotatedTorsions>
[ 1303 1298 1297 1294 ] final -111.32 input  179.99 | X-H torsion
[ 2461 2456 2455 2452 ] final -160.64 input   30.03 | X-H torsion
[ 2515 2510 2509 2506 ] final -102.50 input  -89.99 | X-H torsion
[ 3721 3712 3711 3710 ] final   69.21 input -179.91 | X-H torsion
[ 3841 3832 3831 3830 ] final  -20.50 input -179.91 | X-H torsion
[ 3767 3762 3761 3758 ] final -103.45 input  -89.99 | X-H torsion
[ 2472 2467 2466 2463 ] final   84.38 input  -89.97 | X-H torsion

> <Gold.Protein.ActiveResidues>
 VAL82   VAL86   LEU89   PHE106  VAL107  ASP110  VAL111  MET112  CYS114  THR115 
 CYS181  SER182  ILE183  PHE188  VAL189  ILE190  SER192  SER193  SER196  TRP342 
 PHE345  PHE346  HIS349  VAL350  TYR365  THR369  GLY372  TYR373 

> <Gold.Protein.RotatedAtoms>
    4.1136   -8.4966    4.0189 H   0  0  0  0  0  0  0  0  0  0  0  0  # atno 1303 bound_to 1298
    1.1434   -9.2836    8.3605 H   0  0  0  0  0  0  0  0  0  0  0  0  # atno 2461 bound_to 2456
   -5.0227   -4.8951    7.7525 H   0  0  0  0  0  0  0  0  0  0  0  0  # atno 2472 bound_to 2467
    2.7883   -9.0703    4.7583 H   0  0  0  0  0  0  0  0  0  0  0  0  # atno 2515 bound_to 2510
   -2.6435  -17.8328   13.2790 H   0  0  0  0  0  0  0  0  0  0  0  0  # atno 3721 bound_to 3712
   -5.0679  -21.9179   11.3674 H   0  0  0  0  0  0  0  0  0  0  0  0  # atno 3767 bound_to 3762
    1.6020  -20.2441    9.4247 H   0  0  0  0  0  0  0  0  0  0  0  0  # atno 3841 bound_to 3832
    4.8095   -9.6453    4.9477 LP  0  0  0  0  0  0  0  0  0  0  0  0  # atno 4297 bound_to 1298
    3.4391   -9.9798    4.1251 LP  0  0  0  0  0  0  0  0  0  0  0  0  # atno 4298 bound_to 1298
    2.0849   -8.1896    7.5962 LP  0  0  0  0  0  0  0  0  0  0  0  0  # atno 4299 bound_to 2456
    0.5095   -8.3352    7.1917 LP  0  0  0  0  0  0  0  0  0  0  0  0  # atno 4300 bound_to 2456
    2.0894   -8.4473    6.0959 LP  0  0  0  0  0  0  0  0  0  0  0  0  # atno 4301 bound_to 2510
    2.4189   -7.4812    4.8213 LP  0  0  0  0  0  0  0  0  0  0  0  0  # atno 4302 bound_to 2510
   -2.9103  -17.5520   14.8371 LP  0  0  0  0  0  0  0  0  0  0  0  0  # atno 4306 bound_to 3712
   -3.5654  -16.5859   13.6951 LP  0  0  0  0  0  0  0  0  0  0  0  0  # atno 4307 bound_to 3712
    2.4536  -19.7609    8.1530 LP  0  0  0  0  0  0  0  0  0  0  0  0  # atno 4314 bound_to 3832
    2.9251  -21.0594    9.0237 LP  0  0  0  0  0  0  0  0  0  0  0  0  # atno 4315 bound_to 3832
   -3.9086  -23.0429   11.1279 LP  0  0  0  0  0  0  0  0  0  0  0  0  # atno 4318 bound_to 3762
   -5.1510  -22.9140   10.0760 LP  0  0  0  0  0  0  0  0  0  0  0  0  # atno 4319 bound_to 3762
   -3.6348   -5.0468    8.5993 LP  0  0  0  0  0  0  0  0  0  0  0  0  # atno 4320 bound_to 2467
   -5.0594   -5.4515    9.2872 LP  0  0  0  0  0  0  0  0  0  0  0  0  # atno 4321 bound_to 2467

> <Gold.Score>
     Score     S(PLP)   S(hbond)     S(cho)   S(metal)  DE(clash)   DE(tors)     intcor
     34.29     -33.13       0.98       0.00       0.00       0.00       2.15       2.53

> <Gold.PLP.Fitness>
34.2919

> <Gold.PLP.PLP>
-33.1317

> <Gold.PLP.part.hbond>
-1.0000

> <Gold.PLP.part.metal>
0.0000

> <Gold.PLP.part.buried>
-5.4424

> <Gold.PLP.part.nonpolar>
-27.8822

> <Gold.PLP.part.repulsive>
0.2965

> <Gold.PLP.ligand.clash>
0.0000

> <Gold.PLP.ligand.torsion>
2.1514

> <Gold.PLP.Chemscore.Hbond>
0.9760

> <Gold.PLP.Chemscore.CHOScore>
0.0000

> <Gold.PLP.Chemscore.Metal>
0.0000

> <Gold.Chemscore.Hbonds>
donor molecule, donor type, donor heavy atom, donor atom, acceptor molecule, acceptor atom, score
      P1  H  2456  2461       L1     1  0.98

> <Gold.PLP.Chemscore.Internal.Correction>
2.5349

