#       Name:                EN300-6486870_i001
#       Creating user name   fsindt
#       Creation time:       Thu Mar  2 00:35:19 2023


#       File generated by GOLD software.
#

@<TRIPOS>MOLECULE
EN300-6486870_i001|acide_1|mol2|10832|dock18
    19    20     1
SMALL
USER_CHARGES


@<TRIPOS>ATOM
      1 O1           0.1166 -12.2535   8.1790 O.co2          1 <1>               -1.0000
      2 C2          -0.1538 -13.4351   8.3445 C.2            1 <1>                0.0000
      3 O3          -0.3830 -14.1511   7.3795 O.co2          1 <1>                0.0000
      4 C4          -0.1972 -13.9967   9.7049 C.ar           1 <1>                0.0000
      5 C5           0.2180 -15.3102   9.9302 C.ar           1 <1>                0.0000
      6 C6           0.1742 -15.8294  11.2114 C.ar           1 <1>                0.0000
      7 N7           0.5014 -17.0536  11.7633 N.pl3          1 <1>                0.0000
      8 C8           0.2430 -16.9776  13.0944 C.2            1 <1>                0.0000
      9 N9          -0.2181 -15.7972  13.3957 N.2            1 <1>                0.0000
     10 C10         -0.2871 -15.0344  12.2780 C.ar           1 <1>                0.0000
     11 C11         -0.7005 -13.7187  12.0353 C.ar           1 <1>                0.0000
     12 C12         -0.6505 -13.2091  10.7737 C.ar           1 <1>                0.0000
     13 N13         -1.0889 -11.8172  10.5260 N.pl3          1 <1>                0.0000
     14 O14         -0.7085 -10.9197  11.2563 O.2            1 <1>                0.0000
     15 O15         -1.8302 -11.5693   9.5919 O.2            1 <1>                0.0000
     16 H16          0.5708 -15.9172   9.1095 H              1 <1>                0.0000
     17 H17          0.3970 -17.7798  13.8008 H              1 <1>                0.0000
     18 H18         -1.0552 -13.1058  12.8507 H              1 <1>                0.0000
     19 H19          0.8506 -17.8238  11.2882 H              1 <1>                0.0000
@<TRIPOS>BOND
    1    1    2 ar    
    2    2    3 ar    
    3    2    4 1     
    4    4    5 ar    
    5    4   12 ar    
    6    5    6 ar    
    7    5   16 1     
    8    6    7 1     
    9    6   10 ar    
   10    7    8 1     
   11    7   19 1     
   12    8    9 2     
   13    8   17 1     
   14    9   10 1     
   15   10   11 ar    
   16   11   12 ar    
   17   11   18 1     
   18   12   13 1     
   19   13   14 2     
   20   13   15 2     
@<TRIPOS>SUBSTRUCTURE
      1 ****           1
@<TRIPOS>SET
DONOR_HYDROGENS      STATIC     ATOMS    <user>   **** ""
1 19
ATOM$RED        STATIC     ATOMS    COLORGROUP SYSTEM
1 19
@<TRIPOS>COMMENT
> <Gold.Version>
2022.2.0

> <Gold.Id.Protein>
3pbl|protein|mol2

> <Gold.Protein.RotatedTorsions>
[ 1303 1298 1297 1294 ] final   86.12 input  179.99 | X-H torsion
[ 2461 2456 2455 2452 ] final   56.06 input   30.03 | X-H torsion
[ 2515 2510 2509 2506 ] final  -78.72 input  -89.99 | X-H torsion
[ 3721 3712 3711 3710 ] final   23.06 input -179.91 | X-H torsion
[ 3841 3832 3831 3830 ] final  -55.74 input -179.91 | X-H torsion
[ 3767 3762 3761 3758 ] final -174.73 input  -89.99 | X-H torsion
[ 2472 2467 2466 2463 ] final  -61.64 input  -89.97 | X-H torsion

> <Gold.Protein.ActiveResidues>
 VAL82   VAL86   LEU89   PHE106  VAL107  ASP110  VAL111  MET112  CYS114  THR115 
 CYS181  SER182  ILE183  PHE188  VAL189  ILE190  SER192  SER193  SER196  TRP342 
 PHE345  PHE346  HIS349  VAL350  TYR365  THR369  GLY372  TYR373 

> <Gold.Protein.RotatedAtoms>
    4.3644  -10.1525    4.8358 H   0  0  0  0  0  0  0  0  0  0  0  0  # atno 1303 bound_to 1298
    1.8718   -8.0065    7.3390 H   0  0  0  0  0  0  0  0  0  0  0  0  # atno 2461 bound_to 2456
   -3.7390   -5.1972    8.9823 H   0  0  0  0  0  0  0  0  0  0  0  0  # atno 2472 bound_to 2467
    2.8347   -8.7829    4.5013 H   0  0  0  0  0  0  0  0  0  0  0  0  # atno 2515 bound_to 2510
   -2.4731  -18.0332   13.9049 H   0  0  0  0  0  0  0  0  0  0  0  0  # atno 3721 bound_to 3712
   -4.1446  -22.4684   11.5959 H   0  0  0  0  0  0  0  0  0  0  0  0  # atno 3767 bound_to 3762
    1.5944  -19.8514    9.0778 H   0  0  0  0  0  0  0  0  0  0  0  0  # atno 3841 bound_to 3832
    3.3470   -9.3716    3.8251 LP  0  0  0  0  0  0  0  0  0  0  0  0  # atno 4297 bound_to 1298
    4.6508   -8.5969    4.4305 LP  0  0  0  0  0  0  0  0  0  0  0  0  # atno 4298 bound_to 1298
    0.3545   -8.6068    7.4090 LP  0  0  0  0  0  0  0  0  0  0  0  0  # atno 4299 bound_to 2456
    1.5116   -9.1946    8.4001 LP  0  0  0  0  0  0  0  0  0  0  0  0  # atno 4300 bound_to 2456
    2.2045   -8.8076    6.0073 LP  0  0  0  0  0  0  0  0  0  0  0  0  # atno 4301 bound_to 2510
    2.2573   -7.4084    5.1670 LP  0  0  0  0  0  0  0  0  0  0  0  0  # atno 4302 bound_to 2510
   -3.2866  -16.9136   14.7188 LP  0  0  0  0  0  0  0  0  0  0  0  0  # atno 4306 bound_to 3712
   -3.3858  -16.9931   13.0908 LP  0  0  0  0  0  0  0  0  0  0  0  0  # atno 4307 bound_to 3712
    2.9068  -20.1199    8.1938 LP  0  0  0  0  0  0  0  0  0  0  0  0  # atno 4314 bound_to 3832
    2.4808  -21.1541    9.3836 LP  0  0  0  0  0  0  0  0  0  0  0  0  # atno 4315 bound_to 3832
   -4.4975  -23.3036   10.2377 LP  0  0  0  0  0  0  0  0  0  0  0  0  # atno 4318 bound_to 3762
   -5.4851  -22.1030   10.7377 LP  0  0  0  0  0  0  0  0  0  0  0  0  # atno 4319 bound_to 3762
   -5.3615   -5.3805    8.9979 LP  0  0  0  0  0  0  0  0  0  0  0  0  # atno 4320 bound_to 2467
   -4.6163   -4.8159    7.6590 LP  0  0  0  0  0  0  0  0  0  0  0  0  # atno 4321 bound_to 2467

> <Gold.Score>
     Score     S(PLP)   S(hbond)     S(cho)   S(metal)  DE(clash)   DE(tors)     intcor
     32.62     -32.62       0.00       0.00       0.00       0.00       1.27       2.53

> <Gold.PLP.Fitness>
32.6202

> <Gold.PLP.PLP>
-32.6233

> <Gold.PLP.part.hbond>
-0.8284

> <Gold.PLP.part.metal>
0.0000

> <Gold.PLP.part.buried>
-7.3119

> <Gold.PLP.part.nonpolar>
-25.2314

> <Gold.PLP.part.repulsive>
0.0696

> <Gold.PLP.ligand.clash>
0.0000

> <Gold.PLP.ligand.torsion>
1.2690

> <Gold.PLP.Chemscore.Hbond>
0.0000

> <Gold.PLP.Chemscore.CHOScore>
0.0000

> <Gold.PLP.Chemscore.Metal>
0.0000

> <Gold.PLP.Chemscore.Internal.Correction>
2.5349

