#       Name:                EN300-6486870_i001
#       Creating user name   fsindt
#       Creation time:       Thu Mar  2 00:35:17 2023


#       File generated by GOLD software.
#

@<TRIPOS>MOLECULE
EN300-6486870_i001|acide_1|mol2|10832|dock14
    19    20     1
SMALL
USER_CHARGES


@<TRIPOS>ATOM
      1 O1          -0.0537 -15.0872  11.3287 O.co2          1 <1>               -1.0000
      2 C2          -0.5073 -13.9588  11.1968 C.2            1 <1>                0.0000
      3 O3          -1.2140 -13.4775  12.0718 O.co2          1 <1>                0.0000
      4 C4          -0.1978 -13.1776   9.9877 C.ar           1 <1>                0.0000
      5 C5           0.7229 -13.6661   9.0591 C.ar           1 <1>                0.0000
      6 C6           1.0073 -12.9258   7.9260 C.ar           1 <1>                0.0000
      7 N7           1.8425 -13.1133   6.8409 N.pl3          1 <1>                0.0000
      8 C8           1.6996 -12.0326   6.0308 C.2            1 <1>                0.0000
      9 N9           0.8386 -11.1993   6.5416 N.2            1 <1>                0.0000
     10 C10          0.3698 -11.6883   7.7150 C.ar           1 <1>                0.0000
     11 C11         -0.5511 -11.2119   8.6563 C.ar           1 <1>                0.0000
     12 C12         -0.8328 -11.9462   9.7678 C.ar           1 <1>                0.0000
     13 N13         -1.8078 -11.4355  10.7575 N.pl3          1 <1>                0.0000
     14 O14         -2.9991 -11.4539  10.5044 O.2            1 <1>                0.0000
     15 O15         -1.4188 -10.9968  11.8251 O.2            1 <1>                0.0000
     16 H16          1.2102 -14.6156   9.2246 H              1 <1>                0.0000
     17 H17          2.2241 -11.8854   5.0983 H              1 <1>                0.0000
     18 H18         -1.0419 -10.2630   8.4982 H              1 <1>                0.0000
     19 H19          2.4230 -13.8750   6.6867 H              1 <1>                0.0000
@<TRIPOS>BOND
    1    1    2 ar    
    2    2    3 ar    
    3    2    4 1     
    4    4    5 ar    
    5    4   12 ar    
    6    5    6 ar    
    7    5   16 1     
    8    6    7 1     
    9    6   10 ar    
   10    7    8 1     
   11    7   19 1     
   12    8    9 2     
   13    8   17 1     
   14    9   10 1     
   15   10   11 ar    
   16   11   12 ar    
   17   11   18 1     
   18   12   13 1     
   19   13   14 2     
   20   13   15 2     
@<TRIPOS>SUBSTRUCTURE
      1 ****           1
@<TRIPOS>SET
DONOR_HYDROGENS      STATIC     ATOMS    <user>   **** ""
1 19
ATOM$RED        STATIC     ATOMS    COLORGROUP SYSTEM
1 19
@<TRIPOS>COMMENT
> <Gold.Version>
2022.2.0

> <Gold.Id.Protein>
3pbl|protein|mol2

> <Gold.Protein.RotatedTorsions>
[ 1303 1298 1297 1294 ] final  151.42 input  179.99 | X-H torsion
[ 2461 2456 2455 2452 ] final -137.60 input   30.03 | X-H torsion
[ 2515 2510 2509 2506 ] final  117.50 input  -89.99 | X-H torsion
[ 3721 3712 3711 3710 ] final   35.57 input -179.91 | X-H torsion
[ 3841 3832 3831 3830 ] final   79.29 input -179.91 | X-H torsion
[ 3767 3762 3761 3758 ] final  -93.93 input  -89.99 | X-H torsion
[ 2472 2467 2466 2463 ] final  177.54 input  -89.97 | X-H torsion

> <Gold.Protein.ActiveResidues>
 VAL82   VAL86   LEU89   PHE106  VAL107  ASP110  VAL111  MET112  CYS114  THR115 
 CYS181  SER182  ILE183  PHE188  VAL189  ILE190  SER192  SER193  SER196  TRP342 
 PHE345  PHE346  HIS349  VAL350  TYR365  THR369  GLY372  TYR373 

> <Gold.Protein.RotatedAtoms>
    4.9061   -9.2930    4.8787 H   0  0  0  0  0  0  0  0  0  0  0  0  # atno 1303 bound_to 1298
    0.7955   -9.2622    8.2177 H   0  0  0  0  0  0  0  0  0  0  0  0  # atno 2461 bound_to 2456
   -5.3687   -5.3780    8.9866 H   0  0  0  0  0  0  0  0  0  0  0  0  # atno 2472 bound_to 2467
    2.0375   -8.1267    6.0556 H   0  0  0  0  0  0  0  0  0  0  0  0  # atno 2515 bound_to 2510
   -2.4947  -18.0245   13.7177 H   0  0  0  0  0  0  0  0  0  0  0  0  # atno 3721 bound_to 3712
   -5.1815  -21.9153   11.2600 H   0  0  0  0  0  0  0  0  0  0  0  0  # atno 3767 bound_to 3762
    2.7203  -20.9508    9.3651 H   0  0  0  0  0  0  0  0  0  0  0  0  # atno 3841 bound_to 3832
    3.6472  -10.1890    4.3510 LP  0  0  0  0  0  0  0  0  0  0  0  0  # atno 4297 bound_to 1298
    3.8085   -8.6394    3.8617 LP  0  0  0  0  0  0  0  0  0  0  0  0  # atno 4298 bound_to 1298
    2.1612   -8.4368    7.8697 LP  0  0  0  0  0  0  0  0  0  0  0  0  # atno 4299 bound_to 2456
    0.7809   -8.1094    7.0609 LP  0  0  0  0  0  0  0  0  0  0  0  0  # atno 4300 bound_to 2456
    2.5577   -7.6557    4.5814 LP  0  0  0  0  0  0  0  0  0  0  0  0  # atno 4301 bound_to 2510
    2.7018   -9.2169    5.0379 LP  0  0  0  0  0  0  0  0  0  0  0  0  # atno 4302 bound_to 2510
   -3.1873  -17.0729   14.8097 LP  0  0  0  0  0  0  0  0  0  0  0  0  # atno 4306 bound_to 3712
   -3.4602  -16.8438   13.2161 LP  0  0  0  0  0  0  0  0  0  0  0  0  # atno 4307 bound_to 3712
    1.3909  -20.0898    9.1055 LP  0  0  0  0  0  0  0  0  0  0  0  0  # atno 4314 bound_to 3832
    2.6961  -19.9141    8.1400 LP  0  0  0  0  0  0  0  0  0  0  0  0  # atno 4315 bound_to 3832
   -3.9117  -22.9421   11.2474 LP  0  0  0  0  0  0  0  0  0  0  0  0  # atno 4318 bound_to 3762
   -5.0343  -23.0174   10.0639 LP  0  0  0  0  0  0  0  0  0  0  0  0  # atno 4319 bound_to 3762
   -4.6030   -4.8145    7.6589 LP  0  0  0  0  0  0  0  0  0  0  0  0  # atno 4320 bound_to 2467
   -3.7454   -5.2012    8.9937 LP  0  0  0  0  0  0  0  0  0  0  0  0  # atno 4321 bound_to 2467

> <Gold.Score>
     Score     S(PLP)   S(hbond)     S(cho)   S(metal)  DE(clash)   DE(tors)     intcor
     36.16     -35.66       0.00       0.26       0.00       0.00       1.40       2.53

> <Gold.PLP.Fitness>
36.1597

> <Gold.PLP.PLP>
-35.6586

> <Gold.PLP.part.hbond>
-1.7614

> <Gold.PLP.part.metal>
0.0000

> <Gold.PLP.part.buried>
-2.8546

> <Gold.PLP.part.nonpolar>
-33.1824

> <Gold.PLP.part.repulsive>
0.3385

> <Gold.PLP.ligand.clash>
0.0037

> <Gold.PLP.ligand.torsion>
1.4030

> <Gold.PLP.Chemscore.Hbond>
0.0000

> <Gold.PLP.Chemscore.CHOScore>
0.2586

> <Gold.PLP.Chemscore.Metal>
0.0000

> <Gold.Chemscore.Hbonds>
donor molecule, donor type, donor heavy atom, donor atom, acceptor molecule, acceptor atom, score
      L1  C     8    17       P1  1235  0.26

> <Gold.PLP.Chemscore.Internal.Correction>
2.5349

