#       Name:                EN300-6486870_i001
#       Creating user name   fsindt
#       Creation time:       Thu Mar  2 00:35:13 2023


#       File generated by GOLD software.
#

@<TRIPOS>MOLECULE
EN300-6486870_i001|acide_1|mol2|10832|dock1
    19    20     1
SMALL
USER_CHARGES


@<TRIPOS>ATOM
      1 O1           0.1474 -11.0610   8.4756 O.co2          1 <1>               -1.0000
      2 C2           0.3191 -12.2713   8.4256 C.2            1 <1>                0.0000
      3 O3           0.6468 -12.7996   7.3720 O.co2          1 <1>                0.0000
      4 C4           0.1372 -13.0911   9.6350 C.ar           1 <1>                0.0000
      5 C5           0.9187 -14.2316   9.8279 C.ar           1 <1>                0.0000
      6 C6           0.7413 -14.9956  10.9671 C.ar           1 <1>                0.0000
      7 N7           1.3301 -16.1483  11.4517 N.pl3          1 <1>                0.0000
      8 C8           0.7367 -16.4355  12.6391 C.2            1 <1>                0.0000
      9 N9          -0.1711 -15.5430  12.9149 N.2            1 <1>                0.0000
     10 C10         -0.2223 -14.6214  11.9230 C.ar           1 <1>                0.0000
     11 C11         -0.9986 -13.4747  11.7145 C.ar           1 <1>                0.0000
     12 C12         -0.8172 -12.7218  10.5946 C.ar           1 <1>                0.0000
     13 N13         -1.6417 -11.5110  10.3822 N.pl3          1 <1>                0.0000
     14 O14         -1.7640 -10.6929  11.2763 O.2            1 <1>                0.0000
     15 O15         -2.1979 -11.3327   9.3134 O.2            1 <1>                0.0000
     16 H16          1.6566 -14.5157   9.0923 H              1 <1>                0.0000
     17 H17          0.9817 -17.2815  13.2640 H              1 <1>                0.0000
     18 H18         -1.7390 -13.1846  12.4452 H              1 <1>                0.0000
     19 H19          2.0358 -16.6576  11.0234 H              1 <1>                0.0000
@<TRIPOS>BOND
    1    1    2 ar    
    2    2    3 ar    
    3    2    4 1     
    4    4    5 ar    
    5    4   12 ar    
    6    5    6 ar    
    7    5   16 1     
    8    6    7 1     
    9    6   10 ar    
   10    7    8 1     
   11    7   19 1     
   12    8    9 2     
   13    8   17 1     
   14    9   10 1     
   15   10   11 ar    
   16   11   12 ar    
   17   11   18 1     
   18   12   13 1     
   19   13   14 2     
   20   13   15 2     
@<TRIPOS>SUBSTRUCTURE
      1 ****           1
@<TRIPOS>SET
DONOR_HYDROGENS      STATIC     ATOMS    <user>   **** ""
1 19
ATOM$RED        STATIC     ATOMS    COLORGROUP SYSTEM
1 19
@<TRIPOS>COMMENT
> <Gold.Version>
2022.2.0

> <Gold.Id.Protein>
3pbl|protein|mol2

> <Gold.Protein.RotatedTorsions>
[ 1303 1298 1297 1294 ] final   69.85 input  179.99 | X-H torsion
[ 2461 2456 2455 2452 ] final -128.26 input   30.03 | X-H torsion
[ 2515 2510 2509 2506 ] final  144.48 input  -89.99 | X-H torsion
[ 3721 3712 3711 3710 ] final   98.46 input -179.91 | X-H torsion
[ 3841 3832 3831 3830 ] final -149.40 input -179.91 | X-H torsion
[ 3767 3762 3761 3758 ] final  162.02 input  -89.99 | X-H torsion
[ 2472 2467 2466 2463 ] final  -24.62 input  -89.97 | X-H torsion

> <Gold.Protein.ActiveResidues>
 VAL82   VAL86   LEU89   PHE106  VAL107  ASP110  VAL111  MET112  CYS114  THR115 
 CYS181  SER182  ILE183  PHE188  VAL189  ILE190  SER192  SER193  SER196  TRP342 
 PHE345  PHE346  HIS349  VAL350  TYR365  THR369  GLY372  TYR373 

> <Gold.Protein.RotatedAtoms>
    4.1437  -10.2466    4.7190 H   0  0  0  0  0  0  0  0  0  0  0  0  # atno 1303 bound_to 1298
    0.6722   -9.2228    8.1352 H   0  0  0  0  0  0  0  0  0  0  0  0  # atno 2461 bound_to 2456
   -3.6479   -4.9877    8.4291 H   0  0  0  0  0  0  0  0  0  0  0  0  # atno 2472 bound_to 2467
    2.1182   -8.5579    6.0847 H   0  0  0  0  0  0  0  0  0  0  0  0  # atno 2515 bound_to 2510
   -2.8466  -17.5122   13.0615 H   0  0  0  0  0  0  0  0  0  0  0  0  # atno 3721 bound_to 3712
   -3.9653  -22.7547   11.4219 H   0  0  0  0  0  0  0  0  0  0  0  0  # atno 3767 bound_to 3762
    2.6207  -19.7479    8.3496 H   0  0  0  0  0  0  0  0  0  0  0  0  # atno 3841 bound_to 3832
    3.4243   -9.1200    3.7812 LP  0  0  0  0  0  0  0  0  0  0  0  0  # atno 4297 bound_to 1298
    4.7942   -8.7543    4.5913 LP  0  0  0  0  0  0  0  0  0  0  0  0  # atno 4298 bound_to 1298
    2.1504   -8.5469    7.9760 LP  0  0  0  0  0  0  0  0  0  0  0  0  # atno 4299 bound_to 2456
    0.9150   -8.0386    7.0370 LP  0  0  0  0  0  0  0  0  0  0  0  0  # atno 4300 bound_to 2456
    2.3699   -7.4438    4.9181 LP  0  0  0  0  0  0  0  0  0  0  0  0  # atno 4301 bound_to 2510
    2.8087   -8.9973    4.6720 LP  0  0  0  0  0  0  0  0  0  0  0  0  # atno 4302 bound_to 2510
   -2.7147  -17.9292   14.6063 LP  0  0  0  0  0  0  0  0  0  0  0  0  # atno 4306 bound_to 3712
   -3.5266  -16.5789   14.1770 LP  0  0  0  0  0  0  0  0  0  0  0  0  # atno 4307 bound_to 3712
    2.7961  -21.1222    9.1598 LP  0  0  0  0  0  0  0  0  0  0  0  0  # atno 4314 bound_to 3832
    1.4059  -20.2713    9.2587 LP  0  0  0  0  0  0  0  0  0  0  0  0  # atno 4315 bound_to 3832
   -4.8201  -23.1652   10.0924 LP  0  0  0  0  0  0  0  0  0  0  0  0  # atno 4318 bound_to 3762
   -5.3417  -21.9552   11.0570 LP  0  0  0  0  0  0  0  0  0  0  0  0  # atno 4319 bound_to 3762
   -4.8975   -5.4624    9.3670 LP  0  0  0  0  0  0  0  0  0  0  0  0  # atno 4320 bound_to 2467
   -5.1714   -4.9434    7.8431 LP  0  0  0  0  0  0  0  0  0  0  0  0  # atno 4321 bound_to 2467

> <Gold.Score>
     Score     S(PLP)   S(hbond)     S(cho)   S(metal)  DE(clash)   DE(tors)     intcor
     45.04     -39.06       2.00       0.00       0.00       0.00       1.28       2.53

> <Gold.PLP.Fitness>
45.0420

> <Gold.PLP.PLP>
-39.0641

> <Gold.PLP.part.hbond>
-2.0000

> <Gold.PLP.part.metal>
0.0000

> <Gold.PLP.part.buried>
-7.3958

> <Gold.PLP.part.nonpolar>
-30.5035

> <Gold.PLP.part.repulsive>
0.1164

> <Gold.PLP.ligand.clash>
0.0000

> <Gold.PLP.ligand.torsion>
1.2785

> <Gold.PLP.Chemscore.Hbond>
2.0000

> <Gold.PLP.Chemscore.CHOScore>
0.0000

> <Gold.PLP.Chemscore.Metal>
0.0000

> <Gold.Chemscore.Hbonds>
donor molecule, donor type, donor heavy atom, donor atom, acceptor molecule, acceptor atom, score
      L1  H     7    19       P1  1227  1.00
      P1  H  2456  2461       L1     1  1.00

> <Gold.PLP.Chemscore.Internal.Correction>
2.5349

