#       Name:                plp ligand
#       Creating user name   fsindt
#       Creation time:       Thu Mar  2 00:35:13 2023


#       File generated by GOLD software.
#

@<TRIPOS>MOLECULE
plp ligand
    19    20     1
SMALL
USER_CHARGES


@<TRIPOS>ATOM
      1 O1           2.8960  -1.7145  -1.0293 ACCEPTOR       1 <1>               -1.0000
      2 C2           2.4066  -1.3200   0.0202 NONPOLAR       1 <1>                0.0000
      3 O3           2.9850  -1.5223   1.0790 ACCEPTOR       1 <1>                0.0000
      4 C4           1.1243  -0.5964   0.0083 NONPOLAR       1 <1>                0.0000
      5 C5          -0.0771  -1.3071   0.0206 NONPOLAR       1 <1>                0.0000
      6 C6          -1.2769  -0.6192   0.0097 NONPOLAR       1 <1>                0.0000
      7 N7          -2.6045  -1.0036   0.0166 DONOR          1 <1>                0.0000
      8 C8          -3.3524   0.1299  -0.0018 NONPOLAR       1 <1>                0.0000
      9 N9          -2.5791   1.1779  -0.0195 ACCEPTOR       1 <1>                0.0000
     10 C10         -1.2813   0.7886  -0.0136 NONPOLAR       1 <1>                0.0000
     11 C11         -0.0675   1.4868  -0.0261 NONPOLAR       1 <1>                0.0000
     12 C12          1.1117   0.8063  -0.0095 NONPOLAR       1 <1>                0.0000
     13 N13          2.3902   1.5521  -0.0224 NONPOLAR       1 <1>                0.0000
     14 O14          2.3871   2.7676   0.0558 ACCEPTOR       1 <1>                0.0000
     15 O15          3.4454   0.9503  -0.1113 ACCEPTOR       1 <1>                0.0000
     16 H16         -0.0698  -2.3869   0.0381                1 <1>                0.0000
     17 H17         -4.4320   0.1582  -0.0021                1 <1>                0.0000
     18 H18         -0.0667   2.5666  -0.0443                1 <1>                0.0000
     19 H19         -2.9397  -1.9137   0.0316                1 <1>                0.0000
@<TRIPOS>BOND
    1    1    2 ar    
    2    2    3 ar    
    3    2    4 1     
    4    4    5 ar    
    5    4   12 ar    
    6    5    6 ar    
    7    5   16 1     
    8    6    7 1     
    9    6   10 ar    
   10    7    8 1     
   11    7   19 1     
   12    8    9 2     
   13    8   17 1     
   14    9   10 1     
   15   10   11 ar    
   16   11   12 ar    
   17   11   18 1     
   18   12   13 1     
   19   13   14 2     
   20   13   15 2     
@<TRIPOS>SUBSTRUCTURE
      1 ****           1
@<TRIPOS>SET
DONOR_HYDROGENS      STATIC     ATOMS    <user>   **** ""
1 19
ATOM$RED        STATIC     ATOMS    COLORGROUP SYSTEM
1 19
