#       Name:                EN300-19857_i001
#       Creating user name   fsindt
#       Creation time:       Tue Feb 28 04:05:10 2023


#       File generated by GOLD software.
#

@<TRIPOS>MOLECULE
EN300-19857_i001|acide_1|mol2|2793|dock20
    14    14     1
SMALL
USER_CHARGES


@<TRIPOS>ATOM
      1 O1          -0.6801 -14.7334  12.2748 O.co2          1 <1>               -1.0000
      2 C2          -0.0612 -14.3703  11.2846 C.2            1 <1>                0.0000
      3 O3           0.9101 -15.0078  10.9027 O.co2          1 <1>                0.0000
      4 C4          -0.4899 -13.1665  10.5471 C.ar           1 <1>                0.0000
      5 C5           0.2870 -12.6738   9.4958 C.ar           1 <1>                0.0000
      6 C6          -0.1195 -11.5478   8.8104 C.ar           1 <1>                0.0000
      7 C7          -1.2938 -10.9062   9.1618 C.ar           1 <1>                0.0000
      8 C8          -2.0692 -11.3882  10.2031 C.ar           1 <1>                0.0000
      9 Br9         -3.6723 -10.5028  10.6742 Br             1 <1>                0.0000
     10 C10         -1.6778 -12.5173  10.8933 C.ar           1 <1>                0.0000
     11 H11          1.2041 -13.1732   9.2205 H              1 <1>                0.0000
     12 H12          0.4805 -11.1659   7.9978 H              1 <1>                0.0000
     13 H13         -1.6071 -10.0250   8.6216 H              1 <1>                0.0000
     14 H14         -2.2830 -12.8926  11.7053 H              1 <1>                0.0000
@<TRIPOS>BOND
    1    1    2 ar    
    2    2    3 ar    
    3    2    4 1     
    4    4    5 ar    
    5    4   10 ar    
    6    5    6 ar    
    7    5   11 1     
    8    6    7 ar    
    9    6   12 1     
   10    7    8 ar    
   11    7   13 1     
   12    8    9 1     
   13    8   10 ar    
   14   10   14 1     
@<TRIPOS>SUBSTRUCTURE
      1 ****           1
@<TRIPOS>COMMENT
> <Gold.Version>
2022.2.0

> <Gold.Id.Protein>
3pbl|protein|mol2

> <Gold.Protein.RotatedTorsions>
[ 1303 1298 1297 1294 ] final  132.68 input  179.99 | X-H torsion
[ 2461 2456 2455 2452 ] final   51.80 input   30.03 | X-H torsion
[ 2515 2510 2509 2506 ] final   -8.78 input  -89.99 | X-H torsion
[ 3721 3712 3711 3710 ] final    5.30 input -179.91 | X-H torsion
[ 3841 3832 3831 3830 ] final -139.21 input -179.91 | X-H torsion
[ 3767 3762 3761 3758 ] final   -1.83 input  -89.99 | X-H torsion
[ 2472 2467 2466 2463 ] final  -10.69 input  -89.97 | X-H torsion

> <Gold.Protein.ActiveResidues>
 VAL82   VAL86   LEU89   PHE106  VAL107  ASP110  VAL111  MET112  CYS114  THR115 
 CYS181  SER182  ILE183  PHE188  VAL189  ILE190  SER192  SER193  SER196  TRP342 
 PHE345  PHE346  HIS349  VAL350  TYR365  THR369  GLY372  TYR373 

> <Gold.Protein.RotatedAtoms>
    4.8346   -9.5845    4.9422 H   0  0  0  0  0  0  0  0  0  0  0  0  # atno 1303 bound_to 1298
    1.8204   -7.9829    7.2975 H   0  0  0  0  0  0  0  0  0  0  0  0  # atno 2461 bound_to 2456
   -3.7131   -4.9198    8.2207 H   0  0  0  0  0  0  0  0  0  0  0  0  # atno 2472 bound_to 2467
    2.5989   -7.7287    4.5214 H   0  0  0  0  0  0  0  0  0  0  0  0  # atno 2515 bound_to 2510
   -2.4776  -17.9845   14.1678 H   0  0  0  0  0  0  0  0  0  0  0  0  # atno 3721 bound_to 3712
   -5.3393  -22.6941   10.1590 H   0  0  0  0  0  0  0  0  0  0  0  0  # atno 3767 bound_to 3762
    2.4861  -19.6763    8.3689 H   0  0  0  0  0  0  0  0  0  0  0  0  # atno 3841 bound_to 3832
    3.4687  -10.0246    4.1631 LP  0  0  0  0  0  0  0  0  0  0  0  0  # atno 4297 bound_to 1298
    4.0585   -8.5122    3.9861 LP  0  0  0  0  0  0  0  0  0  0  0  0  # atno 4298 bound_to 1298
    0.3416   -8.6578    7.4553 LP  0  0  0  0  0  0  0  0  0  0  0  0  # atno 4299 bound_to 2456
    1.5760   -9.1673    8.3952 LP  0  0  0  0  0  0  0  0  0  0  0  0  # atno 4300 bound_to 2456
    2.6673   -9.2414    5.1321 LP  0  0  0  0  0  0  0  0  0  0  0  0  # atno 4301 bound_to 2510
    2.0304   -8.0293    6.0221 LP  0  0  0  0  0  0  0  0  0  0  0  0  # atno 4302 bound_to 2510
   -3.4104  -16.7276   14.5253 LP  0  0  0  0  0  0  0  0  0  0  0  0  # atno 4306 bound_to 3712
   -3.2569  -17.2352   12.9808 LP  0  0  0  0  0  0  0  0  0  0  0  0  # atno 4307 bound_to 3712
    2.9085  -21.0701    9.0436 LP  0  0  0  0  0  0  0  0  0  0  0  0  # atno 4314 bound_to 3832
    1.4490  -20.4061    9.3527 LP  0  0  0  0  0  0  0  0  0  0  0  0  # atno 4315 bound_to 3832
   -4.8237  -21.9780   11.5331 LP  0  0  0  0  0  0  0  0  0  0  0  0  # atno 4318 bound_to 3762
   -3.9646  -23.2029   10.8787 LP  0  0  0  0  0  0  0  0  0  0  0  0  # atno 4319 bound_to 3762
   -4.6762   -5.4587    9.4243 LP  0  0  0  0  0  0  0  0  0  0  0  0  # atno 4320 bound_to 2467
   -5.3274   -5.0149    7.9941 LP  0  0  0  0  0  0  0  0  0  0  0  0  # atno 4321 bound_to 2467

> <Gold.Score>
     Score     S(PLP)   S(hbond)     S(cho)   S(metal)  DE(clash)   DE(tors)     intcor
     31.78     -31.82       0.00       0.00       0.00       0.00       0.02       0.00

> <Gold.PLP.Fitness>
31.7769

> <Gold.PLP.PLP>
-31.8151

> <Gold.PLP.part.hbond>
0.0000

> <Gold.PLP.part.metal>
0.0000

> <Gold.PLP.part.buried>
-2.2787

> <Gold.PLP.part.nonpolar>
-30.1966

> <Gold.PLP.part.repulsive>
0.1671

> <Gold.PLP.ligand.clash>
0.0000

> <Gold.PLP.ligand.torsion>
0.0191

> <Gold.PLP.Chemscore.Hbond>
0.0000

> <Gold.PLP.Chemscore.CHOScore>
0.0000

> <Gold.PLP.Chemscore.Metal>
0.0000

> <Gold.PLP.Chemscore.Internal.Correction>
0.0000

