#       Name:                EN300-19857_i001
#       Creating user name   fsindt
#       Creation time:       Tue Feb 28 04:05:07 2023


#       File generated by GOLD software.
#

@<TRIPOS>MOLECULE
EN300-19857_i001|acide_1|mol2|2793|dock9
    14    14     1
SMALL
USER_CHARGES


@<TRIPOS>ATOM
      1 O1          -2.1998  -9.3090   9.2965 O.co2          1 <1>               -1.0000
      2 C2          -2.3315 -10.2983  10.0032 C.2            1 <1>                0.0000
      3 O3          -3.2670 -10.3693  10.7877 O.co2          1 <1>                0.0000
      4 C4          -1.3652 -11.4089   9.9050 C.ar           1 <1>                0.0000
      5 C5          -0.4712 -11.4686   8.8334 C.ar           1 <1>                0.0000
      6 C6           0.4297 -12.5098   8.7475 C.ar           1 <1>                0.0000
      7 C7           0.4493 -13.4939   9.7196 C.ar           1 <1>                0.0000
      8 C8          -0.4341 -13.4421  10.7848 C.ar           1 <1>                0.0000
      9 Br9         -0.3978 -14.7931  12.1075 Br             1 <1>                0.0000
     10 C10         -1.3364 -12.4030  10.8866 C.ar           1 <1>                0.0000
     11 H11         -0.4854 -10.7013   8.0734 H              1 <1>                0.0000
     12 H12          1.1211 -12.5569   7.9192 H              1 <1>                0.0000
     13 H13          1.1569 -14.3067   9.6473 H              1 <1>                0.0000
     14 H14         -2.0251 -12.3633  11.7177 H              1 <1>                0.0000
@<TRIPOS>BOND
    1    1    2 ar    
    2    2    3 ar    
    3    2    4 1     
    4    4    5 ar    
    5    4   10 ar    
    6    5    6 ar    
    7    5   11 1     
    8    6    7 ar    
    9    6   12 1     
   10    7    8 ar    
   11    7   13 1     
   12    8    9 1     
   13    8   10 ar    
   14   10   14 1     
@<TRIPOS>SUBSTRUCTURE
      1 ****           1
@<TRIPOS>COMMENT
> <Gold.Version>
2022.2.0

> <Gold.Id.Protein>
3pbl|protein|mol2

> <Gold.Protein.RotatedTorsions>
[ 1303 1298 1297 1294 ] final -157.40 input  179.99 | X-H torsion
[ 2461 2456 2455 2452 ] final  -14.35 input   30.03 | X-H torsion
[ 2515 2510 2509 2506 ] final  163.99 input  -89.99 | X-H torsion
[ 3721 3712 3711 3710 ] final   -9.02 input -179.91 | X-H torsion
[ 3841 3832 3831 3830 ] final   66.24 input -179.91 | X-H torsion
[ 3767 3762 3761 3758 ] final -134.52 input  -89.99 | X-H torsion
[ 2472 2467 2466 2463 ] final  -26.35 input  -89.97 | X-H torsion

> <Gold.Protein.ActiveResidues>
 VAL82   VAL86   LEU89   PHE106  VAL107  ASP110  VAL111  MET112  CYS114  THR115 
 CYS181  SER182  ILE183  PHE188  VAL189  ILE190  SER192  SER193  SER196  TRP342 
 PHE345  PHE346  HIS349  VAL350  TYR365  THR369  GLY372  TYR373 

> <Gold.Protein.RotatedAtoms>
    4.6855   -8.6262    4.4667 H   0  0  0  0  0  0  0  0  0  0  0  0  # atno 1303 bound_to 1298
    0.8262   -8.0830    7.0504 H   0  0  0  0  0  0  0  0  0  0  0  0  # atno 2461 bound_to 2456
   -3.6435   -4.9969    8.4557 H   0  0  0  0  0  0  0  0  0  0  0  0  # atno 2472 bound_to 2467
    2.2208   -8.8444    5.9880 H   0  0  0  0  0  0  0  0  0  0  0  0  # atno 2515 bound_to 2510
   -2.5110  -17.8961   14.3620 H   0  0  0  0  0  0  0  0  0  0  0  0  # atno 3721 bound_to 3712
   -4.6460  -22.0577   11.6076 H   0  0  0  0  0  0  0  0  0  0  0  0  # atno 3767 bound_to 3762
    2.5544  -20.9542    9.4708 H   0  0  0  0  0  0  0  0  0  0  0  0  # atno 3841 bound_to 3832
    4.3178  -10.1790    4.8131 LP  0  0  0  0  0  0  0  0  0  0  0  0  # atno 4297 bound_to 1298
    3.3586   -9.3165    3.8118 LP  0  0  0  0  0  0  0  0  0  0  0  0  # atno 4298 bound_to 1298
    0.7512   -9.2503    8.1902 LP  0  0  0  0  0  0  0  0  0  0  0  0  # atno 4299 bound_to 2456
    2.1602   -8.4748    7.9073 LP  0  0  0  0  0  0  0  0  0  0  0  0  # atno 4300 bound_to 2456
    2.2403   -7.4101    5.2081 LP  0  0  0  0  0  0  0  0  0  0  0  0  # atno 4301 bound_to 2510
    2.8357   -8.7444    4.4788 LP  0  0  0  0  0  0  0  0  0  0  0  0  # atno 4302 bound_to 2510
   -3.4882  -16.6228   14.3255 LP  0  0  0  0  0  0  0  0  0  0  0  0  # atno 4306 bound_to 3712
   -3.1405  -17.4422   12.9564 LP  0  0  0  0  0  0  0  0  0  0  0  0  # atno 4307 bound_to 3712
    1.4241  -19.9402    8.9510 LP  0  0  0  0  0  0  0  0  0  0  0  0  # atno 4314 bound_to 3832
    2.8545  -20.0598    8.1724 LP  0  0  0  0  0  0  0  0  0  0  0  0  # atno 4315 bound_to 3832
   -4.0481  -23.2796   10.7041 LP  0  0  0  0  0  0  0  0  0  0  0  0  # atno 4318 bound_to 3762
   -5.4332  -22.5375   10.2596 LP  0  0  0  0  0  0  0  0  0  0  0  0  # atno 4319 bound_to 3762
   -4.9239   -5.4615    9.3564 LP  0  0  0  0  0  0  0  0  0  0  0  0  # atno 4320 bound_to 2467
   -5.1493   -4.9352    7.8271 LP  0  0  0  0  0  0  0  0  0  0  0  0  # atno 4321 bound_to 2467

> <Gold.Score>
     Score     S(PLP)   S(hbond)     S(cho)   S(metal)  DE(clash)   DE(tors)     intcor
     33.95     -34.11       0.00       0.00       0.00       0.00       0.08       0.00

> <Gold.PLP.Fitness>
33.9491

> <Gold.PLP.PLP>
-34.1120

> <Gold.PLP.part.hbond>
-1.0000

> <Gold.PLP.part.metal>
0.0000

> <Gold.PLP.part.buried>
-4.2313

> <Gold.PLP.part.nonpolar>
-29.8969

> <Gold.PLP.part.repulsive>
0.3606

> <Gold.PLP.ligand.clash>
0.0000

> <Gold.PLP.ligand.torsion>
0.0815

> <Gold.PLP.Chemscore.Hbond>
0.0000

> <Gold.PLP.Chemscore.CHOScore>
0.0000

> <Gold.PLP.Chemscore.Metal>
0.0000

> <Gold.PLP.Chemscore.Internal.Correction>
0.0000

