#       Name:                EN300-19857_i001
#       Creating user name   fsindt
#       Creation time:       Tue Feb 28 04:05:09 2023


#       File generated by GOLD software.
#

@<TRIPOS>MOLECULE
EN300-19857_i001|acide_1|mol2|2793|dock14
    14    14     1
SMALL
USER_CHARGES


@<TRIPOS>ATOM
      1 O1          -0.5707 -17.3163  13.2432 O.co2          1 <1>               -1.0000
      2 C2          -0.2271 -16.1459  13.3298 C.2            1 <1>                0.0000
      3 O3           0.1282 -15.6911  14.4080 O.co2          1 <1>                0.0000
      4 C4          -0.2357 -15.2840  12.1323 C.ar           1 <1>                0.0000
      5 C5           0.2150 -15.7808  10.9070 C.ar           1 <1>                0.0000
      6 C6           0.2045 -14.9696   9.7912 C.ar           1 <1>                0.0000
      7 C7          -0.2510 -13.6665   9.8834 C.ar           1 <1>                0.0000
      8 C8          -0.6989 -13.1666  11.0947 C.ar           1 <1>                0.0000
      9 Br9         -1.3191 -11.3838  11.2084 Br             1 <1>                0.0000
     10 C10         -0.6998 -13.9688  12.2175 C.ar           1 <1>                0.0000
     11 H11          0.5712 -16.7977  10.8333 H              1 <1>                0.0000
     12 H12          0.5529 -15.3526   8.8435 H              1 <1>                0.0000
     13 H13         -0.2570 -13.0361   9.0065 H              1 <1>                0.0000
     14 H14         -1.0492 -13.5781  13.1619 H              1 <1>                0.0000
@<TRIPOS>BOND
    1    1    2 ar    
    2    2    3 ar    
    3    2    4 1     
    4    4    5 ar    
    5    4   10 ar    
    6    5    6 ar    
    7    5   11 1     
    8    6    7 ar    
    9    6   12 1     
   10    7    8 ar    
   11    7   13 1     
   12    8    9 1     
   13    8   10 ar    
   14   10   14 1     
@<TRIPOS>SUBSTRUCTURE
      1 ****           1
@<TRIPOS>COMMENT
> <Gold.Version>
2022.2.0

> <Gold.Id.Protein>
3pbl|protein|mol2

> <Gold.Protein.RotatedTorsions>
[ 1303 1298 1297 1294 ] final  -76.21 input  179.99 | X-H torsion
[ 2461 2456 2455 2452 ] final  122.49 input   30.03 | X-H torsion
[ 2515 2510 2509 2506 ] final  -84.21 input  -89.99 | X-H torsion
[ 3721 3712 3711 3710 ] final   44.69 input -179.91 | X-H torsion
[ 3841 3832 3831 3830 ] final  -83.06 input -179.91 | X-H torsion
[ 3767 3762 3761 3758 ] final -163.21 input  -89.99 | X-H torsion
[ 2472 2467 2466 2463 ] final   74.05 input  -89.97 | X-H torsion

> <Gold.Protein.ActiveResidues>
 VAL82   VAL86   LEU89   PHE106  VAL107  ASP110  VAL111  MET112  CYS114  THR115 
 CYS181  SER182  ILE183  PHE188  VAL189  ILE190  SER192  SER193  SER196  TRP342 
 PHE345  PHE346  HIS349  VAL350  TYR365  THR369  GLY372  TYR373 

> <Gold.Protein.RotatedAtoms>
    3.6598   -8.7673    3.8087 H   0  0  0  0  0  0  0  0  0  0  0  0  # atno 1303 bound_to 1298
    2.1087   -8.6754    8.0899 H   0  0  0  0  0  0  0  0  0  0  0  0  # atno 2461 bound_to 2456
   -4.8680   -4.8571    7.6941 H   0  0  0  0  0  0  0  0  0  0  0  0  # atno 2472 bound_to 2467
    2.8299   -8.8581    4.5510 H   0  0  0  0  0  0  0  0  0  0  0  0  # atno 2515 bound_to 2510
   -2.5228  -17.9959   13.5860 H   0  0  0  0  0  0  0  0  0  0  0  0  # atno 3721 bound_to 3712
   -4.2698  -22.3331   11.6387 H   0  0  0  0  0  0  0  0  0  0  0  0  # atno 3767 bound_to 3762
    1.7820  -19.6463    8.7780 H   0  0  0  0  0  0  0  0  0  0  0  0  # atno 3841 bound_to 3832
    4.9083   -9.1033    4.8060 LP  0  0  0  0  0  0  0  0  0  0  0  0  # atno 4297 bound_to 1298
    3.7942  -10.2510    4.4771 LP  0  0  0  0  0  0  0  0  0  0  0  0  # atno 4298 bound_to 1298
    1.0800   -7.9757    7.0318 LP  0  0  0  0  0  0  0  0  0  0  0  0  # atno 4299 bound_to 2456
    0.5494   -9.1570    8.0266 LP  0  0  0  0  0  0  0  0  0  0  0  0  # atno 4300 bound_to 2456
    2.1737   -8.7295    6.0405 LP  0  0  0  0  0  0  0  0  0  0  0  0  # atno 4301 bound_to 2510
    2.2929   -7.4113    5.0840 LP  0  0  0  0  0  0  0  0  0  0  0  0  # atno 4302 bound_to 2510
   -3.1116  -17.1988   14.8492 LP  0  0  0  0  0  0  0  0  0  0  0  0  # atno 4306 bound_to 3712
   -3.5035  -16.7509   13.3286 LP  0  0  0  0  0  0  0  0  0  0  0  0  # atno 4307 bound_to 3712
    3.1006  -20.4765    8.3931 LP  0  0  0  0  0  0  0  0  0  0  0  0  # atno 4314 bound_to 3832
    2.0703  -21.0343    9.5306 LP  0  0  0  0  0  0  0  0  0  0  0  0  # atno 4315 bound_to 3832
   -4.3473  -23.3321   10.3492 LP  0  0  0  0  0  0  0  0  0  0  0  0  # atno 4318 bound_to 3762
   -5.5101  -22.2098   10.5835 LP  0  0  0  0  0  0  0  0  0  0  0  0  # atno 4319 bound_to 3762
   -3.6538   -5.1059    8.7573 LP  0  0  0  0  0  0  0  0  0  0  0  0  # atno 4320 bound_to 2467
   -5.1952   -5.4305    9.1876 LP  0  0  0  0  0  0  0  0  0  0  0  0  # atno 4321 bound_to 2467

> <Gold.Score>
     Score     S(PLP)   S(hbond)     S(cho)   S(metal)  DE(clash)   DE(tors)     intcor
     32.78     -29.17       1.64       0.00       0.00       0.00       0.66       0.00

> <Gold.PLP.Fitness>
32.7782

> <Gold.PLP.PLP>
-29.1740

> <Gold.PLP.part.hbond>
-2.0000

> <Gold.PLP.part.metal>
0.0000

> <Gold.PLP.part.buried>
-3.1612

> <Gold.PLP.part.nonpolar>
-24.7981

> <Gold.PLP.part.repulsive>
0.1079

> <Gold.PLP.ligand.clash>
0.0000

> <Gold.PLP.ligand.torsion>
0.6579

> <Gold.PLP.Chemscore.Hbond>
1.6400

> <Gold.PLP.Chemscore.CHOScore>
0.0000

> <Gold.PLP.Chemscore.Metal>
0.0000

> <Gold.Chemscore.Hbonds>
donor molecule, donor type, donor heavy atom, donor atom, acceptor molecule, acceptor atom, score
      P1  H  2305  2313       L1     3  1.00
      P1  H  3712  3721       L1     1  0.64

> <Gold.PLP.Chemscore.Internal.Correction>
0.0000

