#       Name:                EN300-19857_i001
#       Creating user name   fsindt
#       Creation time:       Tue Feb 28 04:05:06 2023


#       File generated by GOLD software.
#

@<TRIPOS>MOLECULE
EN300-19857_i001|acide_1|mol2|2793|dock3
    14    14     1
SMALL
USER_CHARGES


@<TRIPOS>ATOM
      1 O1           1.3455 -10.5781   7.1734 O.co2          1 <1>               -1.0000
      2 C2           1.3410 -11.6626   6.6084 C.2            1 <1>                0.0000
      3 O3           1.6697 -11.7412   5.4330 O.co2          1 <1>                0.0000
      4 C4           0.9449 -12.8772   7.3464 C.ar           1 <1>                0.0000
      5 C5           0.9855 -14.1244   6.7184 C.ar           1 <1>                0.0000
      6 C6           0.6136 -15.2561   7.4141 C.ar           1 <1>                0.0000
      7 C7           0.2010 -15.1584   8.7310 C.ar           1 <1>                0.0000
      8 C8           0.1576 -13.9255   9.3603 C.ar           1 <1>                0.0000
      9 Br9         -0.4080 -13.8045  11.1607 Br             1 <1>                0.0000
     10 C10          0.5327 -12.7860   8.6784 C.ar           1 <1>                0.0000
     11 H11          1.3070 -14.2024   5.6904 H              1 <1>                0.0000
     12 H12          0.6444 -16.2207   6.9295 H              1 <1>                0.0000
     13 H13         -0.0889 -16.0478   9.2707 H              1 <1>                0.0000
     14 H14          0.4985 -11.8249   9.1699 H              1 <1>                0.0000
@<TRIPOS>BOND
    1    1    2 ar    
    2    2    3 ar    
    3    2    4 1     
    4    4    5 ar    
    5    4   10 ar    
    6    5    6 ar    
    7    5   11 1     
    8    6    7 ar    
    9    6   12 1     
   10    7    8 ar    
   11    7   13 1     
   12    8    9 1     
   13    8   10 ar    
   14   10   14 1     
@<TRIPOS>SUBSTRUCTURE
      1 ****           1
@<TRIPOS>COMMENT
> <Gold.Version>
2022.2.0

> <Gold.Id.Protein>
3pbl|protein|mol2

> <Gold.Protein.RotatedTorsions>
[ 1303 1298 1297 1294 ] final    3.79 input  179.99 | X-H torsion
[ 2461 2456 2455 2452 ] final -169.42 input   30.03 | X-H torsion
[ 2515 2510 2509 2506 ] final  171.90 input  -89.99 | X-H torsion
[ 3721 3712 3711 3710 ] final  149.22 input -179.91 | X-H torsion
[ 3841 3832 3831 3830 ] final  153.04 input -179.91 | X-H torsion
[ 3767 3762 3761 3758 ] final  178.24 input  -89.99 | X-H torsion
[ 2472 2467 2466 2463 ] final -143.71 input  -89.97 | X-H torsion

> <Gold.Protein.ActiveResidues>
 VAL82   VAL86   LEU89   PHE106  VAL107  ASP110  VAL111  MET112  CYS114  THR115 
 CYS181  SER182  ILE183  PHE188  VAL189  ILE190  SER192  SER193  SER196  TRP342 
 PHE345  PHE346  HIS349  VAL350  TYR365  THR369  GLY372  TYR373 

> <Gold.Protein.RotatedAtoms>
    3.4072   -9.9208    4.0807 H   0  0  0  0  0  0  0  0  0  0  0  0  # atno 1303 bound_to 1298
    1.2835   -9.2628    8.3886 H   0  0  0  0  0  0  0  0  0  0  0  0  # atno 2461 bound_to 2456
   -4.8834   -5.4635    9.3720 H   0  0  0  0  0  0  0  0  0  0  0  0  # atno 2472 bound_to 2467
    2.2701   -8.9455    5.9228 H   0  0  0  0  0  0  0  0  0  0  0  0  # atno 2515 bound_to 2510
   -3.2013  -16.8730   13.1912 H   0  0  0  0  0  0  0  0  0  0  0  0  # atno 3721 bound_to 3712
   -4.0790  -22.5544   11.5550 H   0  0  0  0  0  0  0  0  0  0  0  0  # atno 3767 bound_to 3762
    3.1159  -20.3700    8.6000 H   0  0  0  0  0  0  0  0  0  0  0  0  # atno 3841 bound_to 3832
    4.1814   -8.4832    4.0602 LP  0  0  0  0  0  0  0  0  0  0  0  0  # atno 4297 bound_to 1298
    4.7739   -9.7171    4.9508 LP  0  0  0  0  0  0  0  0  0  0  0  0  # atno 4298 bound_to 1298
    2.0192   -8.1109    7.4946 LP  0  0  0  0  0  0  0  0  0  0  0  0  # atno 4299 bound_to 2456
    0.4351   -8.4347    7.2652 LP  0  0  0  0  0  0  0  0  0  0  0  0  # atno 4300 bound_to 2456
    2.1933   -7.4268    5.3282 LP  0  0  0  0  0  0  0  0  0  0  0  0  # atno 4301 bound_to 2510
    2.8334   -8.6265    4.4239 LP  0  0  0  0  0  0  0  0  0  0  0  0  # atno 4302 bound_to 2510
   -2.6169  -18.2182   13.8444 LP  0  0  0  0  0  0  0  0  0  0  0  0  # atno 4306 bound_to 3712
   -3.2148  -17.0280   14.7892 LP  0  0  0  0  0  0  0  0  0  0  0  0  # atno 4307 bound_to 3712
    1.9701  -20.9800    9.5440 LP  0  0  0  0  0  0  0  0  0  0  0  0  # atno 4314 bound_to 3832
    1.6599  -19.6949    8.5854 LP  0  0  0  0  0  0  0  0  0  0  0  0  # atno 4315 bound_to 3832
   -4.5938  -23.2727   10.1817 LP  0  0  0  0  0  0  0  0  0  0  0  0  # atno 4318 bound_to 3762
   -5.4543  -22.0480   10.8346 LP  0  0  0  0  0  0  0  0  0  0  0  0  # atno 4319 bound_to 3762
   -5.1829   -4.9478    7.8519 LP  0  0  0  0  0  0  0  0  0  0  0  0  # atno 4320 bound_to 2467
   -3.6506   -4.9823    8.4154 LP  0  0  0  0  0  0  0  0  0  0  0  0  # atno 4321 bound_to 2467

> <Gold.Score>
     Score     S(PLP)   S(hbond)     S(cho)   S(metal)  DE(clash)   DE(tors)     intcor
     34.04     -31.77       0.76       0.00       0.00       0.00       0.00       0.00

> <Gold.PLP.Fitness>
34.0374

> <Gold.PLP.PLP>
-31.7690

> <Gold.PLP.part.hbond>
-1.1331

> <Gold.PLP.part.metal>
0.0000

> <Gold.PLP.part.buried>
-2.2077

> <Gold.PLP.part.nonpolar>
-29.8582

> <Gold.PLP.part.repulsive>
0.1706

> <Gold.PLP.ligand.clash>
0.0000

> <Gold.PLP.ligand.torsion>
0.0021

> <Gold.PLP.Chemscore.Hbond>
0.7575

> <Gold.PLP.Chemscore.CHOScore>
0.0000

> <Gold.PLP.Chemscore.Metal>
0.0000

> <Gold.Chemscore.Hbonds>
donor molecule, donor type, donor heavy atom, donor atom, acceptor molecule, acceptor atom, score
      P1  H  2456  2461       L1     1  0.22
      P1  H  2510  2515       L1     1  0.53

> <Gold.PLP.Chemscore.Internal.Correction>
0.0000

