#       Name:                EN300-19857_i001
#       Creating user name   fsindt
#       Creation time:       Tue Feb 28 04:05:08 2023


#       File generated by GOLD software.
#

@<TRIPOS>MOLECULE
EN300-19857_i001|acide_1|mol2|2793|dock12
    14    14     1
SMALL
USER_CHARGES


@<TRIPOS>ATOM
      1 O1          -1.0833 -13.1865  11.5098 O.co2          1 <1>               -1.0000
      2 C2          -0.7945 -12.4783  10.5556 C.2            1 <1>                0.0000
      3 O3          -1.0654 -11.2860  10.5748 O.co2          1 <1>                0.0000
      4 C4          -0.1137 -13.0614   9.3836 C.ar           1 <1>                0.0000
      5 C5           0.1628 -14.4300   9.3417 C.ar           1 <1>                0.0000
      6 C6           0.7997 -14.9687   8.2430 C.ar           1 <1>                0.0000
      7 C7           1.1647 -14.1570   7.1837 C.ar           1 <1>                0.0000
      8 C8           0.8945 -12.7992   7.2181 C.ar           1 <1>                0.0000
      9 Br9          1.3982 -11.6999   5.7643 Br             1 <1>                0.0000
     10 C10          0.2524 -12.2480   8.3081 C.ar           1 <1>                0.0000
     11 H11         -0.1212 -15.0650  10.1678 H              1 <1>                0.0000
     12 H12          1.0141 -16.0267   8.2097 H              1 <1>                0.0000
     13 H13          1.6630 -14.5844   6.3261 H              1 <1>                0.0000
     14 H14          0.0421 -11.1889   8.3341 H              1 <1>                0.0000
@<TRIPOS>BOND
    1    1    2 ar    
    2    2    3 ar    
    3    2    4 1     
    4    4    5 ar    
    5    4   10 ar    
    6    5    6 ar    
    7    5   11 1     
    8    6    7 ar    
    9    6   12 1     
   10    7    8 ar    
   11    7   13 1     
   12    8    9 1     
   13    8   10 ar    
   14   10   14 1     
@<TRIPOS>SUBSTRUCTURE
      1 ****           1
@<TRIPOS>COMMENT
> <Gold.Version>
2022.2.0

> <Gold.Id.Protein>
3pbl|protein|mol2

> <Gold.Protein.RotatedTorsions>
[ 1303 1298 1297 1294 ] final   31.94 input  179.99 | X-H torsion
[ 2461 2456 2455 2452 ] final    8.48 input   30.03 | X-H torsion
[ 2515 2510 2509 2506 ] final   81.26 input  -89.99 | X-H torsion
[ 3721 3712 3711 3710 ] final   72.26 input -179.91 | X-H torsion
[ 3841 3832 3831 3830 ] final -133.06 input -179.91 | X-H torsion
[ 3767 3762 3761 3758 ] final   70.83 input  -89.99 | X-H torsion
[ 2472 2467 2466 2463 ] final -118.92 input  -89.97 | X-H torsion

> <Gold.Protein.ActiveResidues>
 VAL82   VAL86   LEU89   PHE106  VAL107  ASP110  VAL111  MET112  CYS114  THR115 
 CYS181  SER182  ILE183  PHE188  VAL189  ILE190  SER192  SER193  SER196  TRP342 
 PHE345  PHE346  HIS349  VAL350  TYR365  THR369  GLY372  TYR373 

> <Gold.Protein.RotatedAtoms>
    3.6530  -10.1921    4.3568 H   0  0  0  0  0  0  0  0  0  0  0  0  # atno 1303 bound_to 1298
    1.1748   -7.9499    7.0391 H   0  0  0  0  0  0  0  0  0  0  0  0  # atno 2461 bound_to 2456
   -4.4839   -5.4413    9.4323 H   0  0  0  0  0  0  0  0  0  0  0  0  # atno 2472 bound_to 2467
    2.0647   -7.6339    5.7392 H   0  0  0  0  0  0  0  0  0  0  0  0  # atno 2515 bound_to 2510
   -2.6624  -17.8048   13.2476 H   0  0  0  0  0  0  0  0  0  0  0  0  # atno 3721 bound_to 3712
   -4.4232  -23.3205   10.2881 H   0  0  0  0  0  0  0  0  0  0  0  0  # atno 3767 bound_to 3762
    2.4024  -19.6420    8.3900 H   0  0  0  0  0  0  0  0  0  0  0  0  # atno 3841 bound_to 3832
    3.8019   -8.6441    3.8590 LP  0  0  0  0  0  0  0  0  0  0  0  0  # atno 4297 bound_to 1298
    4.9074   -9.2848    4.8758 LP  0  0  0  0  0  0  0  0  0  0  0  0  # atno 4298 bound_to 1298
    0.4912   -9.1118    7.9612 LP  0  0  0  0  0  0  0  0  0  0  0  0  # atno 4299 bound_to 2456
    2.0718   -8.7462    8.1476 LP  0  0  0  0  0  0  0  0  0  0  0  0  # atno 4300 bound_to 2456
    2.7602   -8.1589    4.3585 LP  0  0  0  0  0  0  0  0  0  0  0  0  # atno 4301 bound_to 2510
    2.4719   -9.2067    5.5774 LP  0  0  0  0  0  0  0  0  0  0  0  0  # atno 4302 bound_to 2510
   -2.8868  -17.5952   14.8235 LP  0  0  0  0  0  0  0  0  0  0  0  0  # atno 4306 bound_to 3712
   -3.5671  -16.5752   13.7450 LP  0  0  0  0  0  0  0  0  0  0  0  0  # atno 4307 bound_to 3712
    2.9667  -21.0282    8.9700 LP  0  0  0  0  0  0  0  0  0  0  0  0  # atno 4314 bound_to 3832
    1.4875  -20.4876    9.4019 LP  0  0  0  0  0  0  0  0  0  0  0  0  # atno 4315 bound_to 3832
   -5.5012  -22.1522   10.6622 LP  0  0  0  0  0  0  0  0  0  0  0  0  # atno 4318 bound_to 3762
   -4.2029  -22.4026   11.6206 LP  0  0  0  0  0  0  0  0  0  0  0  0  # atno 4319 bound_to 3762
   -5.4250   -5.0810    8.1475 LP  0  0  0  0  0  0  0  0  0  0  0  0  # atno 4320 bound_to 2467
   -3.8080   -4.8713    8.0595 LP  0  0  0  0  0  0  0  0  0  0  0  0  # atno 4321 bound_to 2467

> <Gold.Score>
     Score     S(PLP)   S(hbond)     S(cho)   S(metal)  DE(clash)   DE(tors)     intcor
     34.60     -34.60       0.00       0.00       0.00       0.00       0.00       0.00

> <Gold.PLP.Fitness>
34.5987

> <Gold.PLP.PLP>
-34.6021

> <Gold.PLP.part.hbond>
0.0000

> <Gold.PLP.part.metal>
0.0000

> <Gold.PLP.part.buried>
-4.3049

> <Gold.PLP.part.nonpolar>
-30.6144

> <Gold.PLP.part.repulsive>
0.0643

> <Gold.PLP.ligand.clash>
0.0000

> <Gold.PLP.ligand.torsion>
0.0017

> <Gold.PLP.Chemscore.Hbond>
0.0000

> <Gold.PLP.Chemscore.CHOScore>
0.0000

> <Gold.PLP.Chemscore.Metal>
0.0000

> <Gold.PLP.Chemscore.Internal.Correction>
0.0000

