#       Name:                EN300-19857_i001
#       Creating user name   fsindt
#       Creation time:       Tue Feb 28 04:05:08 2023


#       File generated by GOLD software.
#

@<TRIPOS>MOLECULE
EN300-19857_i001|acide_1|mol2|2793|dock13
    14    14     1
SMALL
USER_CHARGES


@<TRIPOS>ATOM
      1 O1          -1.1227 -10.0669   8.9428 O.co2          1 <1>               -1.0000
      2 C2          -1.3881 -10.7581   9.9160 C.2            1 <1>                0.0000
      3 O3          -2.1121 -10.3193  10.7985 O.co2          1 <1>                0.0000
      4 C4          -0.8396 -12.1236  10.0227 C.ar           1 <1>                0.0000
      5 C5          -0.9406 -12.8285  11.2245 C.ar           1 <1>                0.0000
      6 C6          -0.4255 -14.1048  11.3176 C.ar           1 <1>                0.0000
      7 C7           0.1901 -14.6874  10.2242 C.ar           1 <1>                0.0000
      8 C8           0.2946 -13.9949   9.0295 C.ar           1 <1>                0.0000
      9 Br9          1.1382 -14.8017   7.5418 Br             1 <1>                0.0000
     10 C10         -0.2217 -12.7198   8.9204 C.ar           1 <1>                0.0000
     11 H11         -1.4206 -12.3750  12.0791 H              1 <1>                0.0000
     12 H12         -0.5029 -14.6505  12.2463 H              1 <1>                0.0000
     13 H13          0.5915 -15.6870  10.3028 H              1 <1>                0.0000
     14 H14         -0.1398 -12.1804   7.9883 H              1 <1>                0.0000
@<TRIPOS>BOND
    1    1    2 ar    
    2    2    3 ar    
    3    2    4 1     
    4    4    5 ar    
    5    4   10 ar    
    6    5    6 ar    
    7    5   11 1     
    8    6    7 ar    
    9    6   12 1     
   10    7    8 ar    
   11    7   13 1     
   12    8    9 1     
   13    8   10 ar    
   14   10   14 1     
@<TRIPOS>SUBSTRUCTURE
      1 ****           1
@<TRIPOS>COMMENT
> <Gold.Version>
2022.2.0

> <Gold.Id.Protein>
3pbl|protein|mol2

> <Gold.Protein.RotatedTorsions>
[ 1303 1298 1297 1294 ] final   74.20 input  179.99 | X-H torsion
[ 2461 2456 2455 2452 ] final -114.22 input   30.03 | X-H torsion
[ 2515 2510 2509 2506 ] final   -6.52 input  -89.99 | X-H torsion
[ 3721 3712 3711 3710 ] final    7.78 input -179.91 | X-H torsion
[ 3841 3832 3831 3830 ] final   97.92 input -179.91 | X-H torsion
[ 3767 3762 3761 3758 ] final  -92.50 input  -89.99 | X-H torsion
[ 2472 2467 2466 2463 ] final  143.14 input  -89.97 | X-H torsion

> <Gold.Protein.ActiveResidues>
 VAL82   VAL86   LEU89   PHE106  VAL107  ASP110  VAL111  MET112  CYS114  THR115 
 CYS181  SER182  ILE183  PHE188  VAL189  ILE190  SER192  SER193  SER196  TRP342 
 PHE345  PHE346  HIS349  VAL350  TYR365  THR369  GLY372  TYR373 

> <Gold.Protein.RotatedAtoms>
    4.2036  -10.2281    4.7534 H   0  0  0  0  0  0  0  0  0  0  0  0  # atno 1303 bound_to 1298
    0.5162   -9.1330    7.9911 H   0  0  0  0  0  0  0  0  0  0  0  0  # atno 2461 bound_to 2456
   -5.5091   -5.2087    8.4741 H   0  0  0  0  0  0  0  0  0  0  0  0  # atno 2472 bound_to 2467
    2.5843   -7.7016    4.5422 H   0  0  0  0  0  0  0  0  0  0  0  0  # atno 2515 bound_to 2510
   -2.4744  -17.9955   14.1322 H   0  0  0  0  0  0  0  0  0  0  0  0  # atno 3721 bound_to 3712
   -5.1976  -21.9166   11.2427 H   0  0  0  0  0  0  0  0  0  0  0  0  # atno 3767 bound_to 3762
    2.9218  -20.8853    9.1816 H   0  0  0  0  0  0  0  0  0  0  0  0  # atno 3841 bound_to 3832
    3.3978   -9.1861    3.7884 LP  0  0  0  0  0  0  0  0  0  0  0  0  # atno 4297 bound_to 1298
    4.7607   -8.7068    4.5496 LP  0  0  0  0  0  0  0  0  0  0  0  0  # atno 4298 bound_to 1298
    2.0894   -8.7145    8.1221 LP  0  0  0  0  0  0  0  0  0  0  0  0  # atno 4299 bound_to 2456
    1.1319   -7.9608    7.0350 LP  0  0  0  0  0  0  0  0  0  0  0  0  # atno 4300 bound_to 2456
    2.6800   -9.2338    5.0980 LP  0  0  0  0  0  0  0  0  0  0  0  0  # atno 4301 bound_to 2510
    2.0323   -8.0640    6.0354 LP  0  0  0  0  0  0  0  0  0  0  0  0  # atno 4302 bound_to 2510
   -3.3947  -16.7501   14.5563 LP  0  0  0  0  0  0  0  0  0  0  0  0  # atno 4306 bound_to 3712
   -3.2761  -17.2000   12.9910 LP  0  0  0  0  0  0  0  0  0  0  0  0  # atno 4307 bound_to 3712
    1.4211  -20.3287    9.3007 LP  0  0  0  0  0  0  0  0  0  0  0  0  # atno 4314 bound_to 3832
    2.4331  -19.7509    8.1568 LP  0  0  0  0  0  0  0  0  0  0  0  0  # atno 4315 bound_to 3832
   -3.9141  -22.9261   11.2646 LP  0  0  0  0  0  0  0  0  0  0  0  0  # atno 4318 bound_to 3762
   -5.0158  -23.0321   10.0639 LP  0  0  0  0  0  0  0  0  0  0  0  0  # atno 4319 bound_to 3762
   -4.0681   -4.8124    7.8164 LP  0  0  0  0  0  0  0  0  0  0  0  0  # atno 4320 bound_to 2467
   -4.1399   -5.3725    9.3486 LP  0  0  0  0  0  0  0  0  0  0  0  0  # atno 4321 bound_to 2467

> <Gold.Score>
     Score     S(PLP)   S(hbond)     S(cho)   S(metal)  DE(clash)   DE(tors)     intcor
     33.50     -30.72       0.97       0.00       0.00       0.00       0.06       0.00

> <Gold.PLP.Fitness>
33.5017

> <Gold.PLP.PLP>
-30.7189

> <Gold.PLP.part.hbond>
-1.0000

> <Gold.PLP.part.metal>
0.0000

> <Gold.PLP.part.buried>
-3.1343

> <Gold.PLP.part.nonpolar>
-27.7684

> <Gold.PLP.part.repulsive>
0.1258

> <Gold.PLP.ligand.clash>
0.0000

> <Gold.PLP.ligand.torsion>
0.0594

> <Gold.PLP.Chemscore.Hbond>
0.9672

> <Gold.PLP.Chemscore.CHOScore>
0.0000

> <Gold.PLP.Chemscore.Metal>
0.0000

> <Gold.Chemscore.Hbonds>
donor molecule, donor type, donor heavy atom, donor atom, acceptor molecule, acceptor atom, score
      P1  H  2456  2461       L1     1  0.97

> <Gold.PLP.Chemscore.Internal.Correction>
0.0000

