#       Name:                EN300-19857_i001
#       Creating user name   fsindt
#       Creation time:       Tue Feb 28 04:05:05 2023


#       File generated by GOLD software.
#

@<TRIPOS>MOLECULE
EN300-19857_i001|acide_1|mol2|2793|dock1
    14    14     1
SMALL
USER_CHARGES


@<TRIPOS>ATOM
      1 O1           1.6065 -12.6950   6.3175 O.co2          1 <1>               -1.0000
      2 C2           0.9866 -11.9928   7.1037 C.2            1 <1>                0.0000
      3 O3           0.7619 -10.8219   6.8318 O.co2          1 <1>                0.0000
      4 C4           0.5046 -12.5600   8.3776 C.ar           1 <1>                0.0000
      5 C5           0.7455 -13.9014   8.6842 C.ar           1 <1>                0.0000
      6 C6           0.2920 -14.4255   9.8770 C.ar           1 <1>                0.0000
      7 C7          -0.4002 -13.6260  10.7690 C.ar           1 <1>                0.0000
      8 C8          -0.6435 -12.2955  10.4720 C.ar           1 <1>                0.0000
      9 Br9         -1.5907 -11.2126  11.6992 Br             1 <1>                0.0000
     10 C10         -0.1901 -11.7564   9.2853 C.ar           1 <1>                0.0000
     11 H11          1.2854 -14.5269   7.9889 H              1 <1>                0.0000
     12 H12          0.4775 -15.4624  10.1149 H              1 <1>                0.0000
     13 H13         -0.7529 -14.0417  11.7014 H              1 <1>                0.0000
     14 H14         -0.3803 -10.7186   9.0544 H              1 <1>                0.0000
@<TRIPOS>BOND
    1    1    2 ar    
    2    2    3 ar    
    3    2    4 1     
    4    4    5 ar    
    5    4   10 ar    
    6    5    6 ar    
    7    5   11 1     
    8    6    7 ar    
    9    6   12 1     
   10    7    8 ar    
   11    7   13 1     
   12    8    9 1     
   13    8   10 ar    
   14   10   14 1     
@<TRIPOS>SUBSTRUCTURE
      1 ****           1
@<TRIPOS>COMMENT
> <Gold.Version>
2022.2.0

> <Gold.Id.Protein>
3pbl|protein|mol2

> <Gold.Protein.RotatedTorsions>
[ 1303 1298 1297 1294 ] final   63.11 input  179.99 | X-H torsion
[ 2461 2456 2455 2452 ] final -115.13 input   30.03 | X-H torsion
[ 2515 2510 2509 2506 ] final -124.39 input  -89.99 | X-H torsion
[ 3721 3712 3711 3710 ] final  164.26 input -179.91 | X-H torsion
[ 3841 3832 3831 3830 ] final   11.82 input -179.91 | X-H torsion
[ 3767 3762 3761 3758 ] final -178.27 input  -89.99 | X-H torsion
[ 2472 2467 2466 2463 ] final   17.79 input  -89.97 | X-H torsion

> <Gold.Protein.ActiveResidues>
 VAL82   VAL86   LEU89   PHE106  VAL107  ASP110  VAL111  MET112  CYS114  THR115 
 CYS181  SER182  ILE183  PHE188  VAL189  ILE190  SER192  SER193  SER196  TRP342 
 PHE345  PHE346  HIS349  VAL350  TYR365  THR369  GLY372  TYR373 

> <Gold.Protein.RotatedAtoms>
    4.0507  -10.2654    4.6616 H   0  0  0  0  0  0  0  0  0  0  0  0  # atno 1303 bound_to 1298
    0.5250   -9.1398    8.0010 H   0  0  0  0  0  0  0  0  0  0  0  0  # atno 2461 bound_to 2456
   -3.9964   -4.8233    7.8663 H   0  0  0  0  0  0  0  0  0  0  0  0  # atno 2472 bound_to 2467
    2.6917   -9.2250    5.0661 H   0  0  0  0  0  0  0  0  0  0  0  0  # atno 2515 bound_to 2510
   -3.2735  -16.7231   13.3454 H   0  0  0  0  0  0  0  0  0  0  0  0  # atno 3721 bound_to 3712
   -4.1104  -22.5115   11.5766 H   0  0  0  0  0  0  0  0  0  0  0  0  # atno 3767 bound_to 3762
    1.8511  -20.6159    9.6034 H   0  0  0  0  0  0  0  0  0  0  0  0  # atno 3841 bound_to 3832
    3.4732   -9.0206    3.7766 LP  0  0  0  0  0  0  0  0  0  0  0  0  # atno 4297 bound_to 1298
    4.8383   -8.8350    4.6533 LP  0  0  0  0  0  0  0  0  0  0  0  0  # atno 4298 bound_to 1298
    2.0949   -8.7038    8.1133 LP  0  0  0  0  0  0  0  0  0  0  0  0  # atno 4299 bound_to 2456
    1.1176   -7.9647    7.0339 LP  0  0  0  0  0  0  0  0  0  0  0  0  # atno 4300 bound_to 2456
    2.0346   -8.0970    6.0467 LP  0  0  0  0  0  0  0  0  0  0  0  0  # atno 4301 bound_to 2510
    2.5702   -7.6767    4.5624 LP  0  0  0  0  0  0  0  0  0  0  0  0  # atno 4302 bound_to 2510
   -2.6581  -18.1842   13.5995 LP  0  0  0  0  0  0  0  0  0  0  0  0  # atno 4306 bound_to 3712
   -3.0903  -17.2350   14.8561 LP  0  0  0  0  0  0  0  0  0  0  0  0  # atno 4307 bound_to 3712
    1.9705  -19.6345    8.3390 LP  0  0  0  0  0  0  0  0  0  0  0  0  # atno 4314 bound_to 3832
    3.1206  -20.7563    8.6313 LP  0  0  0  0  0  0  0  0  0  0  0  0  # atno 4315 bound_to 3832
   -4.5457  -23.2893   10.2083 LP  0  0  0  0  0  0  0  0  0  0  0  0  # atno 4318 bound_to 3762
   -5.4710  -22.0743   10.7864 LP  0  0  0  0  0  0  0  0  0  0  0  0  # atno 4319 bound_to 3762
   -4.2192   -5.3927    9.3805 LP  0  0  0  0  0  0  0  0  0  0  0  0  # atno 4320 bound_to 2467
   -5.5012   -5.1775    8.3922 LP  0  0  0  0  0  0  0  0  0  0  0  0  # atno 4321 bound_to 2467

> <Gold.Score>
     Score     S(PLP)   S(hbond)     S(cho)   S(metal)  DE(clash)   DE(tors)     intcor
     32.32     -31.02       0.43       0.00       0.00       0.00       0.00       0.00

> <Gold.PLP.Fitness>
32.3156

> <Gold.PLP.PLP>
-31.0200

> <Gold.PLP.part.hbond>
-1.4014

> <Gold.PLP.part.metal>
0.0000

> <Gold.PLP.part.buried>
-1.1791

> <Gold.PLP.part.nonpolar>
-28.3855

> <Gold.PLP.part.repulsive>
0.1635

> <Gold.PLP.ligand.clash>
0.0000

> <Gold.PLP.ligand.torsion>
0.0002

> <Gold.PLP.Chemscore.Hbond>
0.4320

> <Gold.PLP.Chemscore.CHOScore>
0.0000

> <Gold.PLP.Chemscore.Metal>
0.0000

> <Gold.Chemscore.Hbonds>
donor molecule, donor type, donor heavy atom, donor atom, acceptor molecule, acceptor atom, score
      P1  H  2456  2461       L1     3  0.43

> <Gold.PLP.Chemscore.Internal.Correction>
0.0000

