#       Name:                EN300-19857_i001
#       Creating user name   fsindt
#       Creation time:       Tue Feb 28 04:05:10 2023


#       File generated by GOLD software.
#

@<TRIPOS>MOLECULE
EN300-19857_i001|acide_1|mol2|2793|dock18
    14    14     1
SMALL
USER_CHARGES


@<TRIPOS>ATOM
      1 O1          -2.3371 -10.7853  10.5478 O.co2          1 <1>               -1.0000
      2 C2          -1.3616 -10.9988   9.8420 C.2            1 <1>                0.0000
      3 O3          -1.0080 -10.1659   9.0193 O.co2          1 <1>                0.0000
      4 C4          -0.6077 -12.2587   9.9871 C.ar           1 <1>                0.0000
      5 C5           0.3245 -12.6344   9.0169 C.ar           1 <1>                0.0000
      6 C6           1.0259 -13.8138   9.1586 C.ar           1 <1>                0.0000
      7 C7           0.8082 -14.6243  10.2585 C.ar           1 <1>                0.0000
      8 C8          -0.1146 -14.2590  11.2243 C.ar           1 <1>                0.0000
      9 Br9         -0.4035 -15.3750  12.7233 Br             1 <1>                0.0000
     10 C10         -0.8188 -13.0789  11.0985 C.ar           1 <1>                0.0000
     11 H11          0.4954 -12.0031   8.1575 H              1 <1>                0.0000
     12 H12          1.7466 -14.1053   8.4090 H              1 <1>                0.0000
     13 H13          1.3604 -15.5465  10.3642 H              1 <1>                0.0000
     14 H14         -1.5383 -12.7948  11.8522 H              1 <1>                0.0000
@<TRIPOS>BOND
    1    1    2 ar    
    2    2    3 ar    
    3    2    4 1     
    4    4    5 ar    
    5    4   10 ar    
    6    5    6 ar    
    7    5   11 1     
    8    6    7 ar    
    9    6   12 1     
   10    7    8 ar    
   11    7   13 1     
   12    8    9 1     
   13    8   10 ar    
   14   10   14 1     
@<TRIPOS>SUBSTRUCTURE
      1 ****           1
@<TRIPOS>COMMENT
> <Gold.Version>
2022.2.0

> <Gold.Id.Protein>
3pbl|protein|mol2

> <Gold.Protein.RotatedTorsions>
[ 1303 1298 1297 1294 ] final -150.47 input  179.99 | X-H torsion
[ 2461 2456 2455 2452 ] final -123.28 input   30.03 | X-H torsion
[ 2515 2510 2509 2506 ] final  -64.89 input  -89.99 | X-H torsion
[ 3721 3712 3711 3710 ] final  178.26 input -179.91 | X-H torsion
[ 3841 3832 3831 3830 ] final -149.13 input -179.91 | X-H torsion
[ 3767 3762 3761 3758 ] final   -1.35 input  -89.99 | X-H torsion
[ 2472 2467 2466 2463 ] final -103.26 input  -89.97 | X-H torsion

> <Gold.Protein.ActiveResidues>
 VAL82   VAL86   LEU89   PHE106  VAL107  ASP110  VAL111  MET112  CYS114  THR115 
 CYS181  SER182  ILE183  PHE188  VAL189  ILE190  SER192  SER193  SER196  TRP342 
 PHE345  PHE346  HIS349  VAL350  TYR365  THR369  GLY372  TYR373 

> <Gold.Protein.RotatedAtoms>
    4.6146   -8.5715    4.3962 H   0  0  0  0  0  0  0  0  0  0  0  0  # atno 1303 bound_to 1298
    0.6123   -9.1949    8.0865 H   0  0  0  0  0  0  0  0  0  0  0  0  # atno 2461 bound_to 2456
   -4.2351   -5.3971    9.3857 H   0  0  0  0  0  0  0  0  0  0  0  0  # atno 2472 bound_to 2467
    2.8303   -8.5768    4.4064 H   0  0  0  0  0  0  0  0  0  0  0  0  # atno 2515 bound_to 2510
   -3.3179  -16.6180   13.5229 H   0  0  0  0  0  0  0  0  0  0  0  0  # atno 3721 bound_to 3712
   -5.3351  -22.7001   10.1558 H   0  0  0  0  0  0  0  0  0  0  0  0  # atno 3767 bound_to 3762
    2.6172  -19.7458    8.3499 H   0  0  0  0  0  0  0  0  0  0  0  0  # atno 3841 bound_to 3832
    4.4089  -10.1250    4.8554 LP  0  0  0  0  0  0  0  0  0  0  0  0  # atno 4297 bound_to 1298
    3.3385   -9.4251    3.8400 LP  0  0  0  0  0  0  0  0  0  0  0  0  # atno 4298 bound_to 1298
    2.1348   -8.6066    8.0302 LP  0  0  0  0  0  0  0  0  0  0  0  0  # atno 4299 bound_to 2456
    0.9904   -8.0068    7.0316 LP  0  0  0  0  0  0  0  0  0  0  0  0  # atno 4300 bound_to 2456
    2.2908   -8.9836    5.8927 LP  0  0  0  0  0  0  0  0  0  0  0  0  # atno 4301 bound_to 2510
    2.1754   -7.4386    5.3766 LP  0  0  0  0  0  0  0  0  0  0  0  0  # atno 4302 bound_to 2510
   -2.7230  -18.1034   13.3905 LP  0  0  0  0  0  0  0  0  0  0  0  0  # atno 4306 bound_to 3712
   -2.9740  -17.4372   14.8602 LP  0  0  0  0  0  0  0  0  0  0  0  0  # atno 4307 bound_to 3712
    2.7993  -21.1212    9.1569 LP  0  0  0  0  0  0  0  0  0  0  0  0  # atno 4314 bound_to 3832
    1.4067  -20.2748    9.2614 LP  0  0  0  0  0  0  0  0  0  0  0  0  # atno 4315 bound_to 3832
   -4.8304  -21.9756   11.5296 LP  0  0  0  0  0  0  0  0  0  0  0  0  # atno 4318 bound_to 3762
   -3.9621  -23.1994   10.8854 LP  0  0  0  0  0  0  0  0  0  0  0  0  # atno 4319 bound_to 3762
   -5.4987   -5.1715    8.3763 LP  0  0  0  0  0  0  0  0  0  0  0  0  # atno 4320 bound_to 2467
   -3.9830   -4.8249    7.8773 LP  0  0  0  0  0  0  0  0  0  0  0  0  # atno 4321 bound_to 2467

> <Gold.Score>
     Score     S(PLP)   S(hbond)     S(cho)   S(metal)  DE(clash)   DE(tors)     intcor
     33.03     -30.22       0.99       0.00       0.00       0.00       0.08       0.00

> <Gold.PLP.Fitness>
33.0264

> <Gold.PLP.PLP>
-30.2155

> <Gold.PLP.part.hbond>
-1.0000

> <Gold.PLP.part.metal>
0.0000

> <Gold.PLP.part.buried>
-3.5748

> <Gold.PLP.part.nonpolar>
-26.5995

> <Gold.PLP.part.repulsive>
0.0903

> <Gold.PLP.ligand.clash>
0.0000

> <Gold.PLP.ligand.torsion>
0.0815

> <Gold.PLP.Chemscore.Hbond>
0.9913

> <Gold.PLP.Chemscore.CHOScore>
0.0000

> <Gold.PLP.Chemscore.Metal>
0.0000

> <Gold.Chemscore.Hbonds>
donor molecule, donor type, donor heavy atom, donor atom, acceptor molecule, acceptor atom, score
      P1  H  2456  2461       L1     3  0.99

> <Gold.PLP.Chemscore.Internal.Correction>
0.0000

