#       Name:                EN300-19857_i001
#       Creating user name   fsindt
#       Creation time:       Tue Feb 28 04:05:09 2023


#       File generated by GOLD software.
#

@<TRIPOS>MOLECULE
EN300-19857_i001|acide_1|mol2|2793|dock15
    14    14     1
SMALL
USER_CHARGES


@<TRIPOS>ATOM
      1 O1           0.1896 -15.4612  14.0997 O.co2          1 <1>               -1.0000
      2 C2           0.4308 -15.7600  12.9387 C.2            1 <1>                0.0000
      3 O3           0.9294 -16.8458  12.6777 O.co2          1 <1>                0.0000
      4 C4           0.1148 -14.8131  11.8522 C.ar           1 <1>                0.0000
      5 C5          -0.7069 -13.7107  12.0991 C.ar           1 <1>                0.0000
      6 C6          -0.9985 -12.8293  11.0788 C.ar           1 <1>                0.0000
      7 C7          -0.4794 -13.0347   9.8130 C.ar           1 <1>                0.0000
      8 C8           0.3356 -14.1255   9.5602 C.ar           1 <1>                0.0000
      9 Br9          1.0393 -14.3958   7.8260 Br             1 <1>                0.0000
     10 C10          0.6406 -15.0118  10.5730 C.ar           1 <1>                0.0000
     11 H11         -1.1132 -13.5490  13.0866 H              1 <1>                0.0000
     12 H12         -1.6339 -11.9768  11.2686 H              1 <1>                0.0000
     13 H13         -0.7111 -12.3413   9.0181 H              1 <1>                0.0000
     14 H14          1.2763 -15.8623  10.3750 H              1 <1>                0.0000
@<TRIPOS>BOND
    1    1    2 ar    
    2    2    3 ar    
    3    2    4 1     
    4    4    5 ar    
    5    4   10 ar    
    6    5    6 ar    
    7    5   11 1     
    8    6    7 ar    
    9    6   12 1     
   10    7    8 ar    
   11    7   13 1     
   12    8    9 1     
   13    8   10 ar    
   14   10   14 1     
@<TRIPOS>SUBSTRUCTURE
      1 ****           1
@<TRIPOS>COMMENT
> <Gold.Version>
2022.2.0

> <Gold.Id.Protein>
3pbl|protein|mol2

> <Gold.Protein.RotatedTorsions>
[ 1303 1298 1297 1294 ] final -103.30 input  179.99 | X-H torsion
[ 2461 2456 2455 2452 ] final -162.42 input   30.03 | X-H torsion
[ 2515 2510 2509 2506 ] final  -24.26 input  -89.99 | X-H torsion
[ 3721 3712 3711 3710 ] final   22.64 input -179.91 | X-H torsion
[ 3841 3832 3831 3830 ] final -109.73 input -179.91 | X-H torsion
[ 3767 3762 3761 3758 ] final   12.11 input  -89.99 | X-H torsion
[ 2472 2467 2466 2463 ] final  106.94 input  -89.97 | X-H torsion

> <Gold.Protein.ActiveResidues>
 VAL82   VAL86   LEU89   PHE106  VAL107  ASP110  VAL111  MET112  CYS114  THR115 
 CYS181  SER182  ILE183  PHE188  VAL189  ILE190  SER192  SER193  SER196  TRP342 
 PHE345  PHE346  HIS349  VAL350  TYR365  THR369  GLY372  TYR373 

> <Gold.Protein.RotatedAtoms>
    4.0032   -8.5321    3.9560 H   0  0  0  0  0  0  0  0  0  0  0  0  # atno 1303 bound_to 1298
    1.1718   -9.2806    8.3674 H   0  0  0  0  0  0  0  0  0  0  0  0  # atno 2461 bound_to 2456
   -5.3038   -5.0029    7.9656 H   0  0  0  0  0  0  0  0  0  0  0  0  # atno 2472 bound_to 2467
    2.6910   -7.9374    4.4098 H   0  0  0  0  0  0  0  0  0  0  0  0  # atno 2515 bound_to 2510
   -2.4727  -18.0329   13.9112 H   0  0  0  0  0  0  0  0  0  0  0  0  # atno 3721 bound_to 3712
   -5.2012  -22.8625   10.0885 H   0  0  0  0  0  0  0  0  0  0  0  0  # atno 3767 bound_to 3762
    2.0874  -19.5798    8.5293 H   0  0  0  0  0  0  0  0  0  0  0  0  # atno 3841 bound_to 3832
    4.8572   -9.5231    4.9333 LP  0  0  0  0  0  0  0  0  0  0  0  0  # atno 4297 bound_to 1298
    3.5018  -10.0665    4.2023 LP  0  0  0  0  0  0  0  0  0  0  0  0  # atno 4298 bound_to 1298
    2.0731   -8.1727    7.5752 LP  0  0  0  0  0  0  0  0  0  0  0  0  # atno 4299 bound_to 2456
    0.4929   -8.3550    7.2057 LP  0  0  0  0  0  0  0  0  0  0  0  0  # atno 4300 bound_to 2456
    2.5711   -9.2547    5.3669 LP  0  0  0  0  0  0  0  0  0  0  0  0  # atno 4301 bound_to 2510
    2.0345   -7.8071    5.8990 LP  0  0  0  0  0  0  0  0  0  0  0  0  # atno 4302 bound_to 2510
   -3.2898  -16.9086   14.7151 LP  0  0  0  0  0  0  0  0  0  0  0  0  # atno 4306 bound_to 3712
   -3.3831  -16.9985   13.0872 LP  0  0  0  0  0  0  0  0  0  0  0  0  # atno 4307 bound_to 3712
    3.1088  -20.8080    8.6849 LP  0  0  0  0  0  0  0  0  0  0  0  0  # atno 4314 bound_to 3832
    1.7094  -20.7797    9.5260 LP  0  0  0  0  0  0  0  0  0  0  0  0  # atno 4315 bound_to 3832
   -5.0117  -21.9264   11.4131 LP  0  0  0  0  0  0  0  0  0  0  0  0  # atno 4318 bound_to 3762
   -3.9147  -23.0862   11.0692 LP  0  0  0  0  0  0  0  0  0  0  0  0  # atno 4319 bound_to 3762
   -3.6985   -4.9299    8.2553 LP  0  0  0  0  0  0  0  0  0  0  0  0  # atno 4320 bound_to 2467
   -4.7148   -5.4607    9.4181 LP  0  0  0  0  0  0  0  0  0  0  0  0  # atno 4321 bound_to 2467

> <Gold.Score>
     Score     S(PLP)   S(hbond)     S(cho)   S(metal)  DE(clash)   DE(tors)     intcor
     31.16     -28.35       0.99       0.00       0.00       0.00       0.09       0.00

> <Gold.PLP.Fitness>
31.1560

> <Gold.PLP.PLP>
-28.3524

> <Gold.PLP.part.hbond>
-1.0000

> <Gold.PLP.part.metal>
0.0000

> <Gold.PLP.part.buried>
-3.3755

> <Gold.PLP.part.nonpolar>
-25.8106

> <Gold.PLP.part.repulsive>
0.1485

> <Gold.PLP.ligand.clash>
0.0000

> <Gold.PLP.ligand.torsion>
0.0851

> <Gold.PLP.Chemscore.Hbond>
0.9913

> <Gold.PLP.Chemscore.CHOScore>
0.0000

> <Gold.PLP.Chemscore.Metal>
0.0000

> <Gold.Chemscore.Hbonds>
donor molecule, donor type, donor heavy atom, donor atom, acceptor molecule, acceptor atom, score
      P1  H  2305  2313       L1     1  0.99

> <Gold.PLP.Chemscore.Internal.Correction>
0.0000

