#       Name:                EN300-19857_i001
#       Creating user name   fsindt
#       Creation time:       Tue Feb 28 04:05:07 2023


#       File generated by GOLD software.
#

@<TRIPOS>MOLECULE
EN300-19857_i001|acide_1|mol2|2793|dock8
    14    14     1
SMALL
USER_CHARGES


@<TRIPOS>ATOM
      1 O1          -0.1507 -13.0629   7.8701 O.co2          1 <1>               -1.0000
      2 C2           0.0873 -11.9601   8.3421 C.2            1 <1>                0.0000
      3 O3           1.1033 -11.3621   8.0170 O.co2          1 <1>                0.0000
      4 C4          -0.8544 -11.3486   9.2992 C.ar           1 <1>                0.0000
      5 C5          -0.3726 -10.6275  10.3943 C.ar           1 <1>                0.0000
      6 C6          -1.2585 -10.0583  11.2854 C.ar           1 <1>                0.0000
      7 C7          -2.6217 -10.2000  11.0969 C.ar           1 <1>                0.0000
      8 C8          -3.1072 -10.9138  10.0140 C.ar           1 <1>                0.0000
      9 Br9         -4.9726 -11.1008   9.7668 Br             1 <1>                0.0000
     10 C10         -2.2325 -11.4832   9.1112 C.ar           1 <1>                0.0000
     11 H11          0.6913 -10.5161  10.5431 H              1 <1>                0.0000
     12 H12         -0.8870  -9.5009  12.1325 H              1 <1>                0.0000
     13 H13         -3.3106  -9.7522  11.7978 H              1 <1>                0.0000
     14 H14         -2.6119 -12.0397   8.2670 H              1 <1>                0.0000
@<TRIPOS>BOND
    1    1    2 ar    
    2    2    3 ar    
    3    2    4 1     
    4    4    5 ar    
    5    4   10 ar    
    6    5    6 ar    
    7    5   11 1     
    8    6    7 ar    
    9    6   12 1     
   10    7    8 ar    
   11    7   13 1     
   12    8    9 1     
   13    8   10 ar    
   14   10   14 1     
@<TRIPOS>SUBSTRUCTURE
      1 ****           1
@<TRIPOS>COMMENT
> <Gold.Version>
2022.2.0

> <Gold.Id.Protein>
3pbl|protein|mol2

> <Gold.Protein.RotatedTorsions>
[ 1303 1298 1297 1294 ] final -119.11 input  179.99 | X-H torsion
[ 2461 2456 2455 2452 ] final -148.79 input   30.03 | X-H torsion
[ 2515 2510 2509 2506 ] final  -83.37 input  -89.99 | X-H torsion
[ 3721 3712 3711 3710 ] final   11.40 input -179.91 | X-H torsion
[ 3841 3832 3831 3830 ] final   -9.16 input -179.91 | X-H torsion
[ 3767 3762 3761 3758 ] final -142.43 input  -89.99 | X-H torsion
[ 2472 2467 2466 2463 ] final -157.05 input  -89.97 | X-H torsion

> <Gold.Protein.ActiveResidues>
 VAL82   VAL86   LEU89   PHE106  VAL107  ASP110  VAL111  MET112  CYS114  THR115 
 CYS181  SER182  ILE183  PHE188  VAL189  ILE190  SER192  SER193  SER196  TRP342 
 PHE345  PHE346  HIS349  VAL350  TYR365  THR369  GLY372  TYR373 

> <Gold.Protein.RotatedAtoms>
    4.2208   -8.4785    4.0864 H   0  0  0  0  0  0  0  0  0  0  0  0  # atno 1303 bound_to 1298
    0.9589   -9.2864    8.2988 H   0  0  0  0  0  0  0  0  0  0  0  0  # atno 2461 bound_to 2456
   -5.0791   -5.4499    9.2747 H   0  0  0  0  0  0  0  0  0  0  0  0  # atno 2472 bound_to 2467
    2.8309   -8.8468    4.5430 H   0  0  0  0  0  0  0  0  0  0  0  0  # atno 2515 bound_to 2510
   -2.4713  -18.0092   14.0793 H   0  0  0  0  0  0  0  0  0  0  0  0  # atno 3721 bound_to 3712
   -4.5366  -22.1221   11.6358 H   0  0  0  0  0  0  0  0  0  0  0  0  # atno 3767 bound_to 3762
    1.6657  -20.3800    9.5069 H   0  0  0  0  0  0  0  0  0  0  0  0  # atno 3841 bound_to 3832
    4.7504   -9.7588    4.9506 LP  0  0  0  0  0  0  0  0  0  0  0  0  # atno 4297 bound_to 1298
    3.3909   -9.8844    4.0546 LP  0  0  0  0  0  0  0  0  0  0  0  0  # atno 4298 bound_to 1298
    2.1421   -8.3107    7.7372 LP  0  0  0  0  0  0  0  0  0  0  0  0  # atno 4299 bound_to 2456
    0.6367   -8.2113    7.1123 LP  0  0  0  0  0  0  0  0  0  0  0  0  # atno 4300 bound_to 2456
    2.1783   -8.7418    6.0359 LP  0  0  0  0  0  0  0  0  0  0  0  0  # atno 4301 bound_to 2510
    2.2874   -7.4103    5.0968 LP  0  0  0  0  0  0  0  0  0  0  0  0  # atno 4302 bound_to 2510
   -3.3708  -16.7852   14.5994 LP  0  0  0  0  0  0  0  0  0  0  0  0  # atno 4306 bound_to 3712
   -3.3037  -17.1492   13.0089 LP  0  0  0  0  0  0  0  0  0  0  0  0  # atno 4307 bound_to 3712
    2.2832  -19.6906    8.1956 LP  0  0  0  0  0  0  0  0  0  0  0  0  # atno 4314 bound_to 3832
    3.0220  -20.9728    8.8862 LP  0  0  0  0  0  0  0  0  0  0  0  0  # atno 4315 bound_to 3832
   -4.1169  -23.3115   10.5984 LP  0  0  0  0  0  0  0  0  0  0  0  0  # atno 4318 bound_to 3762
   -5.4738  -22.4413   10.3371 LP  0  0  0  0  0  0  0  0  0  0  0  0  # atno 4319 bound_to 3762
   -5.0022   -4.8887    7.7432 LP  0  0  0  0  0  0  0  0  0  0  0  0  # atno 4320 bound_to 2467
   -3.6356   -5.0549    8.6215 LP  0  0  0  0  0  0  0  0  0  0  0  0  # atno 4321 bound_to 2467

> <Gold.Score>
     Score     S(PLP)   S(hbond)     S(cho)   S(metal)  DE(clash)   DE(tors)     intcor
     41.27     -39.63       0.94       0.00       0.00       0.00       0.59       0.00

> <Gold.PLP.Fitness>
41.2718

> <Gold.PLP.PLP>
-39.6267

> <Gold.PLP.part.hbond>
-1.0000

> <Gold.PLP.part.metal>
0.0000

> <Gold.PLP.part.buried>
-4.2900

> <Gold.PLP.part.nonpolar>
-35.1866

> <Gold.PLP.part.repulsive>
0.0071

> <Gold.PLP.ligand.clash>
0.0000

> <Gold.PLP.ligand.torsion>
0.5934

> <Gold.PLP.Chemscore.Hbond>
0.9440

> <Gold.PLP.Chemscore.CHOScore>
0.0000

> <Gold.PLP.Chemscore.Metal>
0.0000

> <Gold.Chemscore.Hbonds>
donor molecule, donor type, donor heavy atom, donor atom, acceptor molecule, acceptor atom, score
      P1  H  2456  2461       L1     3  0.94

> <Gold.PLP.Chemscore.Internal.Correction>
0.0000

