#       Name:                EN300-19857_i001
#       Creating user name   fsindt
#       Creation time:       Tue Feb 28 04:05:09 2023


#       File generated by GOLD software.
#

@<TRIPOS>MOLECULE
EN300-19857_i001|acide_1|mol2|2793|dock16
    14    14     1
SMALL
USER_CHARGES


@<TRIPOS>ATOM
      1 O1           1.3590 -13.3571   7.3244 O.co2          1 <1>               -1.0000
      2 C2           0.9177 -12.5000   8.0768 C.2            1 <1>                0.0000
      3 O3           1.0195 -11.3172   7.7832 O.co2          1 <1>                0.0000
      4 C4           0.2571 -12.8932   9.3361 C.ar           1 <1>                0.0000
      5 C5          -0.7069 -12.0623   9.9121 C.ar           1 <1>                0.0000
      6 C6          -1.3206 -12.4358  11.0897 C.ar           1 <1>                0.0000
      7 C7          -0.9837 -13.6304  11.7007 C.ar           1 <1>                0.0000
      8 C8          -0.0287 -14.4593  11.1363 C.ar           1 <1>                0.0000
      9 Br9          0.4235 -16.0898  11.9807 Br             1 <1>                0.0000
     10 C10          0.5888 -14.1012   9.9552 C.ar           1 <1>                0.0000
     11 H11         -0.9708 -11.1292   9.4366 H              1 <1>                0.0000
     12 H12         -2.0658 -11.7939  11.5359 H              1 <1>                0.0000
     13 H13         -1.4675 -13.9177  12.6226 H              1 <1>                0.0000
     14 H14          1.3335 -14.7482   9.5157 H              1 <1>                0.0000
@<TRIPOS>BOND
    1    1    2 ar    
    2    2    3 ar    
    3    2    4 1     
    4    4    5 ar    
    5    4   10 ar    
    6    5    6 ar    
    7    5   11 1     
    8    6    7 ar    
    9    6   12 1     
   10    7    8 ar    
   11    7   13 1     
   12    8    9 1     
   13    8   10 ar    
   14   10   14 1     
@<TRIPOS>SUBSTRUCTURE
      1 ****           1
@<TRIPOS>COMMENT
> <Gold.Version>
2022.2.0

> <Gold.Id.Protein>
3pbl|protein|mol2

> <Gold.Protein.RotatedTorsions>
[ 1303 1298 1297 1294 ] final -127.03 input  179.99 | X-H torsion
[ 2461 2456 2455 2452 ] final -144.81 input   30.03 | X-H torsion
[ 2515 2510 2509 2506 ] final   45.51 input  -89.99 | X-H torsion
[ 3721 3712 3711 3710 ] final   30.73 input -179.91 | X-H torsion
[ 3841 3832 3831 3830 ] final    1.76 input -179.91 | X-H torsion
[ 3767 3762 3761 3758 ] final   10.57 input  -89.99 | X-H torsion
[ 2472 2467 2466 2463 ] final   17.15 input  -89.97 | X-H torsion

> <Gold.Protein.ActiveResidues>
 VAL82   VAL86   LEU89   PHE106  VAL107  ASP110  VAL111  MET112  CYS114  THR115 
 CYS181  SER182  ILE183  PHE188  VAL189  ILE190  SER192  SER193  SER196  TRP342 
 PHE345  PHE346  HIS349  VAL350  TYR365  THR369  GLY372  TYR373 

> <Gold.Protein.RotatedAtoms>
    4.3280   -8.4770    4.1603 H   0  0  0  0  0  0  0  0  0  0  0  0  # atno 1303 bound_to 1298
    0.8992   -9.2807    8.2723 H   0  0  0  0  0  0  0  0  0  0  0  0  # atno 2461 bound_to 2456
   -3.9882   -4.8247    7.8728 H   0  0  0  0  0  0  0  0  0  0  0  0  # atno 2472 bound_to 2467
    2.2312   -7.4123    5.2314 H   0  0  0  0  0  0  0  0  0  0  0  0  # atno 2515 bound_to 2510
   -2.4839  -18.0321   13.7896 H   0  0  0  0  0  0  0  0  0  0  0  0  # atno 3721 bound_to 3712
   -5.2181  -22.8444   10.0941 H   0  0  0  0  0  0  0  0  0  0  0  0  # atno 3767 bound_to 3762
    1.7523  -20.5067    9.5668 H   0  0  0  0  0  0  0  0  0  0  0  0  # atno 3841 bound_to 3832
    4.6783   -9.8669    4.9425 LP  0  0  0  0  0  0  0  0  0  0  0  0  # atno 4297 bound_to 1298
    3.3558   -9.7777    3.9888 LP  0  0  0  0  0  0  0  0  0  0  0  0  # atno 4298 bound_to 1298
    2.1529   -8.3546    7.7847 LP  0  0  0  0  0  0  0  0  0  0  0  0  # atno 4299 bound_to 2456
    0.6856   -8.1731    7.0913 LP  0  0  0  0  0  0  0  0  0  0  0  0  # atno 4300 bound_to 2456
    2.8359   -8.7223    4.4671 LP  0  0  0  0  0  0  0  0  0  0  0  0  # atno 4301 bound_to 2510
    2.2298   -8.8650    5.9767 LP  0  0  0  0  0  0  0  0  0  0  0  0  # atno 4302 bound_to 2510
   -3.2266  -17.0090   14.7794 LP  0  0  0  0  0  0  0  0  0  0  0  0  # atno 4306 bound_to 3712
   -3.4334  -16.8989   13.1633 LP  0  0  0  0  0  0  0  0  0  0  0  0  # atno 4307 bound_to 3712
    2.1182  -19.6489    8.2605 LP  0  0  0  0  0  0  0  0  0  0  0  0  # atno 4314 bound_to 3832
    3.0871  -20.8680    8.7521 LP  0  0  0  0  0  0  0  0  0  0  0  0  # atno 4315 bound_to 3832
   -4.9915  -21.9301   11.4281 LP  0  0  0  0  0  0  0  0  0  0  0  0  # atno 4318 bound_to 3762
   -3.9180  -23.1006   11.0485 LP  0  0  0  0  0  0  0  0  0  0  0  0  # atno 4319 bound_to 3762
   -4.2289   -5.3949    9.3838 LP  0  0  0  0  0  0  0  0  0  0  0  0  # atno 4320 bound_to 2467
   -5.4997   -5.1738    8.3824 LP  0  0  0  0  0  0  0  0  0  0  0  0  # atno 4321 bound_to 2467

> <Gold.Score>
     Score     S(PLP)   S(hbond)     S(cho)   S(metal)  DE(clash)   DE(tors)     intcor
     32.27     -30.33       0.85       0.00       0.00       0.00       0.30       0.00

> <Gold.PLP.Fitness>
32.2740

> <Gold.PLP.PLP>
-30.3283

> <Gold.PLP.part.hbond>
-1.0000

> <Gold.PLP.part.metal>
0.0000

> <Gold.PLP.part.buried>
-3.7260

> <Gold.PLP.part.nonpolar>
-26.0570

> <Gold.PLP.part.repulsive>
0.1089

> <Gold.PLP.ligand.clash>
0.0000

> <Gold.PLP.ligand.torsion>
0.2992

> <Gold.PLP.Chemscore.Hbond>
0.8480

> <Gold.PLP.Chemscore.CHOScore>
0.0000

> <Gold.PLP.Chemscore.Metal>
0.0000

> <Gold.Chemscore.Hbonds>
donor molecule, donor type, donor heavy atom, donor atom, acceptor molecule, acceptor atom, score
      P1  H  2456  2461       L1     3  0.85

> <Gold.PLP.Chemscore.Internal.Correction>
0.0000

