#       Name:                EN300-19857_i001
#       Creating user name   fsindt
#       Creation time:       Tue Feb 28 04:05:07 2023


#       File generated by GOLD software.
#

@<TRIPOS>MOLECULE
EN300-19857_i001|acide_1|mol2|2793|dock6
    14    14     1
SMALL
USER_CHARGES


@<TRIPOS>ATOM
      1 O1           0.7266 -11.1021   7.2062 O.co2          1 <1>               -1.0000
      2 C2           0.6410 -12.1785   7.7801 C.2            1 <1>                0.0000
      3 O3           1.2035 -13.1626   7.3211 O.co2          1 <1>                0.0000
      4 C4          -0.1360 -12.2887   9.0295 C.ar           1 <1>                0.0000
      5 C5          -1.0776 -11.3108   9.3588 C.ar           1 <1>                0.0000
      6 C6          -1.8007 -11.4197  10.5285 C.ar           1 <1>                0.0000
      7 C7          -1.5952 -12.4944  11.3753 C.ar           1 <1>                0.0000
      8 C8          -0.6631 -13.4676  11.0561 C.ar           1 <1>                0.0000
      9 Br9         -0.3910 -14.9319  12.2213 Br             1 <1>                0.0000
     10 C10          0.0628 -13.3746   9.8861 C.ar           1 <1>                0.0000
     11 H11         -1.2391 -10.4711   8.6991 H              1 <1>                0.0000
     12 H12         -2.5287 -10.6641  10.7841 H              1 <1>                0.0000
     13 H13         -2.1642 -12.5745  12.2897 H              1 <1>                0.0000
     14 H14          0.7895 -14.1340   9.6380 H              1 <1>                0.0000
@<TRIPOS>BOND
    1    1    2 ar    
    2    2    3 ar    
    3    2    4 1     
    4    4    5 ar    
    5    4   10 ar    
    6    5    6 ar    
    7    5   11 1     
    8    6    7 ar    
    9    6   12 1     
   10    7    8 ar    
   11    7   13 1     
   12    8    9 1     
   13    8   10 ar    
   14   10   14 1     
@<TRIPOS>SUBSTRUCTURE
      1 ****           1
@<TRIPOS>COMMENT
> <Gold.Version>
2022.2.0

> <Gold.Id.Protein>
3pbl|protein|mol2

> <Gold.Protein.RotatedTorsions>
[ 1303 1298 1297 1294 ] final   62.73 input  179.99 | X-H torsion
[ 2461 2456 2455 2452 ] final -131.45 input   30.03 | X-H torsion
[ 2515 2510 2509 2506 ] final -130.29 input  -89.99 | X-H torsion
[ 3721 3712 3711 3710 ] final   20.94 input -179.91 | X-H torsion
[ 3841 3832 3831 3830 ] final   23.46 input -179.91 | X-H torsion
[ 3767 3762 3761 3758 ] final  -12.09 input  -89.99 | X-H torsion
[ 2472 2467 2466 2463 ] final  120.77 input  -89.97 | X-H torsion

> <Gold.Protein.ActiveResidues>
 VAL82   VAL86   LEU89   PHE106  VAL107  ASP110  VAL111  MET112  CYS114  THR115 
 CYS181  SER182  ILE183  PHE188  VAL189  ILE190  SER192  SER193  SER196  TRP342 
 PHE345  PHE346  HIS349  VAL350  TYR365  THR369  GLY372  TYR373 

> <Gold.Protein.RotatedAtoms>
    4.0455  -10.2661    4.6583 H   0  0  0  0  0  0  0  0  0  0  0  0  # atno 1303 bound_to 1298
    0.7128   -9.2382    8.1648 H   0  0  0  0  0  0  0  0  0  0  0  0  # atno 2461 bound_to 2456
   -5.4229   -5.0799    8.1430 H   0  0  0  0  0  0  0  0  0  0  0  0  # atno 2472 bound_to 2467
    2.6586   -9.2452    5.1551 H   0  0  0  0  0  0  0  0  0  0  0  0  # atno 2515 bound_to 2510
   -2.4714  -18.0311   13.9369 H   0  0  0  0  0  0  0  0  0  0  0  0  # atno 3721 bound_to 3712
   -5.4176  -22.5671   10.2374 H   0  0  0  0  0  0  0  0  0  0  0  0  # atno 3767 bound_to 3762
    1.9844  -20.7288    9.6219 H   0  0  0  0  0  0  0  0  0  0  0  0  # atno 3841 bound_to 3832
    3.4762   -9.0152    3.7766 LP  0  0  0  0  0  0  0  0  0  0  0  0  # atno 4297 bound_to 1298
    4.8405   -8.8398    4.6566 LP  0  0  0  0  0  0  0  0  0  0  0  0  # atno 4298 bound_to 1298
    2.1568   -8.5090    7.9403 LP  0  0  0  0  0  0  0  0  0  0  0  0  # atno 4299 bound_to 2456
    0.8680   -8.0612    7.0431 LP  0  0  0  0  0  0  0  0  0  0  0  0  # atno 4300 bound_to 2456
    2.0295   -8.0063    6.0125 LP  0  0  0  0  0  0  0  0  0  0  0  0  # atno 4301 bound_to 2510
    2.6085   -7.7472    4.5077 LP  0  0  0  0  0  0  0  0  0  0  0  0  # atno 4302 bound_to 2510
   -3.3027  -16.8886   14.6994 LP  0  0  0  0  0  0  0  0  0  0  0  0  # atno 4306 bound_to 3712
   -3.3717  -17.0205   13.0733 LP  0  0  0  0  0  0  0  0  0  0  0  0  # atno 4307 bound_to 3712
    1.8109  -19.6470    8.4490 LP  0  0  0  0  0  0  0  0  0  0  0  0  # atno 4314 bound_to 3832
    3.1262  -20.6134    8.4999 LP  0  0  0  0  0  0  0  0  0  0  0  0  # atno 4315 bound_to 3832
   -4.6805  -22.0406   11.5963 LP  0  0  0  0  0  0  0  0  0  0  0  0  # atno 4318 bound_to 3762
   -4.0295  -23.2673   10.7372 LP  0  0  0  0  0  0  0  0  0  0  0  0  # atno 4319 bound_to 3762
   -3.8052   -4.8724    8.0633 LP  0  0  0  0  0  0  0  0  0  0  0  0  # atno 4320 bound_to 2467
   -4.4890   -5.4412    9.4328 LP  0  0  0  0  0  0  0  0  0  0  0  0  # atno 4321 bound_to 2467

> <Gold.Score>
     Score     S(PLP)   S(hbond)     S(cho)   S(metal)  DE(clash)   DE(tors)     intcor
     35.04     -33.42       0.64       0.00       0.00       0.00       0.15       0.00

> <Gold.PLP.Fitness>
35.0442

> <Gold.PLP.PLP>
-33.4239

> <Gold.PLP.part.hbond>
-1.0000

> <Gold.PLP.part.metal>
0.0000

> <Gold.PLP.part.buried>
-3.7641

> <Gold.PLP.part.nonpolar>
-28.5159

> <Gold.PLP.part.repulsive>
0.0898

> <Gold.PLP.ligand.clash>
0.0000

> <Gold.PLP.ligand.torsion>
0.1499

> <Gold.PLP.Chemscore.Hbond>
0.6400

> <Gold.PLP.Chemscore.CHOScore>
0.0000

> <Gold.PLP.Chemscore.Metal>
0.0000

> <Gold.Chemscore.Hbonds>
donor molecule, donor type, donor heavy atom, donor atom, acceptor molecule, acceptor atom, score
      P1  H  2456  2461       L1     1  0.64

> <Gold.PLP.Chemscore.Internal.Correction>
0.0000

