#       Name:                EN300-19857_i001
#       Creating user name   fsindt
#       Creation time:       Tue Feb 28 04:05:10 2023


#       File generated by GOLD software.
#

@<TRIPOS>MOLECULE
EN300-19857_i001|acide_1|mol2|2793|dock19
    14    14     1
SMALL
USER_CHARGES


@<TRIPOS>ATOM
      1 O1           0.4960 -16.3601  11.6857 O.co2          1 <1>               -1.0000
      2 C2           0.1084 -15.2492  12.0190 C.2            1 <1>                0.0000
      3 O3          -0.1015 -15.0032  13.1984 O.co2          1 <1>                0.0000
      4 C4          -0.1003 -14.2039  10.9989 C.ar           1 <1>                0.0000
      5 C5           0.6067 -14.2472   9.7949 C.ar           1 <1>                0.0000
      6 C6           0.4070 -13.2666   8.8454 C.ar           1 <1>                0.0000
      7 C7          -0.4913 -12.2416   9.0830 C.ar           1 <1>                0.0000
      8 C8          -1.1956 -12.1914  10.2743 C.ar           1 <1>                0.0000
      9 Br9         -2.4207 -10.7854  10.5877 Br             1 <1>                0.0000
     10 C10         -1.0103 -13.1691  11.2304 C.ar           1 <1>                0.0000
     11 H11          1.3085 -15.0465   9.6080 H              1 <1>                0.0000
     12 H12          0.9533 -13.2990   7.9144 H              1 <1>                0.0000
     13 H13         -0.6436 -11.4766   8.3360 H              1 <1>                0.0000
     14 H14         -1.5600 -13.1293  12.1592 H              1 <1>                0.0000
@<TRIPOS>BOND
    1    1    2 ar    
    2    2    3 ar    
    3    2    4 1     
    4    4    5 ar    
    5    4   10 ar    
    6    5    6 ar    
    7    5   11 1     
    8    6    7 ar    
    9    6   12 1     
   10    7    8 ar    
   11    7   13 1     
   12    8    9 1     
   13    8   10 ar    
   14   10   14 1     
@<TRIPOS>SUBSTRUCTURE
      1 ****           1
@<TRIPOS>COMMENT
> <Gold.Version>
2022.2.0

> <Gold.Id.Protein>
3pbl|protein|mol2

> <Gold.Protein.RotatedTorsions>
[ 1303 1298 1297 1294 ] final  153.33 input  179.99 | X-H torsion
[ 2461 2456 2455 2452 ] final   87.98 input   30.03 | X-H torsion
[ 2515 2510 2509 2506 ] final   70.52 input  -89.99 | X-H torsion
[ 3721 3712 3711 3710 ] final   -7.80 input -179.91 | X-H torsion
[ 3841 3832 3831 3830 ] final    1.11 input -179.91 | X-H torsion
[ 3767 3762 3761 3758 ] final  -54.14 input  -89.99 | X-H torsion
[ 2472 2467 2466 2463 ] final  164.54 input  -89.97 | X-H torsion

> <Gold.Protein.ActiveResidues>
 VAL82   VAL86   LEU89   PHE106  VAL107  ASP110  VAL111  MET112  CYS114  THR115 
 CYS181  SER182  ILE183  PHE188  VAL189  ILE190  SER192  SER193  SER196  TRP342 
 PHE345  PHE346  HIS349  VAL350  TYR365  THR369  GLY372  TYR373 

> <Gold.Protein.RotatedAtoms>
    4.9088   -9.2631    4.8690 H   0  0  0  0  0  0  0  0  0  0  0  0  # atno 1303 bound_to 1298
    2.1305   -8.2761    7.6986 H   0  0  0  0  0  0  0  0  0  0  0  0  # atno 2461 bound_to 2456
   -5.4597   -5.3214    8.8019 H   0  0  0  0  0  0  0  0  0  0  0  0  # atno 2472 bound_to 2467
    2.1021   -7.5335    5.5992 H   0  0  0  0  0  0  0  0  0  0  0  0  # atno 2515 bound_to 2510
   -2.5071  -17.9052   14.3464 H   0  0  0  0  0  0  0  0  0  0  0  0  # atno 3721 bound_to 3712
   -5.4869  -22.1074   10.7292 H   0  0  0  0  0  0  0  0  0  0  0  0  # atno 3767 bound_to 3762
    1.7465  -20.4994    9.5638 H   0  0  0  0  0  0  0  0  0  0  0  0  # atno 3841 bound_to 3832
    3.6687  -10.2012    4.3706 LP  0  0  0  0  0  0  0  0  0  0  0  0  # atno 4297 bound_to 1298
    3.7843   -8.6571    3.8518 LP  0  0  0  0  0  0  0  0  0  0  0  0  # atno 4298 bound_to 1298
    0.5992   -8.2436    7.1315 LP  0  0  0  0  0  0  0  0  0  0  0  0  # atno 4299 bound_to 2456
    1.0083   -9.2883    8.3180 LP  0  0  0  0  0  0  0  0  0  0  0  0  # atno 4300 bound_to 2456
    2.7983   -8.3311    4.3562 LP  0  0  0  0  0  0  0  0  0  0  0  0  # atno 4301 bound_to 2510
    2.3964   -9.1349    5.7197 LP  0  0  0  0  0  0  0  0  0  0  0  0  # atno 4302 bound_to 2510
   -3.4825  -16.6299   14.3437 LP  0  0  0  0  0  0  0  0  0  0  0  0  # atno 4306 bound_to 3712
   -3.1506  -17.4245   12.9562 LP  0  0  0  0  0  0  0  0  0  0  0  0  # atno 4307 bound_to 3712
    2.1279  -19.6507    8.2560 LP  0  0  0  0  0  0  0  0  0  0  0  0  # atno 4314 bound_to 3832
    3.0840  -20.8748    8.7600 LP  0  0  0  0  0  0  0  0  0  0  0  0  # atno 4315 bound_to 3832
   -4.1510  -22.4617   11.5991 LP  0  0  0  0  0  0  0  0  0  0  0  0  # atno 4318 bound_to 3762
   -4.4897  -23.3057   10.2428 LP  0  0  0  0  0  0  0  0  0  0  0  0  # atno 4319 bound_to 3762
   -4.3913   -4.7997    7.6826 LP  0  0  0  0  0  0  0  0  0  0  0  0  # atno 4320 bound_to 2467
   -3.8661   -5.2725    9.1547 LP  0  0  0  0  0  0  0  0  0  0  0  0  # atno 4321 bound_to 2467

> <Gold.Score>
     Score     S(PLP)   S(hbond)     S(cho)   S(metal)  DE(clash)   DE(tors)     intcor
     30.56     -31.14       0.00       0.00       0.00       0.00       0.29       0.00

> <Gold.PLP.Fitness>
30.5638

> <Gold.PLP.PLP>
-31.1392

> <Gold.PLP.part.hbond>
0.0000

> <Gold.PLP.part.metal>
0.0000

> <Gold.PLP.part.buried>
-2.8709

> <Gold.PLP.part.nonpolar>
-28.5282

> <Gold.PLP.part.repulsive>
0.1771

> <Gold.PLP.ligand.clash>
0.0000

> <Gold.PLP.ligand.torsion>
0.2877

> <Gold.PLP.Chemscore.Hbond>
0.0000

> <Gold.PLP.Chemscore.CHOScore>
0.0000

> <Gold.PLP.Chemscore.Metal>
0.0000

> <Gold.PLP.Chemscore.Internal.Correction>
0.0000

