#       Name:                EN300-19857_i001
#       Creating user name   fsindt
#       Creation time:       Tue Feb 28 04:05:08 2023


#       File generated by GOLD software.
#

@<TRIPOS>MOLECULE
EN300-19857_i001|acide_1|mol2|2793|dock10
    14    14     1
SMALL
USER_CHARGES


@<TRIPOS>ATOM
      1 O1          -1.3070 -11.6586  11.8117 O.co2          1 <1>               -1.0000
      2 C2          -1.1689 -11.3815  10.6286 C.2            1 <1>                0.0000
      3 O3          -1.7136 -10.3895  10.1653 O.co2          1 <1>                0.0000
      4 C4          -0.3403 -12.2408   9.7616 C.ar           1 <1>                0.0000
      5 C5           0.0380 -13.5149  10.1917 C.ar           1 <1>                0.0000
      6 C6           0.8130 -14.3132   9.3762 C.ar           1 <1>                0.0000
      7 C7           1.2157 -13.8550   8.1345 C.ar           1 <1>                0.0000
      8 C8           0.8452 -12.5930   7.7011 C.ar           1 <1>                0.0000
      9 Br9          1.4017 -11.9777   6.0018 Br             1 <1>                0.0000
     10 C10          0.0649 -11.7862   8.5040 C.ar           1 <1>                0.0000
     11 H11         -0.2752 -13.8740  11.1609 H              1 <1>                0.0000
     12 H12          1.1062 -15.2983   9.7079 H              1 <1>                0.0000
     13 H13          1.8223 -14.4845   7.5002 H              1 <1>                0.0000
     14 H14         -0.2236 -10.8021   8.1653 H              1 <1>                0.0000
@<TRIPOS>BOND
    1    1    2 ar    
    2    2    3 ar    
    3    2    4 1     
    4    4    5 ar    
    5    4   10 ar    
    6    5    6 ar    
    7    5   11 1     
    8    6    7 ar    
    9    6   12 1     
   10    7    8 ar    
   11    7   13 1     
   12    8    9 1     
   13    8   10 ar    
   14   10   14 1     
@<TRIPOS>SUBSTRUCTURE
      1 ****           1
@<TRIPOS>COMMENT
> <Gold.Version>
2022.2.0

> <Gold.Id.Protein>
3pbl|protein|mol2

> <Gold.Protein.RotatedTorsions>
[ 1303 1298 1297 1294 ] final   66.39 input  179.99 | X-H torsion
[ 2461 2456 2455 2452 ] final  -87.80 input   30.03 | X-H torsion
[ 2515 2510 2509 2506 ] final  -20.67 input  -89.99 | X-H torsion
[ 3721 3712 3711 3710 ] final  -11.69 input -179.91 | X-H torsion
[ 3841 3832 3831 3830 ] final  -38.26 input -179.91 | X-H torsion
[ 3767 3762 3761 3758 ] final  101.99 input  -89.99 | X-H torsion
[ 2472 2467 2466 2463 ] final  -32.34 input  -89.97 | X-H torsion

> <Gold.Protein.ActiveResidues>
 VAL82   VAL86   LEU89   PHE106  VAL107  ASP110  VAL111  MET112  CYS114  THR115 
 CYS181  SER182  ILE183  PHE188  VAL189  ILE190  SER192  SER193  SER196  TRP342 
 PHE345  PHE346  HIS349  VAL350  TYR365  THR369  GLY372  TYR373 

> <Gold.Protein.RotatedAtoms>
    4.0959  -10.2578    4.6901 H   0  0  0  0  0  0  0  0  0  0  0  0  # atno 1303 bound_to 1298
    0.3464   -8.8839    7.6830 H   0  0  0  0  0  0  0  0  0  0  0  0  # atno 2461 bound_to 2456
   -3.6350   -5.0293    8.5483 H   0  0  0  0  0  0  0  0  0  0  0  0  # atno 2472 bound_to 2467
    2.6711   -7.8859    4.4306 H   0  0  0  0  0  0  0  0  0  0  0  0  # atno 2515 bound_to 2510
   -2.5200  -17.8752   14.3953 H   0  0  0  0  0  0  0  0  0  0  0  0  # atno 3721 bound_to 3712
   -4.0765  -23.2949   10.6565 H   0  0  0  0  0  0  0  0  0  0  0  0  # atno 3767 bound_to 3762
    1.5613  -20.0353    9.2630 H   0  0  0  0  0  0  0  0  0  0  0  0  # atno 3841 bound_to 3832
    3.4482   -9.0684    3.7778 LP  0  0  0  0  0  0  0  0  0  0  0  0  # atno 4297 bound_to 1298
    4.8181   -8.7948    4.6236 LP  0  0  0  0  0  0  0  0  0  0  0  0  # atno 4298 bound_to 1298
    1.8431   -9.0039    8.3253 LP  0  0  0  0  0  0  0  0  0  0  0  0  # atno 4299 bound_to 2456
    1.5480   -7.9204    7.1398 LP  0  0  0  0  0  0  0  0  0  0  0  0  # atno 4300 bound_to 2456
    2.5946   -9.2576    5.3127 LP  0  0  0  0  0  0  0  0  0  0  0  0  # atno 4301 bound_to 2510
    2.0309   -7.8558    5.9323 LP  0  0  0  0  0  0  0  0  0  0  0  0  # atno 4302 bound_to 2510
   -3.5001  -16.6083   14.2850 LP  0  0  0  0  0  0  0  0  0  0  0  0  # atno 4306 bound_to 3712
   -3.1182  -17.4807   12.9585 LP  0  0  0  0  0  0  0  0  0  0  0  0  # atno 4307 bound_to 3712
    2.7028  -19.9194    8.1406 LP  0  0  0  0  0  0  0  0  0  0  0  0  # atno 4314 bound_to 3832
    2.7230  -21.1421    9.2229 LP  0  0  0  0  0  0  0  0  0  0  0  0  # atno 4315 bound_to 3832
   -5.4528  -22.4949   10.2924 LP  0  0  0  0  0  0  0  0  0  0  0  0  # atno 4318 bound_to 3762
   -4.5979  -22.0855   11.6221 LP  0  0  0  0  0  0  0  0  0  0  0  0  # atno 4319 bound_to 3762
   -5.0127   -5.4560    9.3141 LP  0  0  0  0  0  0  0  0  0  0  0  0  # atno 4320 bound_to 2467
   -5.0690   -4.9082    7.7768 LP  0  0  0  0  0  0  0  0  0  0  0  0  # atno 4321 bound_to 2467

> <Gold.Score>
     Score     S(PLP)   S(hbond)     S(cho)   S(metal)  DE(clash)   DE(tors)     intcor
     34.00     -34.18       0.00       0.00       0.00       0.00       0.09       0.00

> <Gold.PLP.Fitness>
34.0016

> <Gold.PLP.PLP>
-34.1828

> <Gold.PLP.part.hbond>
0.0000

> <Gold.PLP.part.metal>
0.0000

> <Gold.PLP.part.buried>
-4.4068

> <Gold.PLP.part.nonpolar>
-30.0260

> <Gold.PLP.part.repulsive>
0.0902

> <Gold.PLP.ligand.clash>
0.0000

> <Gold.PLP.ligand.torsion>
0.0906

> <Gold.PLP.Chemscore.Hbond>
0.0000

> <Gold.PLP.Chemscore.CHOScore>
0.0000

> <Gold.PLP.Chemscore.Metal>
0.0000

> <Gold.PLP.Chemscore.Internal.Correction>
0.0000

