#       Name:                EN300-19857_i001
#       Creating user name   fsindt
#       Creation time:       Tue Feb 28 04:05:06 2023


#       File generated by GOLD software.
#

@<TRIPOS>MOLECULE
EN300-19857_i001|acide_1|mol2|2793|dock2
    14    14     1
SMALL
USER_CHARGES


@<TRIPOS>ATOM
      1 O1          -2.4910  -9.3103   9.2932 O.co2          1 <1>               -1.0000
      2 C2          -2.5518 -10.3441   9.9435 C.2            1 <1>                0.0000
      3 O3          -3.4643 -10.5128  10.7401 O.co2          1 <1>                0.0000
      4 C4          -1.5276 -11.3906   9.7627 C.ar           1 <1>                0.0000
      5 C5          -1.3545 -12.3786  10.7350 C.ar           1 <1>                0.0000
      6 C6          -0.3950 -13.3540  10.5598 C.ar           1 <1>                0.0000
      7 C7           0.3954 -13.3557   9.4244 C.ar           1 <1>                0.0000
      8 C8           0.2303 -12.3794   8.4562 C.ar           1 <1>                0.0000
      9 Br9          1.3166 -12.3921   6.9084 Br             1 <1>                0.0000
     10 C10         -0.7300 -11.4012   8.6155 C.ar           1 <1>                0.0000
     11 H11         -1.9704 -12.3785  11.6221 H              1 <1>                0.0000
     12 H12         -0.2602 -14.1181  11.3110 H              1 <1>                0.0000
     13 H13          1.1451 -14.1219   9.2926 H              1 <1>                0.0000
     14 H14         -0.8581 -10.6401   7.8600 H              1 <1>                0.0000
@<TRIPOS>BOND
    1    1    2 ar    
    2    2    3 ar    
    3    2    4 1     
    4    4    5 ar    
    5    4   10 ar    
    6    5    6 ar    
    7    5   11 1     
    8    6    7 ar    
    9    6   12 1     
   10    7    8 ar    
   11    7   13 1     
   12    8    9 1     
   13    8   10 ar    
   14   10   14 1     
@<TRIPOS>SUBSTRUCTURE
      1 ****           1
@<TRIPOS>COMMENT
> <Gold.Version>
2022.2.0

> <Gold.Id.Protein>
3pbl|protein|mol2

> <Gold.Protein.RotatedTorsions>
[ 1303 1298 1297 1294 ] final -118.42 input  179.99 | X-H torsion
[ 2461 2456 2455 2452 ] final   15.75 input   30.03 | X-H torsion
[ 2515 2510 2509 2506 ] final  -13.39 input  -89.99 | X-H torsion
[ 3721 3712 3711 3710 ] final  131.50 input -179.91 | X-H torsion
[ 3841 3832 3831 3830 ] final  -82.58 input -179.91 | X-H torsion
[ 3767 3762 3761 3758 ] final   72.31 input  -89.99 | X-H torsion
[ 2472 2467 2466 2463 ] final  143.80 input  -89.97 | X-H torsion

> <Gold.Protein.ActiveResidues>
 VAL82   VAL86   LEU89   PHE106  VAL107  ASP110  VAL111  MET112  CYS114  THR115 
 CYS181  SER182  ILE183  PHE188  VAL189  ILE190  SER192  SER193  SER196  TRP342 
 PHE345  PHE346  HIS349  VAL350  TYR365  THR369  GLY372  TYR373 

> <Gold.Protein.RotatedAtoms>
    4.2113   -8.4794    4.0802 H   0  0  0  0  0  0  0  0  0  0  0  0  # atno 1303 bound_to 1298
    1.2910   -7.9284    7.0582 H   0  0  0  0  0  0  0  0  0  0  0  0  # atno 2461 bound_to 2456
   -5.5096   -5.2125    8.4844 H   0  0  0  0  0  0  0  0  0  0  0  0  # atno 2472 bound_to 2467
    2.6280   -7.7870    4.4823 H   0  0  0  0  0  0  0  0  0  0  0  0  # atno 2515 bound_to 2510
   -3.0907  -17.0846   13.0720 H   0  0  0  0  0  0  0  0  0  0  0  0  # atno 3721 bound_to 3712
   -4.4040  -23.3240   10.3025 H   0  0  0  0  0  0  0  0  0  0  0  0  # atno 3767 bound_to 3762
    1.7775  -19.6488    8.7830 H   0  0  0  0  0  0  0  0  0  0  0  0  # atno 3841 bound_to 3832
    4.7561   -9.7489    4.9508 LP  0  0  0  0  0  0  0  0  0  0  0  0  # atno 4297 bound_to 1298
    3.3947   -9.8933    4.0607 LP  0  0  0  0  0  0  0  0  0  0  0  0  # atno 4298 bound_to 1298
    0.4317   -9.0495    7.8781 LP  0  0  0  0  0  0  0  0  0  0  0  0  # atno 4299 bound_to 2456
    2.0151   -8.8300    8.2116 LP  0  0  0  0  0  0  0  0  0  0  0  0  # atno 4300 bound_to 2456
    2.6401   -9.2524    5.2022 LP  0  0  0  0  0  0  0  0  0  0  0  0  # atno 4301 bound_to 2510
    2.0286   -7.9600    5.9911 LP  0  0  0  0  0  0  0  0  0  0  0  0  # atno 4302 bound_to 2510
   -2.6097  -18.1852   14.1375 LP  0  0  0  0  0  0  0  0  0  0  0  0  # atno 4306 bound_to 3712
   -3.3497  -16.8167   14.6337 LP  0  0  0  0  0  0  0  0  0  0  0  0  # atno 4307 bound_to 3712
    3.0988  -20.4703    8.3887 LP  0  0  0  0  0  0  0  0  0  0  0  0  # atno 4314 bound_to 3832
    2.0773  -21.0377    9.5293 LP  0  0  0  0  0  0  0  0  0  0  0  0  # atno 4315 bound_to 3832
   -5.5042  -22.1661   10.6424 LP  0  0  0  0  0  0  0  0  0  0  0  0  # atno 4318 bound_to 3762
   -4.2191  -22.3852   11.6259 LP  0  0  0  0  0  0  0  0  0  0  0  0  # atno 4319 bound_to 3762
   -4.0773   -4.8113    7.8106 LP  0  0  0  0  0  0  0  0  0  0  0  0  # atno 4320 bound_to 2467
   -4.1303   -5.3698    9.3442 LP  0  0  0  0  0  0  0  0  0  0  0  0  # atno 4321 bound_to 2467

> <Gold.Score>
     Score     S(PLP)   S(hbond)     S(cho)   S(metal)  DE(clash)   DE(tors)     intcor
     34.68     -34.98       0.00       0.00       0.00       0.00       0.15       0.00

> <Gold.PLP.Fitness>
34.6767

> <Gold.PLP.PLP>
-34.9811

> <Gold.PLP.part.hbond>
-0.8954

> <Gold.PLP.part.metal>
0.0000

> <Gold.PLP.part.buried>
-4.2728

> <Gold.PLP.part.nonpolar>
-31.0180

> <Gold.PLP.part.repulsive>
0.6278

> <Gold.PLP.ligand.clash>
0.0000

> <Gold.PLP.ligand.torsion>
0.1522

> <Gold.PLP.Chemscore.Hbond>
0.0000

> <Gold.PLP.Chemscore.CHOScore>
0.0000

> <Gold.PLP.Chemscore.Metal>
0.0000

> <Gold.PLP.Chemscore.Internal.Correction>
0.0000

