#       Name:                EN300-19857_i001
#       Creating user name   fsindt
#       Creation time:       Tue Feb 28 04:05:07 2023


#       File generated by GOLD software.
#

@<TRIPOS>MOLECULE
EN300-19857_i001|acide_1|mol2|2793|dock7
    14    14     1
SMALL
USER_CHARGES


@<TRIPOS>ATOM
      1 O1          -0.7262 -10.2590   9.0076 O.co2          1 <1>               -1.0000
      2 C2          -1.1254 -11.4130   9.0725 C.2            1 <1>                0.0000
      3 O3          -2.1523 -11.6713   9.6843 O.co2          1 <1>                0.0000
      4 C4          -0.3713 -12.4929   8.4077 C.ar           1 <1>                0.0000
      5 C5           0.6576 -12.1836   7.5150 C.ar           1 <1>                0.0000
      6 C6           1.3587 -13.1981   6.8967 C.ar           1 <1>                0.0000
      7 C7           1.0450 -14.5198   7.1587 C.ar           1 <1>                0.0000
      8 C8           0.0260 -14.8346   8.0421 C.ar           1 <1>                0.0000
      9 Br9         -0.3936 -16.6449   8.3923 Br             1 <1>                0.0000
     10 C10         -0.6794 -13.8299   8.6725 C.ar           1 <1>                0.0000
     11 H11          0.9036 -11.1523   7.3090 H              1 <1>                0.0000
     12 H12          2.1541 -12.9600   6.2061 H              1 <1>                0.0000
     13 H13          1.5973 -15.3099   6.6717 H              1 <1>                0.0000
     14 H14         -1.4740 -14.0762   9.3612 H              1 <1>                0.0000
@<TRIPOS>BOND
    1    1    2 ar    
    2    2    3 ar    
    3    2    4 1     
    4    4    5 ar    
    5    4   10 ar    
    6    5    6 ar    
    7    5   11 1     
    8    6    7 ar    
    9    6   12 1     
   10    7    8 ar    
   11    7   13 1     
   12    8    9 1     
   13    8   10 ar    
   14   10   14 1     
@<TRIPOS>SUBSTRUCTURE
      1 ****           1
@<TRIPOS>COMMENT
> <Gold.Version>
2022.2.0

> <Gold.Id.Protein>
3pbl|protein|mol2

> <Gold.Protein.RotatedTorsions>
[ 1303 1298 1297 1294 ] final -133.29 input  179.99 | X-H torsion
[ 2461 2456 2455 2452 ] final -118.17 input   30.03 | X-H torsion
[ 2515 2510 2509 2506 ] final  -40.59 input  -89.99 | X-H torsion
[ 3721 3712 3711 3710 ] final  161.96 input -179.91 | X-H torsion
[ 3841 3832 3831 3830 ] final   21.04 input -179.91 | X-H torsion
[ 3767 3762 3761 3758 ] final   55.39 input  -89.99 | X-H torsion
[ 2472 2467 2466 2463 ] final  -17.60 input  -89.97 | X-H torsion

> <Gold.Protein.ActiveResidues>
 VAL82   VAL86   LEU89   PHE106  VAL107  ASP110  VAL111  MET112  CYS114  THR115 
 CYS181  SER182  ILE183  PHE188  VAL189  ILE190  SER192  SER193  SER196  TRP342 
 PHE345  PHE346  HIS349  VAL350  TYR365  THR369  GLY372  TYR373 

> <Gold.Protein.RotatedAtoms>
    4.4100   -8.4880    4.2216 H   0  0  0  0  0  0  0  0  0  0  0  0  # atno 1303 bound_to 1298
    0.5560   -9.1617    8.0337 H   0  0  0  0  0  0  0  0  0  0  0  0  # atno 2461 bound_to 2456
   -3.6741   -4.9522    8.3225 H   0  0  0  0  0  0  0  0  0  0  0  0  # atno 2472 bound_to 2467
    2.7677   -8.1883    4.3563 H   0  0  0  0  0  0  0  0  0  0  0  0  # atno 2515 bound_to 2510
   -3.2639  -16.7439   13.3190 H   0  0  0  0  0  0  0  0  0  0  0  0  # atno 3721 bound_to 3712
   -4.6331  -23.2570   10.1613 H   0  0  0  0  0  0  0  0  0  0  0  0  # atno 3767 bound_to 3762
    1.9553  -20.7068    9.6202 H   0  0  0  0  0  0  0  0  0  0  0  0  # atno 3841 bound_to 3832
    4.6137   -9.9459    4.9283 LP  0  0  0  0  0  0  0  0  0  0  0  0  # atno 4297 bound_to 1298
    3.3383   -9.6877    3.9418 LP  0  0  0  0  0  0  0  0  0  0  0  0  # atno 4298 bound_to 1298
    2.1119   -8.6676    8.0832 LP  0  0  0  0  0  0  0  0  0  0  0  0  # atno 4299 bound_to 2456
    1.0697   -7.9790    7.0314 LP  0  0  0  0  0  0  0  0  0  0  0  0  # atno 4300 bound_to 2456
    2.4589   -9.1964    5.6030 LP  0  0  0  0  0  0  0  0  0  0  0  0  # atno 4301 bound_to 2510
    2.0700   -7.6145    5.7163 LP  0  0  0  0  0  0  0  0  0  0  0  0  # atno 4302 bound_to 2510
   -2.6498  -18.1930   13.6361 LP  0  0  0  0  0  0  0  0  0  0  0  0  # atno 4306 bound_to 3712
   -3.1096  -17.2022   14.8500 LP  0  0  0  0  0  0  0  0  0  0  0  0  # atno 4307 bound_to 3712
    1.8427  -19.6418    8.4247 LP  0  0  0  0  0  0  0  0  0  0  0  0  # atno 4314 bound_to 3832
    3.1280  -20.6440    8.5262 LP  0  0  0  0  0  0  0  0  0  0  0  0  # atno 4315 bound_to 3832
   -5.4387  -22.0282   10.8739 LP  0  0  0  0  0  0  0  0  0  0  0  0  # atno 4318 bound_to 3762
   -4.0556  -22.5902   11.5356 LP  0  0  0  0  0  0  0  0  0  0  0  0  # atno 4319 bound_to 3762
   -4.7876   -5.4630    9.4022 LP  0  0  0  0  0  0  0  0  0  0  0  0  # atno 4320 bound_to 2467
   -5.2550   -4.9783    7.9145 LP  0  0  0  0  0  0  0  0  0  0  0  0  # atno 4321 bound_to 2467

> <Gold.Score>
     Score     S(PLP)   S(hbond)     S(cho)   S(metal)  DE(clash)   DE(tors)     intcor
     33.39     -30.51       1.00       0.00       0.00       0.00       0.06       0.00

> <Gold.PLP.Fitness>
33.3883

> <Gold.PLP.PLP>
-30.5070

> <Gold.PLP.part.hbond>
-1.0000

> <Gold.PLP.part.metal>
0.0000

> <Gold.PLP.part.buried>
-2.6979

> <Gold.PLP.part.nonpolar>
-27.2000

> <Gold.PLP.part.repulsive>
0.0340

> <Gold.PLP.ligand.clash>
0.0000

> <Gold.PLP.ligand.torsion>
0.0594

> <Gold.PLP.Chemscore.Hbond>
1.0000

> <Gold.PLP.Chemscore.CHOScore>
0.0000

> <Gold.PLP.Chemscore.Metal>
0.0000

> <Gold.Chemscore.Hbonds>
donor molecule, donor type, donor heavy atom, donor atom, acceptor molecule, acceptor atom, score
      P1  H  2456  2461       L1     1  1.00

> <Gold.PLP.Chemscore.Internal.Correction>
0.0000

