#       Name:                EN300-19857_i001
#       Creating user name   fsindt
#       Creation time:       Tue Feb 28 04:05:10 2023


#       File generated by GOLD software.
#

@<TRIPOS>MOLECULE
EN300-19857_i001|acide_1|mol2|2793|dock17
    14    14     1
SMALL
USER_CHARGES


@<TRIPOS>ATOM
      1 O1          -2.0888 -10.9229  10.4334 O.co2          1 <1>               -1.0000
      2 C2          -1.3109 -10.9755   9.4913 C.2            1 <1>                0.0000
      3 O3          -1.2352 -10.0395   8.7079 O.co2          1 <1>                0.0000
      4 C4          -0.4594 -12.1656   9.3033 C.ar           1 <1>                0.0000
      5 C5           0.2912 -12.3139   8.1345 C.ar           1 <1>                0.0000
      6 C6           1.0852 -13.4291   7.9649 C.ar           1 <1>                0.0000
      7 C7           1.1395 -14.3999   8.9491 C.ar           1 <1>                0.0000
      8 C8           0.3980 -14.2604  10.1103 C.ar           1 <1>                0.0000
      9 Br9          0.4805 -15.5940  11.4485 Br             1 <1>                0.0000
     10 C10         -0.3957 -13.1469  10.2959 C.ar           1 <1>                0.0000
     11 H11          0.2496 -11.5572   7.3651 H              1 <1>                0.0000
     12 H12          1.6656 -13.5449   7.0616 H              1 <1>                0.0000
     13 H13          1.7630 -15.2710   8.8109 H              1 <1>                0.0000
     14 H14         -0.9737 -13.0389  11.2019 H              1 <1>                0.0000
@<TRIPOS>BOND
    1    1    2 ar    
    2    2    3 ar    
    3    2    4 1     
    4    4    5 ar    
    5    4   10 ar    
    6    5    6 ar    
    7    5   11 1     
    8    6    7 ar    
    9    6   12 1     
   10    7    8 ar    
   11    7   13 1     
   12    8    9 1     
   13    8   10 ar    
   14   10   14 1     
@<TRIPOS>SUBSTRUCTURE
      1 ****           1
@<TRIPOS>COMMENT
> <Gold.Version>
2022.2.0

> <Gold.Id.Protein>
3pbl|protein|mol2

> <Gold.Protein.RotatedTorsions>
[ 1303 1298 1297 1294 ] final  -52.44 input  179.99 | X-H torsion
[ 2461 2456 2455 2452 ] final -108.61 input   30.03 | X-H torsion
[ 2515 2510 2509 2506 ] final  136.34 input  -89.99 | X-H torsion
[ 3721 3712 3711 3710 ] final   39.26 input -179.91 | X-H torsion
[ 3841 3832 3831 3830 ] final   63.18 input -179.91 | X-H torsion
[ 3767 3762 3761 3758 ] final   72.08 input  -89.99 | X-H torsion
[ 2472 2467 2466 2463 ] final   99.38 input  -89.97 | X-H torsion

> <Gold.Protein.ActiveResidues>
 VAL82   VAL86   LEU89   PHE106  VAL107  ASP110  VAL111  MET112  CYS114  THR115 
 CYS181  SER182  ILE183  PHE188  VAL189  ILE190  SER192  SER193  SER196  TRP342 
 PHE345  PHE346  HIS349  VAL350  TYR365  THR369  GLY372  TYR373 

> <Gold.Protein.RotatedAtoms>
    3.4397   -9.0857    3.7793 H   0  0  0  0  0  0  0  0  0  0  0  0  # atno 1303 bound_to 1298
    0.4657   -9.0880    7.9285 H   0  0  0  0  0  0  0  0  0  0  0  0  # atno 2461 bound_to 2456
   -5.2203   -4.9637    7.8823 H   0  0  0  0  0  0  0  0  0  0  0  0  # atno 2472 bound_to 2467
    2.0855   -8.4287    6.0962 H   0  0  0  0  0  0  0  0  0  0  0  0  # atno 2515 bound_to 2510
   -2.5049  -18.0151   13.6636 H   0  0  0  0  0  0  0  0  0  0  0  0  # atno 3721 bound_to 3712
   -4.4068  -23.3235   10.3004 H   0  0  0  0  0  0  0  0  0  0  0  0  # atno 3767 bound_to 3762
    2.5137  -20.9499    9.4921 H   0  0  0  0  0  0  0  0  0  0  0  0  # atno 3841 bound_to 3832
    4.8103   -8.7810    4.6128 LP  0  0  0  0  0  0  0  0  0  0  0  0  # atno 4297 bound_to 1298
    4.1124  -10.2547    4.6997 LP  0  0  0  0  0  0  0  0  0  0  0  0  # atno 4298 bound_to 1298
    2.0507   -8.7800    8.1741 LP  0  0  0  0  0  0  0  0  0  0  0  0  # atno 4299 bound_to 2456
    1.2212   -7.9403    7.0456 LP  0  0  0  0  0  0  0  0  0  0  0  0  # atno 4300 bound_to 2456
    2.4271   -7.4887    4.8057 LP  0  0  0  0  0  0  0  0  0  0  0  0  # atno 4301 bound_to 2510
    2.7843   -9.0817    4.7730 LP  0  0  0  0  0  0  0  0  0  0  0  0  # atno 4302 bound_to 2510
   -3.1568  -17.1231   14.8285 LP  0  0  0  0  0  0  0  0  0  0  0  0  # atno 4306 bound_to 3712
   -3.4789  -16.8044   13.2597 LP  0  0  0  0  0  0  0  0  0  0  0  0  # atno 4307 bound_to 3712
    1.4382  -19.9083    8.9137 LP  0  0  0  0  0  0  0  0  0  0  0  0  # atno 4314 bound_to 3832
    2.8874  -20.0967    8.1851 LP  0  0  0  0  0  0  0  0  0  0  0  0  # atno 4315 bound_to 3832
   -5.5038  -22.1640   10.6454 LP  0  0  0  0  0  0  0  0  0  0  0  0  # atno 4318 bound_to 3762
   -4.2167  -22.3878   11.6251 LP  0  0  0  0  0  0  0  0  0  0  0  0  # atno 4319 bound_to 3762
   -3.6613   -4.9665    8.3682 LP  0  0  0  0  0  0  0  0  0  0  0  0  # atno 4320 bound_to 2467
   -4.8354   -5.4634    9.3885 LP  0  0  0  0  0  0  0  0  0  0  0  0  # atno 4321 bound_to 2467

> <Gold.Score>
     Score     S(PLP)   S(hbond)     S(cho)   S(metal)  DE(clash)   DE(tors)     intcor
     32.09     -29.17       1.00       0.00       0.00       0.00       0.04       0.00

> <Gold.PLP.Fitness>
32.0911

> <Gold.PLP.PLP>
-29.1673

> <Gold.PLP.part.hbond>
-1.0000

> <Gold.PLP.part.metal>
0.0000

> <Gold.PLP.part.buried>
-1.9931

> <Gold.PLP.part.nonpolar>
-26.6665

> <Gold.PLP.part.repulsive>
0.0978

> <Gold.PLP.ligand.clash>
0.0000

> <Gold.PLP.ligand.torsion>
0.0382

> <Gold.PLP.Chemscore.Hbond>
1.0000

> <Gold.PLP.Chemscore.CHOScore>
0.0000

> <Gold.PLP.Chemscore.Metal>
0.0000

> <Gold.Chemscore.Hbonds>
donor molecule, donor type, donor heavy atom, donor atom, acceptor molecule, acceptor atom, score
      P1  H  2456  2461       L1     3  1.00

> <Gold.PLP.Chemscore.Internal.Correction>
0.0000

