#       Name:                EN300-19857_i001
#       Creating user name   fsindt
#       Creation time:       Tue Feb 28 04:05:06 2023


#       File generated by GOLD software.
#

@<TRIPOS>MOLECULE
EN300-19857_i001|acide_1|mol2|2793|dock5
    14    14     1
SMALL
USER_CHARGES


@<TRIPOS>ATOM
      1 O1           1.2568 -14.8972   7.3903 O.co2          1 <1>               -1.0000
      2 C2           0.7697 -13.7841   7.5294 C.2            1 <1>                0.0000
      3 O3           0.8391 -12.9684   6.6209 O.co2          1 <1>                0.0000
      4 C4           0.0930 -13.4275   8.7910 C.ar           1 <1>                0.0000
      5 C5           0.2332 -14.2421   9.9171 C.ar           1 <1>                0.0000
      6 C6          -0.4024 -13.9029  11.0936 C.ar           1 <1>                0.0000
      7 C7          -1.1774 -12.7589  11.1602 C.ar           1 <1>                0.0000
      8 C8          -1.3217 -11.9465  10.0480 C.ar           1 <1>                0.0000
      9 Br9         -2.3836 -10.3852  10.1512 Br             1 <1>                0.0000
     10 C10         -0.6866 -12.2703   8.8664 C.ar           1 <1>                0.0000
     11 H11          0.8375 -15.1357   9.8667 H              1 <1>                0.0000
     12 H12         -0.2949 -14.5322  11.9647 H              1 <1>                0.0000
     13 H13         -1.6726 -12.4983  12.0840 H              1 <1>                0.0000
     14 H14         -0.7996 -11.6362   7.9995 H              1 <1>                0.0000
@<TRIPOS>BOND
    1    1    2 ar    
    2    2    3 ar    
    3    2    4 1     
    4    4    5 ar    
    5    4   10 ar    
    6    5    6 ar    
    7    5   11 1     
    8    6    7 ar    
    9    6   12 1     
   10    7    8 ar    
   11    7   13 1     
   12    8    9 1     
   13    8   10 ar    
   14   10   14 1     
@<TRIPOS>SUBSTRUCTURE
      1 ****           1
@<TRIPOS>COMMENT
> <Gold.Version>
2022.2.0

> <Gold.Id.Protein>
3pbl|protein|mol2

> <Gold.Protein.RotatedTorsions>
[ 1303 1298 1297 1294 ] final   19.51 input  179.99 | X-H torsion
[ 2461 2456 2455 2452 ] final   17.70 input   30.03 | X-H torsion
[ 2515 2510 2509 2506 ] final   -5.28 input  -89.99 | X-H torsion
[ 3721 3712 3711 3710 ] final  -21.44 input -179.91 | X-H torsion
[ 3841 3832 3831 3830 ] final   27.15 input -179.91 | X-H torsion
[ 3767 3762 3761 3758 ] final -136.80 input  -89.99 | X-H torsion
[ 2472 2467 2466 2463 ] final -108.34 input  -89.97 | X-H torsion

> <Gold.Protein.ActiveResidues>
 VAL82   VAL86   LEU89   PHE106  VAL107  ASP110  VAL111  MET112  CYS114  THR115 
 CYS181  SER182  ILE183  PHE188  VAL189  ILE190  SER192  SER193  SER196  TRP342 
 PHE345  PHE346  HIS349  VAL350  TYR365  THR369  GLY372  TYR373 

> <Gold.Protein.RotatedAtoms>
    3.5265  -10.0933    4.2306 H   0  0  0  0  0  0  0  0  0  0  0  0  # atno 1303 bound_to 1298
    1.3219   -7.9245    7.0651 H   0  0  0  0  0  0  0  0  0  0  0  0  # atno 2461 bound_to 2456
   -4.3140   -5.4138    9.4079 H   0  0  0  0  0  0  0  0  0  0  0  0  # atno 2472 bound_to 2467
    2.5762   -7.6873    4.5540 H   0  0  0  0  0  0  0  0  0  0  0  0  # atno 2515 bound_to 2510
   -2.5598  -17.7883   14.5072 H   0  0  0  0  0  0  0  0  0  0  0  0  # atno 3721 bound_to 3712
   -4.6143  -22.0752   11.6172 H   0  0  0  0  0  0  0  0  0  0  0  0  # atno 3767 bound_to 3762
    2.0299  -20.7607    9.6223 H   0  0  0  0  0  0  0  0  0  0  0  0  # atno 3841 bound_to 3832
    3.9653   -8.5484    3.9354 LP  0  0  0  0  0  0  0  0  0  0  0  0  # atno 4297 bound_to 1298
    4.8705   -9.4793    4.9257 LP  0  0  0  0  0  0  0  0  0  0  0  0  # atno 4298 bound_to 1298
    0.4180   -9.0316    7.8555 LP  0  0  0  0  0  0  0  0  0  0  0  0  # atno 4299 bound_to 2456
    1.9979   -8.8518    8.2273 LP  0  0  0  0  0  0  0  0  0  0  0  0  # atno 4300 bound_to 2456
    2.6868   -9.2291    5.0795 LP  0  0  0  0  0  0  0  0  0  0  0  0  # atno 4301 bound_to 2510
    2.0336   -8.0831    6.0421 LP  0  0  0  0  0  0  0  0  0  0  0  0  # atno 4302 bound_to 2510
   -3.5357  -16.5701   14.1309 LP  0  0  0  0  0  0  0  0  0  0  0  0  # atno 4306 bound_to 3712
   -3.0366  -17.6193   12.9834 LP  0  0  0  0  0  0  0  0  0  0  0  0  # atno 4307 bound_to 3712
    1.7640  -19.6574    8.4874 LP  0  0  0  0  0  0  0  0  0  0  0  0  # atno 4314 bound_to 3832
    3.1205  -20.5661    8.4610 LP  0  0  0  0  0  0  0  0  0  0  0  0  # atno 4315 bound_to 3832
   -4.0667  -23.2901   10.6733 LP  0  0  0  0  0  0  0  0  0  0  0  0  # atno 4318 bound_to 3762
   -5.4463  -22.5096   10.2808 LP  0  0  0  0  0  0  0  0  0  0  0  0  # atno 4319 bound_to 3762
   -5.4822   -5.1422    8.2998 LP  0  0  0  0  0  0  0  0  0  0  0  0  # atno 4320 bound_to 2467
   -3.9207   -4.8376    7.9315 LP  0  0  0  0  0  0  0  0  0  0  0  0  # atno 4321 bound_to 2467

> <Gold.Score>
     Score     S(PLP)   S(hbond)     S(cho)   S(metal)  DE(clash)   DE(tors)     intcor
     33.46     -33.60       0.00       0.00       0.00       0.00       0.07       0.00

> <Gold.PLP.Fitness>
33.4587

> <Gold.PLP.PLP>
-33.6021

> <Gold.PLP.part.hbond>
0.0000

> <Gold.PLP.part.metal>
0.0000

> <Gold.PLP.part.buried>
-3.8914

> <Gold.PLP.part.nonpolar>
-30.5994

> <Gold.PLP.part.repulsive>
0.2513

> <Gold.PLP.ligand.clash>
0.0000

> <Gold.PLP.ligand.torsion>
0.0717

> <Gold.PLP.Chemscore.Hbond>
0.0000

> <Gold.PLP.Chemscore.CHOScore>
0.0000

> <Gold.PLP.Chemscore.Metal>
0.0000

> <Gold.PLP.Chemscore.Internal.Correction>
0.0000

