#       Name:                EN300-19857_i001
#       Creating user name   fsindt
#       Creation time:       Tue Feb 28 04:05:08 2023


#       File generated by GOLD software.
#

@<TRIPOS>MOLECULE
EN300-19857_i001|acide_1|mol2|2793|dock11
    14    14     1
SMALL
USER_CHARGES


@<TRIPOS>ATOM
      1 O1           1.3764 -11.6306   6.4677 O.co2          1 <1>               -1.0000
      2 C2           0.8329 -11.7995   7.5501 C.2            1 <1>                0.0000
      3 O3           0.5137 -10.8353   8.2312 O.co2          1 <1>                0.0000
      4 C4           0.5567 -13.1666   8.0314 C.ar           1 <1>                0.0000
      5 C5           0.3895 -14.2113   7.1193 C.ar           1 <1>                0.0000
      6 C6           0.1314 -15.4872   7.5761 C.ar           1 <1>                0.0000
      7 C7           0.0380 -15.7337   8.9342 C.ar           1 <1>                0.0000
      8 C8           0.2021 -14.7032   9.8447 C.ar           1 <1>                0.0000
      9 Br9          0.0722 -15.0525  11.6986 Br             1 <1>                0.0000
     10 C10          0.4669 -13.4233   9.4020 C.ar           1 <1>                0.0000
     11 H11          0.4617 -14.0205   6.0588 H              1 <1>                0.0000
     12 H12          0.0016 -16.2955   6.8717 H              1 <1>                0.0000
     13 H13         -0.1642 -16.7346   9.2860 H              1 <1>                0.0000
     14 H14          0.5947 -12.6202  10.1127 H              1 <1>                0.0000
@<TRIPOS>BOND
    1    1    2 ar    
    2    2    3 ar    
    3    2    4 1     
    4    4    5 ar    
    5    4   10 ar    
    6    5    6 ar    
    7    5   11 1     
    8    6    7 ar    
    9    6   12 1     
   10    7    8 ar    
   11    7   13 1     
   12    8    9 1     
   13    8   10 ar    
   14   10   14 1     
@<TRIPOS>SUBSTRUCTURE
      1 ****           1
@<TRIPOS>COMMENT
> <Gold.Version>
2022.2.0

> <Gold.Id.Protein>
3pbl|protein|mol2

> <Gold.Protein.RotatedTorsions>
[ 1303 1298 1297 1294 ] final  -10.86 input  179.99 | X-H torsion
[ 2461 2456 2455 2452 ] final -129.21 input   30.03 | X-H torsion
[ 2515 2510 2509 2506 ] final  -59.02 input  -89.99 | X-H torsion
[ 3721 3712 3711 3710 ] final   92.36 input -179.91 | X-H torsion
[ 3841 3832 3831 3830 ] final -174.78 input -179.91 | X-H torsion
[ 3767 3762 3761 3758 ] final -142.88 input  -89.99 | X-H torsion
[ 2472 2467 2466 2463 ] final  -19.87 input  -89.97 | X-H torsion

> <Gold.Protein.ActiveResidues>
 VAL82   VAL86   LEU89   PHE106  VAL107  ASP110  VAL111  MET112  CYS114  THR115 
 CYS181  SER182  ILE183  PHE188  VAL189  ILE190  SER192  SER193  SER196  TRP342 
 PHE345  PHE346  HIS349  VAL350  TYR365  THR369  GLY372  TYR373 

> <Gold.Protein.RotatedAtoms>
    3.3439   -9.7229    3.9599 H   0  0  0  0  0  0  0  0  0  0  0  0  # atno 1303 bound_to 1298
    0.6841   -9.2276    8.1442 H   0  0  0  0  0  0  0  0  0  0  0  0  # atno 2461 bound_to 2456
   -3.6642   -4.9634    8.3565 H   0  0  0  0  0  0  0  0  0  0  0  0  # atno 2472 bound_to 2467
    2.8214   -8.4843    4.3802 H   0  0  0  0  0  0  0  0  0  0  0  0  # atno 2515 bound_to 2510
   -2.8011  -17.5871   13.0904 H   0  0  0  0  0  0  0  0  0  0  0  0  # atno 3721 bound_to 3712
   -4.5305  -22.1260   11.6370 H   0  0  0  0  0  0  0  0  0  0  0  0  # atno 3767 bound_to 3762
    2.9102  -19.9915    8.3885 H   0  0  0  0  0  0  0  0  0  0  0  0  # atno 3841 bound_to 3832
    4.3789   -8.4824    4.1972 LP  0  0  0  0  0  0  0  0  0  0  0  0  # atno 4297 bound_to 1298
    4.6397   -9.9158    4.9346 LP  0  0  0  0  0  0  0  0  0  0  0  0  # atno 4298 bound_to 1298
    2.1526   -8.5356    7.9655 LP  0  0  0  0  0  0  0  0  0  0  0  0  # atno 4299 bound_to 2456
    0.9009   -8.0452    7.0386 LP  0  0  0  0  0  0  0  0  0  0  0  0  # atno 4300 bound_to 2456
    2.3302   -9.0474    5.8318 LP  0  0  0  0  0  0  0  0  0  0  0  0  # atno 4301 bound_to 2510
    2.1449   -7.4674    5.4637 LP  0  0  0  0  0  0  0  0  0  0  0  0  # atno 4302 bound_to 2510
   -2.7490  -17.8591   14.6719 LP  0  0  0  0  0  0  0  0  0  0  0  0  # atno 4306 bound_to 3712
   -3.5447  -16.5626   14.0781 LP  0  0  0  0  0  0  0  0  0  0  0  0  # atno 4307 bound_to 3712
    2.4513  -21.1509    9.3990 LP  0  0  0  0  0  0  0  0  0  0  0  0  # atno 4314 bound_to 3832
    1.4163  -19.9612    8.9746 LP  0  0  0  0  0  0  0  0  0  0  0  0  # atno 4315 bound_to 3832
   -4.1211  -23.3129   10.5926 LP  0  0  0  0  0  0  0  0  0  0  0  0  # atno 4318 bound_to 3762
   -5.4757  -22.4360   10.3418 LP  0  0  0  0  0  0  0  0  0  0  0  0  # atno 4319 bound_to 3762
   -4.8234   -5.4634    9.3922 LP  0  0  0  0  0  0  0  0  0  0  0  0  # atno 4320 bound_to 2467
   -5.2291   -4.9668    7.8904 LP  0  0  0  0  0  0  0  0  0  0  0  0  # atno 4321 bound_to 2467

> <Gold.Score>
     Score     S(PLP)   S(hbond)     S(cho)   S(metal)  DE(clash)   DE(tors)     intcor
     34.33     -31.92       1.00       0.00       0.00       0.00       0.29       0.00

> <Gold.PLP.Fitness>
34.3318

> <Gold.PLP.PLP>
-31.9196

> <Gold.PLP.part.hbond>
-0.8744

> <Gold.PLP.part.metal>
0.0000

> <Gold.PLP.part.buried>
-3.3203

> <Gold.PLP.part.nonpolar>
-28.1293

> <Gold.PLP.part.repulsive>
0.0623

> <Gold.PLP.ligand.clash>
0.0000

> <Gold.PLP.ligand.torsion>
0.2940

> <Gold.PLP.Chemscore.Hbond>
1.0000

> <Gold.PLP.Chemscore.CHOScore>
0.0000

> <Gold.PLP.Chemscore.Metal>
0.0000

> <Gold.Chemscore.Hbonds>
donor molecule, donor type, donor heavy atom, donor atom, acceptor molecule, acceptor atom, score
      P1  H  2456  2461       L1     3  1.00

> <Gold.PLP.Chemscore.Internal.Correction>
0.0000

