#       Name:                EN300-19857_i001
#       Creating user name   fsindt
#       Creation time:       Tue Feb 28 04:05:06 2023


#       File generated by GOLD software.
#

@<TRIPOS>MOLECULE
EN300-19857_i001|acide_1|mol2|2793|dock4
    14    14     1
SMALL
USER_CHARGES


@<TRIPOS>ATOM
      1 O1          -1.1636 -12.9448  11.3211 O.co2          1 <1>               -1.0000
      2 C2          -0.8253 -12.0598  10.5479 C.2            1 <1>                0.0000
      3 O3          -0.9884 -10.8866  10.8523 O.co2          1 <1>                0.0000
      4 C4          -0.2150 -12.4074   9.2504 C.ar           1 <1>                0.0000
      5 C5           0.1806 -11.3989   8.3684 C.ar           1 <1>                0.0000
      6 C6           0.7505 -11.7307   7.1568 C.ar           1 <1>                0.0000
      7 C7           0.9309 -13.0588   6.8139 C.ar           1 <1>                0.0000
      8 C8           0.5409 -14.0643   7.6826 C.ar           1 <1>                0.0000
      9 Br9          0.7926 -15.8761   7.2029 Br             1 <1>                0.0000
     10 C10         -0.0248 -13.7467   8.9006 C.ar           1 <1>                0.0000
     11 H11          0.0402 -10.3617   8.6344 H              1 <1>                0.0000
     12 H12          1.0564 -10.9519   6.4741 H              1 <1>                0.0000
     13 H13          1.3777 -13.3127   5.8639 H              1 <1>                0.0000
     14 H14         -0.3287 -14.5315   9.5776 H              1 <1>                0.0000
@<TRIPOS>BOND
    1    1    2 ar    
    2    2    3 ar    
    3    2    4 1     
    4    4    5 ar    
    5    4   10 ar    
    6    5    6 ar    
    7    5   11 1     
    8    6    7 ar    
    9    6   12 1     
   10    7    8 ar    
   11    7   13 1     
   12    8    9 1     
   13    8   10 ar    
   14   10   14 1     
@<TRIPOS>SUBSTRUCTURE
      1 ****           1
@<TRIPOS>COMMENT
> <Gold.Version>
2022.2.0

> <Gold.Id.Protein>
3pbl|protein|mol2

> <Gold.Protein.RotatedTorsions>
[ 1303 1298 1297 1294 ] final -153.10 input  179.99 | X-H torsion
[ 2461 2456 2455 2452 ] final   53.58 input   30.03 | X-H torsion
[ 2515 2510 2509 2506 ] final -158.60 input  -89.99 | X-H torsion
[ 3721 3712 3711 3710 ] final  173.57 input -179.91 | X-H torsion
[ 3841 3832 3831 3830 ] final  -11.38 input -179.91 | X-H torsion
[ 3767 3762 3761 3758 ] final   54.22 input  -89.99 | X-H torsion
[ 2472 2467 2466 2463 ] final -119.95 input  -89.97 | X-H torsion

> <Gold.Protein.ActiveResidues>
 VAL82   VAL86   LEU89   PHE106  VAL107  ASP110  VAL111  MET112  CYS114  THR115 
 CYS181  SER182  ILE183  PHE188  VAL189  ILE190  SER192  SER193  SER196  TRP342 
 PHE345  PHE346  HIS349  VAL350  TYR365  THR369  GLY372  TYR373 

> <Gold.Protein.RotatedAtoms>
    4.6424   -8.5909    4.4230 H   0  0  0  0  0  0  0  0  0  0  0  0  # atno 1303 bound_to 1298
    1.8423   -7.9923    7.3145 H   0  0  0  0  0  0  0  0  0  0  0  0  # atno 2461 bound_to 2456
   -4.5007   -5.4434    9.4331 H   0  0  0  0  0  0  0  0  0  0  0  0  # atno 2472 bound_to 2467
    2.4731   -9.2071    5.5753 H   0  0  0  0  0  0  0  0  0  0  0  0  # atno 2515 bound_to 2510
   -3.3057  -16.6491   13.4604 H   0  0  0  0  0  0  0  0  0  0  0  0  # atno 3721 bound_to 3712
   -4.6494  -23.2502   10.1536 H   0  0  0  0  0  0  0  0  0  0  0  0  # atno 3767 bound_to 3762
    1.6510  -20.3535    9.4923 H   0  0  0  0  0  0  0  0  0  0  0  0  # atno 3841 bound_to 3832
    4.3748  -10.1468    4.8402 LP  0  0  0  0  0  0  0  0  0  0  0  0  # atno 4297 bound_to 1298
    3.3448   -9.3839    3.8284 LP  0  0  0  0  0  0  0  0  0  0  0  0  # atno 4298 bound_to 1298
    0.3464   -8.6366    7.4358 LP  0  0  0  0  0  0  0  0  0  0  0  0  # atno 4299 bound_to 2456
    1.5493   -9.1791    8.3977 LP  0  0  0  0  0  0  0  0  0  0  0  0  # atno 4300 bound_to 2456
    2.0640   -7.6351    5.7411 LP  0  0  0  0  0  0  0  0  0  0  0  0  # atno 4301 bound_to 2510
    2.7596   -8.1565    4.3587 LP  0  0  0  0  0  0  0  0  0  0  0  0  # atno 4302 bound_to 2510
   -2.6987  -18.1355   13.4577 LP  0  0  0  0  0  0  0  0  0  0  0  0  # atno 4306 bound_to 3712
   -3.0125  -17.3692   14.8651 LP  0  0  0  0  0  0  0  0  0  0  0  0  # atno 4307 bound_to 3712
    2.3169  -19.7023    8.1852 LP  0  0  0  0  0  0  0  0  0  0  0  0  # atno 4314 bound_to 3832
    3.0052  -20.9917    8.9134 LP  0  0  0  0  0  0  0  0  0  0  0  0  # atno 4315 bound_to 3832
   -5.4317  -22.0204   10.8901 LP  0  0  0  0  0  0  0  0  0  0  0  0  # atno 4318 bound_to 3762
   -4.0463  -22.6046   11.5271 LP  0  0  0  0  0  0  0  0  0  0  0  0  # atno 4319 bound_to 3762
   -5.4179   -5.0751    8.1333 LP  0  0  0  0  0  0  0  0  0  0  0  0  # atno 4320 bound_to 2467
   -3.7983   -4.8751    8.0729 LP  0  0  0  0  0  0  0  0  0  0  0  0  # atno 4321 bound_to 2467

> <Gold.Score>
     Score     S(PLP)   S(hbond)     S(cho)   S(metal)  DE(clash)   DE(tors)     intcor
     33.38     -33.38       0.00       0.00       0.00       0.00       0.00       0.00

> <Gold.PLP.Fitness>
33.3837

> <Gold.PLP.PLP>
-33.3837

> <Gold.PLP.part.hbond>
0.0000

> <Gold.PLP.part.metal>
0.0000

> <Gold.PLP.part.buried>
-2.8314

> <Gold.PLP.part.nonpolar>
-30.8053

> <Gold.PLP.part.repulsive>
0.0740

> <Gold.PLP.ligand.clash>
0.0000

> <Gold.PLP.ligand.torsion>
0.0000

> <Gold.PLP.Chemscore.Hbond>
0.0000

> <Gold.PLP.Chemscore.CHOScore>
0.0000

> <Gold.PLP.Chemscore.Metal>
0.0000

> <Gold.PLP.Chemscore.Internal.Correction>
0.0000

