#       Name:                EN300-6730269_i001
#       Creating user name   aseyller
#       Creation time:       Fri Apr 21 18:44:03 2023


#       File generated by GOLD software.
#

@<TRIPOS>MOLECULE
EN300-6730269_i001|Sulfonylchlorides|mol2|620|dock2
    18    18     1
SMALL
USER_CHARGES


@<TRIPOS>ATOM
      1 F1          28.8632  36.6428  40.8436 F              1 <1>                0.0000
      2 C2          28.7887  36.2758  39.4956 C.3            1 <1>                0.0000
      3 F3          28.4016  34.9361  39.3848 F              1 <1>                0.0000
      4 C4          27.7830  37.1777  38.7587 C.3            1 <1>                0.0000
      5 C5          28.5739  37.9088  37.6542 C.3            1 <1>                0.0000
      6 C6          29.7961  36.9940  37.3933 C.3            1 <1>                0.0000
      7 C7          30.1558  36.4891  38.8136 C.3            1 <1>                0.0000
      8 S8          31.1687  37.9425  36.6812 S.o2           1 <1>                0.0000
      9 O9          30.7995  39.3043  36.5130 O.2            1 <1>                0.0000
     10 O10         32.3958  37.5875  37.3038 O.2            1 <1>                0.0000
     11 Cl11        31.3443  37.2375  34.7964 Cl             1 <1>                0.0000
     12 H12         26.9939  36.5715  38.3139 H              1 <1>                0.0000
     13 H13         27.3531  37.9013  39.4513 H              1 <1>                0.0000
     14 H14         27.9695  38.0045  36.7521 H              1 <1>                0.0000
     15 H15         28.8986  38.8891  38.0028 H              1 <1>                0.0000
     16 H16         29.5238  36.1608  36.7453 H              1 <1>                0.0000
     17 H17         30.7360  37.2400  39.3497 H              1 <1>                0.0000
     18 H18         30.7056  35.5497  38.7566 H              1 <1>                0.0000
@<TRIPOS>BOND
    1    1    2 1     
    2    2    3 1     
    3    2    4 1     
    4    2    7 1     
    5    4    5 1     
    6    4   12 1     
    7    4   13 1     
    8    5    6 1     
    9    5   14 1     
   10    5   15 1     
   11    6    7 1     
   12    6    8 1     
   13    6   16 1     
   14    7   17 1     
   15    7   18 1     
   16    8    9 2     
   17    8   10 2     
   18    8   11 1     
@<TRIPOS>SUBSTRUCTURE
      1 ****           1
@<TRIPOS>COMMENT
> <Gold.Version>
2022.2.0

> <Gold.Id.Protein>
1qkm|1qkm_protein|mol2

> <Gold.Protein.RotatedTorsions>
[  496  491  490  487 ] final   69.00 input  -89.99 | X-H torsion

> <Gold.Protein.ActiveResidues>
 MET295  LEU298  THR299  LEU301  ALA302  GLU305  TRP335  MET336  LEU339  MET340 
 GLY342  LEU343  ARG346  PHE356  ILE373  ILE376  PHE377  LEU380  LYS471  GLY472 
 MET473  HIS475  LEU476  LEU477  ASN478  MET479  VAL484  VAL487 

> <Gold.Protein.RotatedAtoms>
   36.6286   33.2109   42.2381 H   0  0  0  0  0  0  0  0  0  0  0  0  # atno 496  bound_to 491 

> <Gold.Score>
     Score     S(PLP)   S(hbond)     S(cho)   S(metal)  DE(clash)   DE(tors)     intcor
     30.55     -31.03       0.00       0.00       0.00       0.00       0.40       0.32

> <Gold.PLP.Fitness>
30.5526

> <Gold.PLP.PLP>
-31.0284

> <Gold.PLP.part.hbond>
0.0000

> <Gold.PLP.part.metal>
0.0000

> <Gold.PLP.part.buried>
-1.2719

> <Gold.PLP.part.nonpolar>
-29.9460

> <Gold.PLP.part.repulsive>
0.0000

> <Gold.PLP.ligand.clash>
0.0000

> <Gold.PLP.ligand.torsion>
0.3986

> <Gold.PLP.Chemscore.Hbond>
0.0000

> <Gold.PLP.Chemscore.CHOScore>
0.0000

> <Gold.PLP.Chemscore.Metal>
0.0000

> <Gold.PLP.Chemscore.Internal.Correction>
0.3215

