#       Name:                EN300-6730269_i001
#       Creating user name   aseyller
#       Creation time:       Fri Apr 21 18:44:06 2023


#       File generated by GOLD software.
#

@<TRIPOS>MOLECULE
EN300-6730269_i001|Sulfonylchlorides|mol2|620|dock14
    18    18     1
SMALL
USER_CHARGES


@<TRIPOS>ATOM
      1 F1          26.2307  35.6358  38.5011 F              1 <1>                0.0000
      2 C2          27.3201  36.2334  39.1439 C.3            1 <1>                0.0000
      3 F3          26.8893  36.9010  40.2953 F              1 <1>                0.0000
      4 C4          28.3646  35.1656  39.5134 C.3            1 <1>                0.0000
      5 C5          29.6626  35.5432  38.7699 C.3            1 <1>                0.0000
      6 C6          29.5256  37.0647  38.5152 C.3            1 <1>                0.0000
      7 C7          28.0189  37.2234  38.1893 C.3            1 <1>                0.0000
      8 S8          30.5458  37.5748  37.1047 S.o2           1 <1>                0.0000
      9 O9          31.9255  37.4073  37.4007 O.2            1 <1>                0.0000
     10 O10         29.9933  37.0900  35.8885 O.2            1 <1>                0.0000
     11 Cl11        30.2980  39.5769  37.0012 Cl             1 <1>                0.0000
     12 H12         28.5366  35.1682  40.5897 H              1 <1>                0.0000
     13 H13         28.0228  34.1818  39.1918 H              1 <1>                0.0000
     14 H14         30.5327  35.3375  39.3933 H              1 <1>                0.0000
     15 H15         29.7322  35.0030  37.8258 H              1 <1>                0.0000
     16 H16         29.7887  37.6312  39.4085 H              1 <1>                0.0000
     17 H17         27.8228  36.9547  37.1514 H              1 <1>                0.0000
     18 H18         27.6908  38.2435  38.3888 H              1 <1>                0.0000
@<TRIPOS>BOND
    1    1    2 1     
    2    2    3 1     
    3    2    4 1     
    4    2    7 1     
    5    4    5 1     
    6    4   12 1     
    7    4   13 1     
    8    5    6 1     
    9    5   14 1     
   10    5   15 1     
   11    6    7 1     
   12    6    8 1     
   13    6   16 1     
   14    7   17 1     
   15    7   18 1     
   16    8    9 2     
   17    8   10 2     
   18    8   11 1     
@<TRIPOS>SUBSTRUCTURE
      1 ****           1
@<TRIPOS>COMMENT
> <Gold.Version>
2022.2.0

> <Gold.Id.Protein>
1qkm|1qkm_protein|mol2

> <Gold.Protein.RotatedTorsions>
[  496  491  490  487 ] final -125.21 input  -89.99 | X-H torsion

> <Gold.Protein.ActiveResidues>
 MET295  LEU298  THR299  LEU301  ALA302  GLU305  TRP335  MET336  LEU339  MET340 
 GLY342  LEU343  ARG346  PHE356  ILE373  ILE376  PHE377  LEU380  LYS471  GLY472 
 MET473  HIS475  LEU476  LEU477  ASN478  MET479  VAL484  VAL487 

> <Gold.Protein.RotatedAtoms>
   37.0681   34.2873   40.7711 H   0  0  0  0  0  0  0  0  0  0  0  0  # atno 496  bound_to 491 

> <Gold.Score>
     Score     S(PLP)   S(hbond)     S(cho)   S(metal)  DE(clash)   DE(tors)     intcor
     30.68     -30.83       0.00       0.00       0.00       0.00       0.24       0.32

> <Gold.PLP.Fitness>
30.6780

> <Gold.PLP.PLP>
-30.8309

> <Gold.PLP.part.hbond>
0.0000

> <Gold.PLP.part.metal>
0.0000

> <Gold.PLP.part.buried>
-1.9744

> <Gold.PLP.part.nonpolar>
-29.2363

> <Gold.PLP.part.repulsive>
0.0109

> <Gold.PLP.ligand.clash>
0.0000

> <Gold.PLP.ligand.torsion>
0.2372

> <Gold.PLP.Chemscore.Hbond>
0.0000

> <Gold.PLP.Chemscore.CHOScore>
0.0000

> <Gold.PLP.Chemscore.Metal>
0.0000

> <Gold.PLP.Chemscore.Internal.Correction>
0.3215

