#       Name:                EN300-6730269_i001
#       Creating user name   aseyller
#       Creation time:       Fri Apr 21 18:44:06 2023


#       File generated by GOLD software.
#

@<TRIPOS>MOLECULE
EN300-6730269_i001|Sulfonylchlorides|mol2|620|dock16
    18    18     1
SMALL
USER_CHARGES


@<TRIPOS>ATOM
      1 F1          30.3026  38.4978  35.0892 F              1 <1>                0.0000
      2 C2          29.9644  38.8961  36.3869 C.3            1 <1>                0.0000
      3 F3          30.6104  40.0960  36.7031 F              1 <1>                0.0000
      4 C4          28.4402  39.0713  36.5040 C.3            1 <1>                0.0000
      5 C5          27.9636  38.0748  37.5809 C.3            1 <1>                0.0000
      6 C6          29.2223  37.8202  38.4466 C.3            1 <1>                0.0000
      7 C7          30.3620  37.7997  37.3968 C.3            1 <1>                0.0000
      8 S8          29.1043  36.2231  39.2987 S.o2           1 <1>                0.0000
      9 O9          27.8300  35.6338  39.0794 O.2            1 <1>                0.0000
     10 O10         30.2985  35.4737  39.1208 O.2            1 <1>                0.0000
     11 Cl11        29.1022  36.6982  41.2621 Cl             1 <1>                0.0000
     12 H12         28.2038  40.0910  36.8082 H              1 <1>                0.0000
     13 H13         27.9640  38.8460  35.5498 H              1 <1>                0.0000
     14 H14         27.1690  38.5152  38.1832 H              1 <1>                0.0000
     15 H15         27.6242  37.1476  37.1191 H              1 <1>                0.0000
     16 H16         29.3704  38.6302  39.1608 H              1 <1>                0.0000
     17 H17         30.4103  36.8283  36.9050 H              1 <1>                0.0000
     18 H18         31.3166  38.0392  37.8652 H              1 <1>                0.0000
@<TRIPOS>BOND
    1    1    2 1     
    2    2    3 1     
    3    2    4 1     
    4    2    7 1     
    5    4    5 1     
    6    4   12 1     
    7    4   13 1     
    8    5    6 1     
    9    5   14 1     
   10    5   15 1     
   11    6    7 1     
   12    6    8 1     
   13    6   16 1     
   14    7   17 1     
   15    7   18 1     
   16    8    9 2     
   17    8   10 2     
   18    8   11 1     
@<TRIPOS>SUBSTRUCTURE
      1 ****           1
@<TRIPOS>COMMENT
> <Gold.Version>
2022.2.0

> <Gold.Id.Protein>
1qkm|1qkm_protein|mol2

> <Gold.Protein.RotatedTorsions>
[  496  491  490  487 ] final -141.23 input  -89.99 | X-H torsion

> <Gold.Protein.ActiveResidues>
 MET295  LEU298  THR299  LEU301  ALA302  GLU305  TRP335  MET336  LEU339  MET340 
 GLY342  LEU343  ARG346  PHE356  ILE373  ILE376  PHE377  LEU380  LYS471  GLY472 
 MET473  HIS475  LEU476  LEU477  ASN478  MET479  VAL484  VAL487 

> <Gold.Protein.RotatedAtoms>
   37.1816   34.0552   40.7223 H   0  0  0  0  0  0  0  0  0  0  0  0  # atno 496  bound_to 491 

> <Gold.Score>
     Score     S(PLP)   S(hbond)     S(cho)   S(metal)  DE(clash)   DE(tors)     intcor
     33.06     -33.22       0.00       0.00       0.00       0.00       0.24       0.32

> <Gold.PLP.Fitness>
33.0640

> <Gold.PLP.PLP>
-33.2169

> <Gold.PLP.part.hbond>
0.0000

> <Gold.PLP.part.metal>
0.0000

> <Gold.PLP.part.buried>
-1.7277

> <Gold.PLP.part.nonpolar>
-31.7858

> <Gold.PLP.part.repulsive>
0.0884

> <Gold.PLP.ligand.clash>
0.0000

> <Gold.PLP.ligand.torsion>
0.2372

> <Gold.PLP.Chemscore.Hbond>
0.0000

> <Gold.PLP.Chemscore.CHOScore>
0.0000

> <Gold.PLP.Chemscore.Metal>
0.0000

> <Gold.PLP.Chemscore.Internal.Correction>
0.3215

