#       Name:                EN300-6730269_i001
#       Creating user name   aseyller
#       Creation time:       Fri Apr 21 18:44:03 2023


#       File generated by GOLD software.
#

@<TRIPOS>MOLECULE
EN300-6730269_i001|Sulfonylchlorides|mol2|620|dock3
    18    18     1
SMALL
USER_CHARGES


@<TRIPOS>ATOM
      1 F1          27.7217  35.5110  39.4606 F              1 <1>                0.0000
      2 C2          28.9413  36.1735  39.6359 C.3            1 <1>                0.0000
      3 F3          29.0153  36.7067  40.9272 F              1 <1>                0.0000
      4 C4          30.1089  35.1995  39.4002 C.3            1 <1>                0.0000
      5 C5          30.9235  35.7659  38.2188 C.3            1 <1>                0.0000
      6 C6          30.5908  37.2785  38.2185 C.3            1 <1>                0.0000
      7 C7          29.0865  37.2986  38.5905 C.3            1 <1>                0.0000
      8 S8          30.8559  37.9948  36.5731 S.o2           1 <1>                0.0000
      9 O9          32.2450  38.1310  36.3065 O.2            1 <1>                0.0000
     10 O10         29.9825  37.3992  35.6235 O.2            1 <1>                0.0000
     11 Cl11        30.1914  39.8953  36.7377 Cl             1 <1>                0.0000
     12 H12         30.7338  35.1429  40.2915 H              1 <1>                0.0000
     13 H13         29.7254  34.2106  39.1491 H              1 <1>                0.0000
     14 H14         31.9900  35.6099  38.3814 H              1 <1>                0.0000
     15 H15         30.6080  35.3056  37.2825 H              1 <1>                0.0000
     16 H16         31.1808  37.8041  38.9694 H              1 <1>                0.0000
     17 H17         28.4740  37.0859  37.7144 H              1 <1>                0.0000
     18 H18         28.8135  38.2609  39.0236 H              1 <1>                0.0000
@<TRIPOS>BOND
    1    1    2 1     
    2    2    3 1     
    3    2    4 1     
    4    2    7 1     
    5    4    5 1     
    6    4   12 1     
    7    4   13 1     
    8    5    6 1     
    9    5   14 1     
   10    5   15 1     
   11    6    7 1     
   12    6    8 1     
   13    6   16 1     
   14    7   17 1     
   15    7   18 1     
   16    8    9 2     
   17    8   10 2     
   18    8   11 1     
@<TRIPOS>SUBSTRUCTURE
      1 ****           1
@<TRIPOS>COMMENT
> <Gold.Version>
2022.2.0

> <Gold.Id.Protein>
1qkm|1qkm_protein|mol2

> <Gold.Protein.RotatedTorsions>
[  496  491  490  487 ] final  -32.30 input  -89.99 | X-H torsion

> <Gold.Protein.ActiveResidues>
 MET295  LEU298  THR299  LEU301  ALA302  GLU305  TRP335  MET336  LEU339  MET340 
 GLY342  LEU343  ARG346  PHE356  ILE373  ILE376  PHE377  LEU380  LYS471  GLY472 
 MET473  HIS475  LEU476  LEU477  ASN478  MET479  VAL484  VAL487 

> <Gold.Protein.RotatedAtoms>
   36.3248   34.5913   41.8776 H   0  0  0  0  0  0  0  0  0  0  0  0  # atno 496  bound_to 491 

> <Gold.Score>
     Score     S(PLP)   S(hbond)     S(cho)   S(metal)  DE(clash)   DE(tors)     intcor
     34.80     -34.82       0.00       0.00       0.00       0.00       0.17       0.32

> <Gold.PLP.Fitness>
34.7976

> <Gold.PLP.PLP>
-34.8231

> <Gold.PLP.part.hbond>
0.0000

> <Gold.PLP.part.metal>
0.0000

> <Gold.PLP.part.buried>
-1.3898

> <Gold.PLP.part.nonpolar>
-33.6131

> <Gold.PLP.part.repulsive>
0.0235

> <Gold.PLP.ligand.clash>
0.0000

> <Gold.PLP.ligand.torsion>
0.1735

> <Gold.PLP.Chemscore.Hbond>
0.0000

> <Gold.PLP.Chemscore.CHOScore>
0.0000

> <Gold.PLP.Chemscore.Metal>
0.0000

> <Gold.PLP.Chemscore.Internal.Correction>
0.3215

