#       Name:                EN300-6730269_i001
#       Creating user name   aseyller
#       Creation time:       Fri Apr 21 18:44:07 2023


#       File generated by GOLD software.
#

@<TRIPOS>MOLECULE
EN300-6730269_i001|Sulfonylchlorides|mol2|620|dock19
    18    18     1
SMALL
USER_CHARGES


@<TRIPOS>ATOM
      1 F1          31.0216  37.2565  34.8893 F              1 <1>                0.0000
      2 C2          31.0887  37.8062  36.1740 C.3            1 <1>                0.0000
      3 F3          32.3935  38.2318  36.4451 F              1 <1>                0.0000
      4 C4          30.1129  38.9901  36.2923 C.3            1 <1>                0.0000
      5 C5          29.1094  38.6244  37.4054 C.3            1 <1>                0.0000
      6 C6          29.8658  37.5884  38.2734 C.3            1 <1>                0.0000
      7 C7          30.6454  36.7620  37.2194 C.3            1 <1>                0.0000
      8 S8          28.6997  36.5363  39.1812 S.o2           1 <1>                0.0000
      9 O9          27.3683  37.0010  39.0059 O.2            1 <1>                0.0000
     10 O10         29.0258  35.1643  39.0063 O.2            1 <1>                0.0000
     11 Cl11        29.1022  36.8999  41.1270 Cl             1 <1>                0.0000
     12 H12         30.6558  39.8960  36.5619 H              1 <1>                0.0000
     13 H13         29.5870  39.1363  35.3488 H              1 <1>                0.0000
     14 H14         28.8570  39.5052  37.9959 H              1 <1>                0.0000
     15 H15         28.2106  38.1802  36.9778 H              1 <1>                0.0000
     16 H16         30.5525  38.0859  38.9583 H              1 <1>                0.0000
     17 H17         29.9949  36.0170  36.7615 H              1 <1>                0.0000
     18 H18         31.5129  36.2843  37.6747 H              1 <1>                0.0000
@<TRIPOS>BOND
    1    1    2 1     
    2    2    3 1     
    3    2    4 1     
    4    2    7 1     
    5    4    5 1     
    6    4   12 1     
    7    4   13 1     
    8    5    6 1     
    9    5   14 1     
   10    5   15 1     
   11    6    7 1     
   12    6    8 1     
   13    6   16 1     
   14    7   17 1     
   15    7   18 1     
   16    8    9 2     
   17    8   10 2     
   18    8   11 1     
@<TRIPOS>SUBSTRUCTURE
      1 ****           1
@<TRIPOS>COMMENT
> <Gold.Version>
2022.2.0

> <Gold.Id.Protein>
1qkm|1qkm_protein|mol2

> <Gold.Protein.RotatedTorsions>
[  496  491  490  487 ] final  -58.12 input  -89.99 | X-H torsion

> <Gold.Protein.ActiveResidues>
 MET295  LEU298  THR299  LEU301  ALA302  GLU305  TRP335  MET336  LEU339  MET340 
 GLY342  LEU343  ARG346  PHE356  ILE373  ILE376  PHE377  LEU380  LYS471  GLY472 
 MET473  HIS475  LEU476  LEU477  ASN478  MET479  VAL484  VAL487 

> <Gold.Protein.RotatedAtoms>
   36.4827   34.7289   41.5119 H   0  0  0  0  0  0  0  0  0  0  0  0  # atno 496  bound_to 491 

> <Gold.Score>
     Score     S(PLP)   S(hbond)     S(cho)   S(metal)  DE(clash)   DE(tors)     intcor
     30.88     -30.99       0.00       0.00       0.00       0.00       0.21       0.32

> <Gold.PLP.Fitness>
30.8814

> <Gold.PLP.PLP>
-30.9886

> <Gold.PLP.part.hbond>
0.0000

> <Gold.PLP.part.metal>
0.0000

> <Gold.PLP.part.buried>
-2.2626

> <Gold.PLP.part.nonpolar>
-29.1592

> <Gold.PLP.part.repulsive>
0.0432

> <Gold.PLP.ligand.clash>
0.0000

> <Gold.PLP.ligand.torsion>
0.2143

> <Gold.PLP.Chemscore.Hbond>
0.0000

> <Gold.PLP.Chemscore.CHOScore>
0.0000

> <Gold.PLP.Chemscore.Metal>
0.0000

> <Gold.PLP.Chemscore.Internal.Correction>
0.3215

