#       Name:                EN300-6730269_i001
#       Creating user name   aseyller
#       Creation time:       Fri Apr 21 18:44:06 2023


#       File generated by GOLD software.
#

@<TRIPOS>MOLECULE
EN300-6730269_i001|Sulfonylchlorides|mol2|620|dock15
    18    18     1
SMALL
USER_CHARGES


@<TRIPOS>ATOM
      1 F1          27.5135  36.7516  39.0702 F              1 <1>                0.0000
      2 C2          28.7588  36.3595  39.5728 C.3            1 <1>                0.0000
      3 F3          28.8589  36.7028  40.9253 F              1 <1>                0.0000
      4 C4          28.9431  34.8418  39.3992 C.3            1 <1>                0.0000
      5 C5          30.1793  34.6484  38.4968 C.3            1 <1>                0.0000
      6 C6          30.9935  35.9526  38.6833 C.3            1 <1>                0.0000
      7 C7          29.8894  37.0365  38.7706 C.3            1 <1>                0.0000
      8 S8          32.0720  36.2470  37.2547 S.o2           1 <1>                0.0000
      9 O9          32.6991  37.5180  37.3569 O.2            1 <1>                0.0000
     10 O10         32.8248  35.0810  36.9496 O.2            1 <1>                0.0000
     11 Cl11        30.8019  36.4421  35.6960 Cl             1 <1>                0.0000
     12 H12         29.1115  34.3727  40.3686 H              1 <1>                0.0000
     13 H13         28.0623  34.4107  38.9233 H              1 <1>                0.0000
     14 H14         30.7597  33.7860  38.8247 H              1 <1>                0.0000
     15 H15         29.8773  34.5327  37.4559 H              1 <1>                0.0000
     16 H16         31.5734  35.9175  39.6056 H              1 <1>                0.0000
     17 H17         29.5404  37.3067  37.7741 H              1 <1>                0.0000
     18 H18         30.2590  37.9159  39.2980 H              1 <1>                0.0000
@<TRIPOS>BOND
    1    1    2 1     
    2    2    3 1     
    3    2    4 1     
    4    2    7 1     
    5    4    5 1     
    6    4   12 1     
    7    4   13 1     
    8    5    6 1     
    9    5   14 1     
   10    5   15 1     
   11    6    7 1     
   12    6    8 1     
   13    6   16 1     
   14    7   17 1     
   15    7   18 1     
   16    8    9 2     
   17    8   10 2     
   18    8   11 1     
@<TRIPOS>SUBSTRUCTURE
      1 ****           1
@<TRIPOS>COMMENT
> <Gold.Version>
2022.2.0

> <Gold.Id.Protein>
1qkm|1qkm_protein|mol2

> <Gold.Protein.RotatedTorsions>
[  496  491  490  487 ] final  -25.86 input  -89.99 | X-H torsion

> <Gold.Protein.ActiveResidues>
 MET295  LEU298  THR299  LEU301  ALA302  GLU305  TRP335  MET336  LEU339  MET340 
 GLY342  LEU343  ARG346  PHE356  ILE373  ILE376  PHE377  LEU380  LYS471  GLY472 
 MET473  HIS475  LEU476  LEU477  ASN478  MET479  VAL484  VAL487 

> <Gold.Protein.RotatedAtoms>
   36.2990   34.5317   41.9615 H   0  0  0  0  0  0  0  0  0  0  0  0  # atno 496  bound_to 491 

> <Gold.Score>
     Score     S(PLP)   S(hbond)     S(cho)   S(metal)  DE(clash)   DE(tors)     intcor
     31.03     -31.13       0.00       0.00       0.00       0.00       0.21       0.32

> <Gold.PLP.Fitness>
31.0283

> <Gold.PLP.PLP>
-31.1313

> <Gold.PLP.part.hbond>
0.0000

> <Gold.PLP.part.metal>
0.0000

> <Gold.PLP.part.buried>
-1.6830

> <Gold.PLP.part.nonpolar>
-29.9407

> <Gold.PLP.part.repulsive>
0.0000

> <Gold.PLP.ligand.clash>
0.0000

> <Gold.PLP.ligand.torsion>
0.2122

> <Gold.PLP.Chemscore.Hbond>
0.0000

> <Gold.PLP.Chemscore.CHOScore>
0.0000

> <Gold.PLP.Chemscore.Metal>
0.0000

> <Gold.PLP.Chemscore.Internal.Correction>
0.3215

