#       Name:                EN300-6730269_i001
#       Creating user name   aseyller
#       Creation time:       Fri Apr 21 18:44:05 2023


#       File generated by GOLD software.
#

@<TRIPOS>MOLECULE
EN300-6730269_i001|Sulfonylchlorides|mol2|620|dock12
    18    18     1
SMALL
USER_CHARGES


@<TRIPOS>ATOM
      1 F1          29.1001  36.6994  40.8199 F              1 <1>                0.0000
      2 C2          29.0911  36.2597  39.4919 C.3            1 <1>                0.0000
      3 F3          28.3295  35.0916  39.3794 F              1 <1>                0.0000
      4 C4          28.5142  37.3550  38.5780 C.3            1 <1>                0.0000
      5 C5          29.6266  37.7222  37.5740 C.3            1 <1>                0.0000
      6 C6          30.5323  36.4665  37.5346 C.3            1 <1>                0.0000
      7 C7          30.5337  35.9983  39.0119 C.3            1 <1>                0.0000
      8 S8          32.2094  36.9001  36.9960 S.o2           1 <1>                0.0000
      9 O9          32.2578  38.2496  36.5537 O.2            1 <1>                0.0000
     10 O10         33.1730  36.3933  37.9092 O.2            1 <1>                0.0000
     11 Cl11        32.4958  35.8149  35.3165 Cl             1 <1>                0.0000
     12 H12         27.6415  36.9762  38.0461 H              1 <1>                0.0000
     13 H13         28.2413  38.2292  39.1691 H              1 <1>                0.0000
     14 H14         29.2022  37.9176  36.5892 H              1 <1>                0.0000
     15 H15         30.1884  38.5870  37.9268 H              1 <1>                0.0000
     16 H16         30.1036  35.7010  36.8879 H              1 <1>                0.0000
     17 H17         31.2420  36.5845  39.5972 H              1 <1>                0.0000
     18 H18         30.7715  34.9365  39.0754 H              1 <1>                0.0000
@<TRIPOS>BOND
    1    1    2 1     
    2    2    3 1     
    3    2    4 1     
    4    2    7 1     
    5    4    5 1     
    6    4   12 1     
    7    4   13 1     
    8    5    6 1     
    9    5   14 1     
   10    5   15 1     
   11    6    7 1     
   12    6    8 1     
   13    6   16 1     
   14    7   17 1     
   15    7   18 1     
   16    8    9 2     
   17    8   10 2     
   18    8   11 1     
@<TRIPOS>SUBSTRUCTURE
      1 ****           1
@<TRIPOS>COMMENT
> <Gold.Version>
2022.2.0

> <Gold.Id.Protein>
1qkm|1qkm_protein|mol2

> <Gold.Protein.RotatedTorsions>
[  496  491  490  487 ] final  121.83 input  -89.99 | X-H torsion

> <Gold.Protein.ActiveResidues>
 MET295  LEU298  THR299  LEU301  ALA302  GLU305  TRP335  MET336  LEU339  MET340 
 GLY342  LEU343  ARG346  PHE356  ILE373  ILE376  PHE377  LEU380  LYS471  GLY472 
 MET473  HIS475  LEU476  LEU477  ASN478  MET479  VAL484  VAL487 

> <Gold.Protein.RotatedAtoms>
   37.0945   32.9463   41.5922 H   0  0  0  0  0  0  0  0  0  0  0  0  # atno 496  bound_to 491 

> <Gold.Score>
     Score     S(PLP)   S(hbond)     S(cho)   S(metal)  DE(clash)   DE(tors)     intcor
     32.37     -32.42       0.00       0.00       0.00       0.00       0.19       0.32

> <Gold.PLP.Fitness>
32.3690

> <Gold.PLP.PLP>
-32.4190

> <Gold.PLP.part.hbond>
0.0000

> <Gold.PLP.part.metal>
0.0000

> <Gold.PLP.part.buried>
-1.6846

> <Gold.PLP.part.nonpolar>
-31.3686

> <Gold.PLP.part.repulsive>
0.0382

> <Gold.PLP.ligand.clash>
0.0000

> <Gold.PLP.ligand.torsion>
0.1858

> <Gold.PLP.Chemscore.Hbond>
0.0000

> <Gold.PLP.Chemscore.CHOScore>
0.0000

> <Gold.PLP.Chemscore.Metal>
0.0000

> <Gold.PLP.Chemscore.Internal.Correction>
0.3215

