#       Name:                EN300-6730269_i001
#       Creating user name   aseyller
#       Creation time:       Fri Apr 21 18:44:06 2023


#       File generated by GOLD software.
#

@<TRIPOS>MOLECULE
EN300-6730269_i001|Sulfonylchlorides|mol2|620|dock13
    18    18     1
SMALL
USER_CHARGES


@<TRIPOS>ATOM
      1 F1          32.3394  35.2676  36.1706 F              1 <1>                0.0000
      2 C2          32.1724  36.1303  37.2591 C.3            1 <1>                0.0000
      3 F3          33.4086  36.3844  37.8627 F              1 <1>                0.0000
      4 C4          31.5325  37.4496  36.7926 C.3            1 <1>                0.0000
      5 C5          30.1948  37.5823  37.5495 C.3            1 <1>                0.0000
      6 C6          30.3872  36.7123  38.8163 C.3            1 <1>                0.0000
      7 C7          31.2022  35.5067  38.2837 C.3            1 <1>                0.0000
      8 S8          28.7857  36.1669  39.4710 S.o2           1 <1>                0.0000
      9 O9          28.5760  34.7895  39.1921 O.2            1 <1>                0.0000
     10 O10         28.5758  36.6907  40.7752 O.2            1 <1>                0.0000
     11 Cl11        27.4219  37.1204  38.3258 Cl             1 <1>                0.0000
     12 H12         32.1847  38.2880  37.0374 H              1 <1>                0.0000
     13 H13         31.3521  37.4177  35.7181 H              1 <1>                0.0000
     14 H14         30.0134  38.6214  37.8242 H              1 <1>                0.0000
     15 H15         29.3741  37.1980  36.9437 H              1 <1>                0.0000
     16 H16         30.9516  37.2543  39.5752 H              1 <1>                0.0000
     17 H17         30.5446  34.7870  37.7964 H              1 <1>                0.0000
     18 H18         31.7551  35.0320  39.0943 H              1 <1>                0.0000
@<TRIPOS>BOND
    1    1    2 1     
    2    2    3 1     
    3    2    4 1     
    4    2    7 1     
    5    4    5 1     
    6    4   12 1     
    7    4   13 1     
    8    5    6 1     
    9    5   14 1     
   10    5   15 1     
   11    6    7 1     
   12    6    8 1     
   13    6   16 1     
   14    7   17 1     
   15    7   18 1     
   16    8    9 2     
   17    8   10 2     
   18    8   11 1     
@<TRIPOS>SUBSTRUCTURE
      1 ****           1
@<TRIPOS>COMMENT
> <Gold.Version>
2022.2.0

> <Gold.Id.Protein>
1qkm|1qkm_protein|mol2

> <Gold.Protein.RotatedTorsions>
[  496  491  490  487 ] final -128.75 input  -89.99 | X-H torsion

> <Gold.Protein.ActiveResidues>
 MET295  LEU298  THR299  LEU301  ALA302  GLU305  TRP335  MET336  LEU339  MET340 
 GLY342  LEU343  ARG346  PHE356  ILE373  ILE376  PHE377  LEU380  LYS471  GLY472 
 MET473  HIS475  LEU476  LEU477  ASN478  MET479  VAL484  VAL487 

> <Gold.Protein.RotatedAtoms>
   37.0954   34.2385   40.7549 H   0  0  0  0  0  0  0  0  0  0  0  0  # atno 496  bound_to 491 

> <Gold.Score>
     Score     S(PLP)   S(hbond)     S(cho)   S(metal)  DE(clash)   DE(tors)     intcor
     32.24     -32.26       0.00       0.00       0.00       0.00       0.17       0.32

> <Gold.PLP.Fitness>
32.2360

> <Gold.PLP.PLP>
-32.2615

> <Gold.PLP.part.hbond>
0.0000

> <Gold.PLP.part.metal>
0.0000

> <Gold.PLP.part.buried>
-2.9780

> <Gold.PLP.part.nonpolar>
-30.1417

> <Gold.PLP.part.repulsive>
0.1196

> <Gold.PLP.ligand.clash>
0.0000

> <Gold.PLP.ligand.torsion>
0.1735

> <Gold.PLP.Chemscore.Hbond>
0.0000

> <Gold.PLP.Chemscore.CHOScore>
0.0000

> <Gold.PLP.Chemscore.Metal>
0.0000

> <Gold.PLP.Chemscore.Internal.Correction>
0.3215

