#       Name:                EN300-6730269_i001
#       Creating user name   aseyller
#       Creation time:       Fri Apr 21 18:44:03 2023


#       File generated by GOLD software.
#

@<TRIPOS>MOLECULE
EN300-6730269_i001|Sulfonylchlorides|mol2|620|dock1
    18    18     1
SMALL
USER_CHARGES


@<TRIPOS>ATOM
      1 F1          27.8577  35.6639  39.1655 F              1 <1>                0.0000
      2 C2          29.1066  36.2554  39.3834 C.3            1 <1>                0.0000
      3 F3          29.1102  36.9285  40.6098 F              1 <1>                0.0000
      4 C4          30.2083  35.1814  39.3684 C.3            1 <1>                0.0000
      5 C5          31.1658  35.5483  38.2158 C.3            1 <1>                0.0000
      6 C6          30.9568  37.0702  38.0183 C.3            1 <1>                0.0000
      7 C7          29.4324  37.2385  38.2400 C.3            1 <1>                0.0000
      8 S8          31.4212  37.5701  36.3375 S.o2           1 <1>                0.0000
      9 O9          30.2627  37.8150  35.5520 O.2            1 <1>                0.0000
     10 O10         32.4930  38.5026  36.3729 O.2            1 <1>                0.0000
     11 Cl11        32.2328  35.9089  35.5237 Cl             1 <1>                0.0000
     12 H12         30.7464  35.1851  40.3163 H              1 <1>                0.0000
     13 H13         29.7700  34.1992  39.1914 H              1 <1>                0.0000
     14 H14         32.1980  35.3381  38.4958 H              1 <1>                0.0000
     15 H15         30.8973  35.0055  37.3095 H              1 <1>                0.0000
     16 H16         31.5193  37.6369  38.7603 H              1 <1>                0.0000
     17 H17         28.8836  36.9687  37.3378 H              1 <1>                0.0000
     18 H18         29.2007  38.2613  38.5372 H              1 <1>                0.0000
@<TRIPOS>BOND
    1    1    2 1     
    2    2    3 1     
    3    2    4 1     
    4    2    7 1     
    5    4    5 1     
    6    4   12 1     
    7    4   13 1     
    8    5    6 1     
    9    5   14 1     
   10    5   15 1     
   11    6    7 1     
   12    6    8 1     
   13    6   16 1     
   14    7   17 1     
   15    7   18 1     
   16    8    9 2     
   17    8   10 2     
   18    8   11 1     
@<TRIPOS>SUBSTRUCTURE
      1 ****           1
@<TRIPOS>COMMENT
> <Gold.Version>
2022.2.0

> <Gold.Id.Protein>
1qkm|1qkm_protein|mol2

> <Gold.Protein.RotatedTorsions>
[  496  491  490  487 ] final  -32.50 input  -89.99 | X-H torsion

> <Gold.Protein.ActiveResidues>
 MET295  LEU298  THR299  LEU301  ALA302  GLU305  TRP335  MET336  LEU339  MET340 
 GLY342  LEU343  ARG346  PHE356  ILE373  ILE376  PHE377  LEU380  LYS471  GLY472 
 MET473  HIS475  LEU476  LEU477  ASN478  MET479  VAL484  VAL487 

> <Gold.Protein.RotatedAtoms>
   36.3256   34.5930   41.8751 H   0  0  0  0  0  0  0  0  0  0  0  0  # atno 496  bound_to 491 

> <Gold.Score>
     Score     S(PLP)   S(hbond)     S(cho)   S(metal)  DE(clash)   DE(tors)     intcor
     32.88     -32.94       0.00       0.00       0.00       0.00       0.19       0.32

> <Gold.PLP.Fitness>
32.8845

> <Gold.PLP.PLP>
-32.9352

> <Gold.PLP.part.hbond>
0.0000

> <Gold.PLP.part.metal>
0.0000

> <Gold.PLP.part.buried>
-0.8577

> <Gold.PLP.part.nonpolar>
-31.8545

> <Gold.PLP.part.repulsive>
0.0271

> <Gold.PLP.ligand.clash>
0.0000

> <Gold.PLP.ligand.torsion>
0.1861

> <Gold.PLP.Chemscore.Hbond>
0.0000

> <Gold.PLP.Chemscore.CHOScore>
0.0000

> <Gold.PLP.Chemscore.Metal>
0.0000

> <Gold.PLP.Chemscore.Internal.Correction>
0.3215

