#       Name:                EN300-6730269_i001
#       Creating user name   aseyller
#       Creation time:       Fri Apr 21 18:44:05 2023


#       File generated by GOLD software.
#

@<TRIPOS>MOLECULE
EN300-6730269_i001|Sulfonylchlorides|mol2|620|dock11
    18    18     1
SMALL
USER_CHARGES


@<TRIPOS>ATOM
      1 F1          28.8853  36.9856  41.5684 F              1 <1>                0.0000
      2 C2          28.6287  36.3311  40.3589 C.3            1 <1>                0.0000
      3 F3          28.3465  34.9814  40.5954 F              1 <1>                0.0000
      4 C4          27.4440  36.9990  39.6392 C.3            1 <1>                0.0000
      5 C5          27.9820  37.5115  38.2872 C.3            1 <1>                0.0000
      6 C6          29.2216  36.6249  38.0110 C.3            1 <1>                0.0000
      7 C7          29.8457  36.4598  39.4197 C.3            1 <1>                0.0000
      8 S8          30.3754  37.4640  36.8907 S.o2           1 <1>                0.0000
      9 O9          31.7010  37.3965  37.3980 O.2            1 <1>                0.0000
     10 O10         30.0902  37.1298  35.5393 O.2            1 <1>                0.0000
     11 Cl11        29.8860  39.4186  37.0344 Cl             1 <1>                0.0000
     12 H12         26.6495  36.2714  39.4732 H              1 <1>                0.0000
     13 H13         27.0690  37.8332  40.2322 H              1 <1>                0.0000
     14 H14         27.2354  37.3780  37.5043 H              1 <1>                0.0000
     15 H15         28.2720  38.5593  38.3646 H              1 <1>                0.0000
     16 H16         28.9225  35.6581  37.6060 H              1 <1>                0.0000
     17 H17         30.4368  37.3377  39.6803 H              1 <1>                0.0000
     18 H18         30.4588  35.5596  39.4623 H              1 <1>                0.0000
@<TRIPOS>BOND
    1    1    2 1     
    2    2    3 1     
    3    2    4 1     
    4    2    7 1     
    5    4    5 1     
    6    4   12 1     
    7    4   13 1     
    8    5    6 1     
    9    5   14 1     
   10    5   15 1     
   11    6    7 1     
   12    6    8 1     
   13    6   16 1     
   14    7   17 1     
   15    7   18 1     
   16    8    9 2     
   17    8   10 2     
   18    8   11 1     
@<TRIPOS>SUBSTRUCTURE
      1 ****           1
@<TRIPOS>COMMENT
> <Gold.Version>
2022.2.0

> <Gold.Id.Protein>
1qkm|1qkm_protein|mol2

> <Gold.Protein.RotatedTorsions>
[  496  491  490  487 ] final  -32.23 input  -89.99 | X-H torsion

> <Gold.Protein.ActiveResidues>
 MET295  LEU298  THR299  LEU301  ALA302  GLU305  TRP335  MET336  LEU339  MET340 
 GLY342  LEU343  ARG346  PHE356  ILE373  ILE376  PHE377  LEU380  LYS471  GLY472 
 MET473  HIS475  LEU476  LEU477  ASN478  MET479  VAL484  VAL487 

> <Gold.Protein.RotatedAtoms>
   36.3245   34.5907   41.8786 H   0  0  0  0  0  0  0  0  0  0  0  0  # atno 496  bound_to 491 

> <Gold.Score>
     Score     S(PLP)   S(hbond)     S(cho)   S(metal)  DE(clash)   DE(tors)     intcor
     29.32     -30.75       0.00       0.00       0.00       0.00       0.88       0.32

> <Gold.PLP.Fitness>
29.3214

> <Gold.PLP.PLP>
-30.7540

> <Gold.PLP.part.hbond>
0.0000

> <Gold.PLP.part.metal>
0.0000

> <Gold.PLP.part.buried>
-2.3002

> <Gold.PLP.part.nonpolar>
-28.7285

> <Gold.PLP.part.repulsive>
0.0278

> <Gold.PLP.ligand.clash>
0.0000

> <Gold.PLP.ligand.torsion>
0.8771

> <Gold.PLP.Chemscore.Hbond>
0.0000

> <Gold.PLP.Chemscore.CHOScore>
0.0000

> <Gold.PLP.Chemscore.Metal>
0.0000

> <Gold.PLP.Chemscore.Internal.Correction>
0.3215

