#       Name:                EN300-6730269_i001
#       Creating user name   aseyller
#       Creation time:       Fri Apr 21 18:44:04 2023


#       File generated by GOLD software.
#

@<TRIPOS>MOLECULE
EN300-6730269_i001|Sulfonylchlorides|mol2|620|dock4
    18    18     1
SMALL
USER_CHARGES


@<TRIPOS>ATOM
      1 F1          33.6270  36.1552  37.8999 F              1 <1>                0.0000
      2 C2          32.4177  35.7033  37.3609 C.3            1 <1>                0.0000
      3 F3          32.5549  35.4957  35.9842 F              1 <1>                0.0000
      4 C4          31.9889  34.3964  38.0508 C.3            1 <1>                0.0000
      5 C5          30.6263  34.6767  38.7177 C.3            1 <1>                0.0000
      6 C6          30.0472  35.8666  37.9129 C.3            1 <1>                0.0000
      7 C7          31.3010  36.7327  37.6315 C.3            1 <1>                0.0000
      8 S8          28.8395  36.7869  38.9055 S.o2           1 <1>                0.0000
      9 O9          29.3383  37.0095  40.2173 O.2            1 <1>                0.0000
     10 O10         28.2751  37.8475  38.1465 O.2            1 <1>                0.0000
     11 Cl11        27.3107  35.4927  39.1667 Cl             1 <1>                0.0000
     12 H12         31.8868  33.6007  37.3129 H              1 <1>                0.0000
     13 H13         32.7230  34.1143  38.8056 H              1 <1>                0.0000
     14 H14         29.9749  33.8068  38.6345 H              1 <1>                0.0000
     15 H15         30.7631  34.9536  39.7630 H              1 <1>                0.0000
     16 H16         29.5998  35.5213  36.9809 H              1 <1>                0.0000
     17 H17         31.5470  37.3418  38.5012 H              1 <1>                0.0000
     18 H18         31.1411  37.3625  36.7563 H              1 <1>                0.0000
@<TRIPOS>BOND
    1    1    2 1     
    2    2    3 1     
    3    2    4 1     
    4    2    7 1     
    5    4    5 1     
    6    4   12 1     
    7    4   13 1     
    8    5    6 1     
    9    5   14 1     
   10    5   15 1     
   11    6    7 1     
   12    6    8 1     
   13    6   16 1     
   14    7   17 1     
   15    7   18 1     
   16    8    9 2     
   17    8   10 2     
   18    8   11 1     
@<TRIPOS>SUBSTRUCTURE
      1 ****           1
@<TRIPOS>COMMENT
> <Gold.Version>
2022.2.0

> <Gold.Id.Protein>
1qkm|1qkm_protein|mol2

> <Gold.Protein.RotatedTorsions>
[  496  491  490  487 ] final   64.78 input  -89.99 | X-H torsion

> <Gold.Protein.ActiveResidues>
 MET295  LEU298  THR299  LEU301  ALA302  GLU305  TRP335  MET336  LEU339  MET340 
 GLY342  LEU343  ARG346  PHE356  ILE373  ILE376  PHE377  LEU380  LYS471  GLY472 
 MET473  HIS475  LEU476  LEU477  ASN478  MET479  VAL484  VAL487 

> <Gold.Protein.RotatedAtoms>
   36.5918   33.2599   42.2708 H   0  0  0  0  0  0  0  0  0  0  0  0  # atno 496  bound_to 491 

> <Gold.Score>
     Score     S(PLP)   S(hbond)     S(cho)   S(metal)  DE(clash)   DE(tors)     intcor
     32.67     -32.71       0.00       0.00       0.00       0.00       0.18       0.32

> <Gold.PLP.Fitness>
32.6749

> <Gold.PLP.PLP>
-32.7145

> <Gold.PLP.part.hbond>
0.0000

> <Gold.PLP.part.metal>
0.0000

> <Gold.PLP.part.buried>
-1.7579

> <Gold.PLP.part.nonpolar>
-31.3053

> <Gold.PLP.part.repulsive>
0.0724

> <Gold.PLP.ligand.clash>
0.0000

> <Gold.PLP.ligand.torsion>
0.1805

> <Gold.PLP.Chemscore.Hbond>
0.0000

> <Gold.PLP.Chemscore.CHOScore>
0.0000

> <Gold.PLP.Chemscore.Metal>
0.0000

> <Gold.PLP.Chemscore.Internal.Correction>
0.3215

