#       Name:                EN300-6730269_i001
#       Creating user name   aseyller
#       Creation time:       Fri Apr 21 18:44:04 2023


#       File generated by GOLD software.
#

@<TRIPOS>MOLECULE
EN300-6730269_i001|Sulfonylchlorides|mol2|620|dock8
    18    18     1
SMALL
USER_CHARGES


@<TRIPOS>ATOM
      1 F1          26.7489  35.4086  38.7786 F              1 <1>                0.0000
      2 C2          27.3263  36.6755  38.9155 C.3            1 <1>                0.0000
      3 F3          26.3592  37.6011  39.3219 F              1 <1>                0.0000
      4 C4          28.4714  36.6247  39.9421 C.3            1 <1>                0.0000
      5 C5          29.7544  37.0381  39.1917 C.3            1 <1>                0.0000
      6 C6          29.2408  37.8725  37.9922 C.3            1 <1>                0.0000
      7 C7          27.9522  37.1185  37.5769 C.3            1 <1>                0.0000
      8 S8          30.4515  37.8689  36.6413 S.o2           1 <1>                0.0000
      9 O9          30.0118  37.0327  35.5798 O.2            1 <1>                0.0000
     10 O10         30.9216  39.1861  36.3897 O.2            1 <1>                0.0000
     11 Cl11        32.0546  36.9048  37.4036 Cl             1 <1>                0.0000
     12 H12         28.2742  37.3219  40.7564 H              1 <1>                0.0000
     13 H13         28.5774  35.6130  40.3335 H              1 <1>                0.0000
     14 H14         30.3927  37.6454  39.8335 H              1 <1>                0.0000
     15 H15         30.2920  36.1570  38.8413 H              1 <1>                0.0000
     16 H16         29.0087  38.8915  38.3016 H              1 <1>                0.0000
     17 H17         28.1983  36.2503  36.9657 H              1 <1>                0.0000
     18 H18         27.2765  37.7847  37.0406 H              1 <1>                0.0000
@<TRIPOS>BOND
    1    1    2 1     
    2    2    3 1     
    3    2    4 1     
    4    2    7 1     
    5    4    5 1     
    6    4   12 1     
    7    4   13 1     
    8    5    6 1     
    9    5   14 1     
   10    5   15 1     
   11    6    7 1     
   12    6    8 1     
   13    6   16 1     
   14    7   17 1     
   15    7   18 1     
   16    8    9 2     
   17    8   10 2     
   18    8   11 1     
@<TRIPOS>SUBSTRUCTURE
      1 ****           1
@<TRIPOS>COMMENT
> <Gold.Version>
2022.2.0

> <Gold.Id.Protein>
1qkm|1qkm_protein|mol2

> <Gold.Protein.RotatedTorsions>
[  496  491  490  487 ] final   50.08 input  -89.99 | X-H torsion

> <Gold.Protein.ActiveResidues>
 MET295  LEU298  THR299  LEU301  ALA302  GLU305  TRP335  MET336  LEU339  MET340 
 GLY342  LEU343  ARG346  PHE356  ILE373  ILE376  PHE377  LEU380  LYS471  GLY472 
 MET473  HIS475  LEU476  LEU477  ASN478  MET479  VAL484  VAL487 

> <Gold.Protein.RotatedAtoms>
   36.4734   33.4533   42.3532 H   0  0  0  0  0  0  0  0  0  0  0  0  # atno 496  bound_to 491 

> <Gold.Score>
     Score     S(PLP)   S(hbond)     S(cho)   S(metal)  DE(clash)   DE(tors)     intcor
     31.98     -32.01       0.00       0.00       0.00       0.00       0.17       0.32

> <Gold.PLP.Fitness>
31.9835

> <Gold.PLP.PLP>
-32.0112

> <Gold.PLP.part.hbond>
0.0000

> <Gold.PLP.part.metal>
0.0000

> <Gold.PLP.part.buried>
-2.5074

> <Gold.PLP.part.nonpolar>
-29.6699

> <Gold.PLP.part.repulsive>
0.0266

> <Gold.PLP.ligand.clash>
0.0000

> <Gold.PLP.ligand.torsion>
0.1745

> <Gold.PLP.Chemscore.Hbond>
0.0000

> <Gold.PLP.Chemscore.CHOScore>
0.0000

> <Gold.PLP.Chemscore.Metal>
0.0000

> <Gold.PLP.Chemscore.Internal.Correction>
0.3215

