#       Name:                EN300-6730269_i001
#       Creating user name   aseyller
#       Creation time:       Fri Apr 21 18:44:07 2023


#       File generated by GOLD software.
#

@<TRIPOS>MOLECULE
EN300-6730269_i001|Sulfonylchlorides|mol2|620|dock17
    18    18     1
SMALL
USER_CHARGES


@<TRIPOS>ATOM
      1 F1          29.4881  36.9973  40.3063 F              1 <1>                0.0000
      2 C2          29.2345  36.4903  39.0273 C.3            1 <1>                0.0000
      3 F3          28.8437  35.1498  39.1124 F              1 <1>                0.0000
      4 C4          28.1335  37.3178  38.3412 C.3            1 <1>                0.0000
      5 C5          28.7639  37.9209  37.0689 C.3            1 <1>                0.0000
      6 C6          29.9450  36.9731  36.7441 C.3            1 <1>                0.0000
      7 C7          30.4959  36.6183  38.1484 C.3            1 <1>                0.0000
      8 S8          31.2035  37.8289  35.7570 S.o2           1 <1>                0.0000
      9 O9          30.6921  38.1559  34.4722 O.2            1 <1>                0.0000
     10 O10         31.8804  38.7988  36.5448 O.2            1 <1>                0.0000
     11 Cl11        32.6028  36.4186  35.3921 Cl             1 <1>                0.0000
     12 H12         27.2951  36.6748  38.0736 H              1 <1>                0.0000
     13 H13         27.7968  38.1143  39.0047 H              1 <1>                0.0000
     14 H14         28.0428  37.9259  36.2515 H              1 <1>                0.0000
     15 H15         29.1270  38.9298  37.2646 H              1 <1>                0.0000
     16 H16         29.5925  36.0784  36.2308 H              1 <1>                0.0000
     17 H17         31.1388  37.4167  38.5188 H              1 <1>                0.0000
     18 H18         31.0384  35.6734  38.1179 H              1 <1>                0.0000
@<TRIPOS>BOND
    1    1    2 1     
    2    2    3 1     
    3    2    4 1     
    4    2    7 1     
    5    4    5 1     
    6    4   12 1     
    7    4   13 1     
    8    5    6 1     
    9    5   14 1     
   10    5   15 1     
   11    6    7 1     
   12    6    8 1     
   13    6   16 1     
   14    7   17 1     
   15    7   18 1     
   16    8    9 2     
   17    8   10 2     
   18    8   11 1     
@<TRIPOS>SUBSTRUCTURE
      1 ****           1
@<TRIPOS>COMMENT
> <Gold.Version>
2022.2.0

> <Gold.Id.Protein>
1qkm|1qkm_protein|mol2

> <Gold.Protein.RotatedTorsions>
[  496  491  490  487 ] final   33.41 input  -89.99 | X-H torsion

> <Gold.Protein.ActiveResidues>
 MET295  LEU298  THR299  LEU301  ALA302  GLU305  TRP335  MET336  LEU339  MET340 
 GLY342  LEU343  ARG346  PHE356  ILE373  ILE376  PHE377  LEU380  LYS471  GLY472 
 MET473  HIS475  LEU476  LEU477  ASN478  MET479  VAL484  VAL487 

> <Gold.Protein.RotatedAtoms>
   36.3645   33.7024   42.3831 H   0  0  0  0  0  0  0  0  0  0  0  0  # atno 496  bound_to 491 

> <Gold.Score>
     Score     S(PLP)   S(hbond)     S(cho)   S(metal)  DE(clash)   DE(tors)     intcor
     29.71     -29.83       0.00       0.00       0.00       0.00       0.22       0.32

> <Gold.PLP.Fitness>
29.7139

> <Gold.PLP.PLP>
-29.8296

> <Gold.PLP.part.hbond>
0.0000

> <Gold.PLP.part.metal>
0.0000

> <Gold.PLP.part.buried>
-0.9339

> <Gold.PLP.part.nonpolar>
-28.9824

> <Gold.PLP.part.repulsive>
0.0482

> <Gold.PLP.ligand.clash>
0.0000

> <Gold.PLP.ligand.torsion>
0.2186

> <Gold.PLP.Chemscore.Hbond>
0.0000

> <Gold.PLP.Chemscore.CHOScore>
0.0000

> <Gold.PLP.Chemscore.Metal>
0.0000

> <Gold.PLP.Chemscore.Internal.Correction>
0.3215

