#       Name:                EN300-6730269_i001
#       Creating user name   aseyller
#       Creation time:       Fri Apr 21 18:44:03 2023


#       File generated by GOLD software.
#

@<TRIPOS>MOLECULE
EN300-6730269_i001
    18    18     1
SMALL
USER_CHARGES


@<TRIPOS>ATOM
      1 F1           2.2695  -1.6579   0.2176 F              1 <1>                0.0000
      2 C2           1.6927  -0.3913   0.3597 C.3            1 <1>                0.0000
      3 F3           2.5278   0.4323   1.1222 F              1 <1>                0.0000
      4 C4           1.4536   0.2372  -1.0243 C.3            1 <1>                0.0000
      5 C5          -0.0659   0.4758  -1.1433 C.3            1 <1>                0.0000
      6 C6          -0.5533   0.5600   0.3244 C.3            1 <1>                0.0000
      7 C7           0.3108  -0.5126   1.0346 C.3            1 <1>                0.0000
      8 S8          -2.3157   0.1466   0.4413 S.o2           1 <1>                0.0000
      9 O9          -2.7580   0.2252   1.7894 O.2            1 <1>                0.0000
     10 O10         -3.0448   0.7709  -0.6066 O.2            1 <1>                0.0000
     11 Cl11        -2.4015  -1.8234   0.0029 Cl             1 <1>                0.0000
     12 H12          1.9874   1.1844  -1.1016 H              1 <1>                0.0000
     13 H13          1.7869  -0.4446  -1.8067 H              1 <1>                0.0000
     14 H14         -0.2653   1.4114  -1.6658 H              1 <1>                0.0000
     15 H15         -0.5439  -0.3584  -1.6568 H              1 <1>                0.0000
     16 H16         -0.3590   1.5488   0.7399 H              1 <1>                0.0000
     17 H17         -0.1061  -1.5066   0.8730 H              1 <1>                0.0000
     18 H18          0.3855  -0.2978   2.1006 H              1 <1>                0.0000
@<TRIPOS>BOND
    1    1    2 1     
    2    2    3 1     
    3    2    4 1     
    4    2    7 1     
    5    4    5 1     
    6    4   12 1     
    7    4   13 1     
    8    5    6 1     
    9    5   14 1     
   10    5   15 1     
   11    6    7 1     
   12    6    8 1     
   13    6   16 1     
   14    7   17 1     
   15    7   18 1     
   16    8    9 2     
   17    8   10 2     
   18    8   11 1     
@<TRIPOS>SUBSTRUCTURE
      1 ****           1
