#       Name:                EN300-6730269_i001
#       Creating user name   aseyller
#       Creation time:       Fri Apr 21 18:44:05 2023


#       File generated by GOLD software.
#

@<TRIPOS>MOLECULE
EN300-6730269_i001|Sulfonylchlorides|mol2|620|dock10
    18    18     1
SMALL
USER_CHARGES


@<TRIPOS>ATOM
      1 F1          32.1849  35.6558  35.8039 F              1 <1>                0.0000
      2 C2          32.0831  36.2371  37.0723 C.3            1 <1>                0.0000
      3 F3          33.3201  36.1847  37.7236 F              1 <1>                0.0000
      4 C4          31.6149  37.6974  36.9469 C.3            1 <1>                0.0000
      5 C5          30.2775  37.7984  37.7092 C.3            1 <1>                0.0000
      6 C6          30.3272  36.6263  38.7204 C.3            1 <1>                0.0000
      7 C7          31.0148  35.5007  37.9069 C.3            1 <1>                0.0000
      8 S8          28.6532  36.1319  39.2143 S.o2           1 <1>                0.0000
      9 O9          27.6892  37.0232  38.6707 O.2            1 <1>                0.0000
     10 O10         28.4954  34.7242  39.1013 O.2            1 <1>                0.0000
     11 Cl11        28.5903  36.4823  41.2027 Cl             1 <1>                0.0000
     12 H12         32.3510  38.3654  37.3943 H              1 <1>                0.0000
     13 H13         31.4669  37.9534  35.8977 H              1 <1>                0.0000
     14 H14         30.2082  38.7517  38.2332 H              1 <1>                0.0000
     15 H15         29.4382  37.6764  37.0246 H              1 <1>                0.0000
     16 H16         30.9253  36.8929  39.5918 H              1 <1>                0.0000
     17 H17         30.2948  35.0074  37.2541 H              1 <1>                0.0000
     18 H18         31.4828  34.7781  38.5755 H              1 <1>                0.0000
@<TRIPOS>BOND
    1    1    2 1     
    2    2    3 1     
    3    2    4 1     
    4    2    7 1     
    5    4    5 1     
    6    4   12 1     
    7    4   13 1     
    8    5    6 1     
    9    5   14 1     
   10    5   15 1     
   11    6    7 1     
   12    6    8 1     
   13    6   16 1     
   14    7   17 1     
   15    7   18 1     
   16    8    9 2     
   17    8   10 2     
   18    8   11 1     
@<TRIPOS>SUBSTRUCTURE
      1 ****           1
@<TRIPOS>COMMENT
> <Gold.Version>
2022.2.0

> <Gold.Id.Protein>
1qkm|1qkm_protein|mol2

> <Gold.Protein.RotatedTorsions>
[  496  491  490  487 ] final   61.66 input  -89.99 | X-H torsion

> <Gold.Protein.ActiveResidues>
 MET295  LEU298  THR299  LEU301  ALA302  GLU305  TRP335  MET336  LEU339  MET340 
 GLY342  LEU343  ARG346  PHE356  ILE373  ILE376  PHE377  LEU380  LYS471  GLY472 
 MET473  HIS475  LEU476  LEU477  ASN478  MET479  VAL484  VAL487 

> <Gold.Protein.RotatedAtoms>
   36.5653   33.2982   42.2924 H   0  0  0  0  0  0  0  0  0  0  0  0  # atno 496  bound_to 491 

> <Gold.Score>
     Score     S(PLP)   S(hbond)     S(cho)   S(metal)  DE(clash)   DE(tors)     intcor
     32.85     -32.98       0.00       0.00       0.00       0.00       0.23       0.32

> <Gold.PLP.Fitness>
32.8510

> <Gold.PLP.PLP>
-32.9801

> <Gold.PLP.part.hbond>
0.0000

> <Gold.PLP.part.metal>
0.0000

> <Gold.PLP.part.buried>
-2.6714

> <Gold.PLP.part.nonpolar>
-31.4815

> <Gold.PLP.part.repulsive>
0.0250

> <Gold.PLP.ligand.clash>
0.0000

> <Gold.PLP.ligand.torsion>
0.2253

> <Gold.PLP.Chemscore.Hbond>
0.0000

> <Gold.PLP.Chemscore.CHOScore>
0.0000

> <Gold.PLP.Chemscore.Metal>
0.0000

> <Gold.PLP.Chemscore.Internal.Correction>
0.3215

