#       Name:                EN300-6730269_i001
#       Creating user name   aseyller
#       Creation time:       Fri Apr 21 18:44:07 2023


#       File generated by GOLD software.
#

@<TRIPOS>MOLECULE
EN300-6730269_i001|Sulfonylchlorides|mol2|620|dock18
    18    18     1
SMALL
USER_CHARGES


@<TRIPOS>ATOM
      1 F1          31.1553  36.8941  35.0867 F              1 <1>                0.0000
      2 C2          31.0029  37.6796  36.2342 C.3            1 <1>                0.0000
      3 F3          32.1181  38.5080  36.3990 F              1 <1>                0.0000
      4 C4          29.7258  38.5308  36.1245 C.3            1 <1>                0.0000
      5 C5          28.8173  38.1159  37.3003 C.3            1 <1>                0.0000
      6 C6          29.7962  37.5326  38.3492 C.3            1 <1>                0.0000
      7 C7          30.8273  36.7771  37.4730 C.3            1 <1>                0.0000
      8 S8          28.9373  36.3873  39.4632 S.o2           1 <1>                0.0000
      9 O9          29.2057  35.0406  39.0976 O.2            1 <1>                0.0000
     10 O10         29.0585  36.8184  40.8118 O.2            1 <1>                0.0000
     11 Cl11        26.9796  36.6393  39.0337 Cl             1 <1>                0.0000
     12 H12         29.9747  39.5893  36.2006 H              1 <1>                0.0000
     13 H13         29.2246  38.3319  35.1772 H              1 <1>                0.0000
     14 H14         28.2971  38.9840  37.7051 H              1 <1>                0.0000
     15 H15         28.1033  37.3567  36.9811 H              1 <1>                0.0000
     16 H16         30.2799  38.3309  38.9121 H              1 <1>                0.0000
     17 H17         30.4382  35.8017  37.1815 H              1 <1>                0.0000
     18 H18         31.7727  36.6686  38.0044 H              1 <1>                0.0000
@<TRIPOS>BOND
    1    1    2 1     
    2    2    3 1     
    3    2    4 1     
    4    2    7 1     
    5    4    5 1     
    6    4   12 1     
    7    4   13 1     
    8    5    6 1     
    9    5   14 1     
   10    5   15 1     
   11    6    7 1     
   12    6    8 1     
   13    6   16 1     
   14    7   17 1     
   15    7   18 1     
   16    8    9 2     
   17    8   10 2     
   18    8   11 1     
@<TRIPOS>SUBSTRUCTURE
      1 ****           1
@<TRIPOS>COMMENT
> <Gold.Version>
2022.2.0

> <Gold.Id.Protein>
1qkm|1qkm_protein|mol2

> <Gold.Protein.RotatedTorsions>
[  496  491  490  487 ] final   20.31 input  -89.99 | X-H torsion

> <Gold.Protein.ActiveResidues>
 MET295  LEU298  THR299  LEU301  ALA302  GLU305  TRP335  MET336  LEU339  MET340 
 GLY342  LEU343  ARG346  PHE356  ILE373  ILE376  PHE377  LEU380  LYS471  GLY472 
 MET473  HIS475  LEU476  LEU477  ASN478  MET479  VAL484  VAL487 

> <Gold.Protein.RotatedAtoms>
   36.3035   33.9072   42.3575 H   0  0  0  0  0  0  0  0  0  0  0  0  # atno 496  bound_to 491 

> <Gold.Score>
     Score     S(PLP)   S(hbond)     S(cho)   S(metal)  DE(clash)   DE(tors)     intcor
     30.68     -30.86       0.00       0.00       0.00       0.00       0.25       0.32

> <Gold.PLP.Fitness>
30.6751

> <Gold.PLP.PLP>
-30.8601

> <Gold.PLP.part.hbond>
0.0000

> <Gold.PLP.part.metal>
0.0000

> <Gold.PLP.part.buried>
-2.6975

> <Gold.PLP.part.nonpolar>
-28.3752

> <Gold.PLP.part.repulsive>
0.1429

> <Gold.PLP.ligand.clash>
0.0000

> <Gold.PLP.ligand.torsion>
0.2532

> <Gold.PLP.Chemscore.Hbond>
0.0000

> <Gold.PLP.Chemscore.CHOScore>
0.0000

> <Gold.PLP.Chemscore.Metal>
0.0000

> <Gold.PLP.Chemscore.Internal.Correction>
0.3215

