#       Name:                EN300-6730269_i001
#       Creating user name   aseyller
#       Creation time:       Fri Apr 21 18:44:04 2023


#       File generated by GOLD software.
#

@<TRIPOS>MOLECULE
EN300-6730269_i001|Sulfonylchlorides|mol2|620|dock5
    18    18     1
SMALL
USER_CHARGES


@<TRIPOS>ATOM
      1 F1          26.7529  35.3812  38.7461 F              1 <1>                0.0000
      2 C2          27.2544  36.6783  38.8986 C.3            1 <1>                0.0000
      3 F3          26.2182  37.5556  39.2360 F              1 <1>                0.0000
      4 C4          28.3390  36.6991  39.9899 C.3            1 <1>                0.0000
      5 C5          29.6401  37.1719  39.3090 C.3            1 <1>                0.0000
      6 C6          29.1542  37.9650  38.0706 C.3            1 <1>                0.0000
      7 C7          27.9330  37.1395  37.5923 C.3            1 <1>                0.0000
      8 S8          30.4399  38.0112  36.7917 S.o2           1 <1>                0.0000
      9 O9          31.6888  37.5928  37.3248 O.2            1 <1>                0.0000
     10 O10         29.9480  37.4758  35.5707 O.2            1 <1>                0.0000
     11 Cl11        30.6966  39.9774  36.4058 Cl             1 <1>                0.0000
     12 H12         28.0586  37.3935  40.7819 H              1 <1>                0.0000
     13 H13         28.4747  35.6987  40.4007 H              1 <1>                0.0000
     14 H14         30.2073  37.8189  39.9780 H              1 <1>                0.0000
     15 H15         30.2424  36.3168  39.0022 H              1 <1>                0.0000
     16 H16         28.8515  38.9736  38.3521 H              1 <1>                0.0000
     17 H17         28.2594  36.2791  37.0082 H              1 <1>                0.0000
     18 H18         27.2558  37.7633  37.0089 H              1 <1>                0.0000
@<TRIPOS>BOND
    1    1    2 1     
    2    2    3 1     
    3    2    4 1     
    4    2    7 1     
    5    4    5 1     
    6    4   12 1     
    7    4   13 1     
    8    5    6 1     
    9    5   14 1     
   10    5   15 1     
   11    6    7 1     
   12    6    8 1     
   13    6   16 1     
   14    7   17 1     
   15    7   18 1     
   16    8    9 2     
   17    8   10 2     
   18    8   11 1     
@<TRIPOS>SUBSTRUCTURE
      1 ****           1
@<TRIPOS>COMMENT
> <Gold.Version>
2022.2.0

> <Gold.Id.Protein>
1qkm|1qkm_protein|mol2

> <Gold.Protein.RotatedTorsions>
[  496  491  490  487 ] final  -88.07 input  -89.99 | X-H torsion

> <Gold.Protein.ActiveResidues>
 MET295  LEU298  THR299  LEU301  ALA302  GLU305  TRP335  MET336  LEU339  MET340 
 GLY342  LEU343  ARG346  PHE356  ILE373  ILE376  PHE377  LEU380  LYS471  GLY472 
 MET473  HIS475  LEU476  LEU477  ASN478  MET479  VAL484  VAL487 

> <Gold.Protein.RotatedAtoms>
   36.7395   34.6655   41.1025 H   0  0  0  0  0  0  0  0  0  0  0  0  # atno 496  bound_to 491 

> <Gold.Score>
     Score     S(PLP)   S(hbond)     S(cho)   S(metal)  DE(clash)   DE(tors)     intcor
     33.17     -33.19       0.00       0.00       0.00       0.00       0.17       0.32

> <Gold.PLP.Fitness>
33.1676

> <Gold.PLP.PLP>
-33.1854

> <Gold.PLP.part.hbond>
0.0000

> <Gold.PLP.part.metal>
0.0000

> <Gold.PLP.part.buried>
-1.4955

> <Gold.PLP.part.nonpolar>
-31.2960

> <Gold.PLP.part.repulsive>
0.0142

> <Gold.PLP.ligand.clash>
0.0000

> <Gold.PLP.ligand.torsion>
0.1696

> <Gold.PLP.Chemscore.Hbond>
0.0000

> <Gold.PLP.Chemscore.CHOScore>
0.0000

> <Gold.PLP.Chemscore.Metal>
0.0000

> <Gold.PLP.Chemscore.Internal.Correction>
0.3215

