#       Name:                EN300-6730269_i001
#       Creating user name   aseyller
#       Creation time:       Fri Apr 21 18:44:05 2023


#       File generated by GOLD software.
#

@<TRIPOS>MOLECULE
EN300-6730269_i001|Sulfonylchlorides|mol2|620|dock9
    18    18     1
SMALL
USER_CHARGES


@<TRIPOS>ATOM
      1 F1          29.1585  36.7016  40.7266 F              1 <1>                0.0000
      2 C2          28.9171  36.2902  39.4114 C.3            1 <1>                0.0000
      3 F3          28.4449  34.9734  39.4006 F              1 <1>                0.0000
      4 C4          27.8900  37.2238  38.7473 C.3            1 <1>                0.0000
      5 C5          28.5961  37.8639  37.5341 C.3            1 <1>                0.0000
      6 C6          29.7288  36.8672  37.1845 C.3            1 <1>                0.0000
      7 C7          30.2117  36.3943  38.5790 C.3            1 <1>                0.0000
      8 S8          31.0673  37.7031  36.2899 S.o2           1 <1>                0.0000
      9 O9          32.2722  37.6608  37.0420 O.2            1 <1>                0.0000
     10 O10         31.0486  37.3436  34.9152 O.2            1 <1>                0.0000
     11 Cl11        30.5406  39.6532  36.3021 Cl             1 <1>                0.0000
     12 H12         27.0240  36.6509  38.4157 H              1 <1>                0.0000
     13 H13         27.5796  37.9975  39.4496 H              1 <1>                0.0000
     14 H14         27.9035  37.9629  36.6983 H              1 <1>                0.0000
     15 H15         29.0118  38.8348  37.8034 H              1 <1>                0.0000
     16 H16         29.3408  36.0288  36.6060 H              1 <1>                0.0000
     17 H17         30.8885  37.1277  39.0173 H              1 <1>                0.0000
     18 H18         30.6980  35.4216  38.5047 H              1 <1>                0.0000
@<TRIPOS>BOND
    1    1    2 1     
    2    2    3 1     
    3    2    4 1     
    4    2    7 1     
    5    4    5 1     
    6    4   12 1     
    7    4   13 1     
    8    5    6 1     
    9    5   14 1     
   10    5   15 1     
   11    6    7 1     
   12    6    8 1     
   13    6   16 1     
   14    7   17 1     
   15    7   18 1     
   16    8    9 2     
   17    8   10 2     
   18    8   11 1     
@<TRIPOS>SUBSTRUCTURE
      1 ****           1
@<TRIPOS>COMMENT
> <Gold.Version>
2022.2.0

> <Gold.Id.Protein>
1qkm|1qkm_protein|mol2

> <Gold.Protein.RotatedTorsions>
[  496  491  490  487 ] final  170.16 input  -89.99 | X-H torsion

> <Gold.Protein.ActiveResidues>
 MET295  LEU298  THR299  LEU301  ALA302  GLU305  TRP335  MET336  LEU339  MET340 
 GLY342  LEU343  ARG346  PHE356  ILE373  ILE376  PHE377  LEU380  LYS471  GLY472 
 MET473  HIS475  LEU476  LEU477  ASN478  MET479  VAL484  VAL487 

> <Gold.Protein.RotatedAtoms>
   37.3154   33.3278   40.9582 H   0  0  0  0  0  0  0  0  0  0  0  0  # atno 496  bound_to 491 

> <Gold.Score>
     Score     S(PLP)   S(hbond)     S(cho)   S(metal)  DE(clash)   DE(tors)     intcor
     30.63     -30.92       0.00       0.00       0.00       0.00       0.31       0.32

> <Gold.PLP.Fitness>
30.6271

> <Gold.PLP.PLP>
-30.9242

> <Gold.PLP.part.hbond>
0.0000

> <Gold.PLP.part.metal>
0.0000

> <Gold.PLP.part.buried>
-1.5367

> <Gold.PLP.part.nonpolar>
-30.1613

> <Gold.PLP.part.repulsive>
0.0660

> <Gold.PLP.ligand.clash>
0.0000

> <Gold.PLP.ligand.torsion>
0.3093

> <Gold.PLP.Chemscore.Hbond>
0.0000

> <Gold.PLP.Chemscore.CHOScore>
0.0000

> <Gold.PLP.Chemscore.Metal>
0.0000

> <Gold.PLP.Chemscore.Internal.Correction>
0.3215

