#       Name:                EN300-6730269_i001
#       Creating user name   aseyller
#       Creation time:       Fri Apr 21 18:44:04 2023


#       File generated by GOLD software.
#

@<TRIPOS>MOLECULE
EN300-6730269_i001|Sulfonylchlorides|mol2|620|dock6
    18    18     1
SMALL
USER_CHARGES


@<TRIPOS>ATOM
      1 F1          27.9722  35.8997  39.0774 F              1 <1>                0.0000
      2 C2          29.2955  36.3026  39.2862 C.3            1 <1>                0.0000
      3 F3          29.3989  36.9988  40.4953 F              1 <1>                0.0000
      4 C4          30.2236  35.0754  39.3037 C.3            1 <1>                0.0000
      5 C5          31.2264  35.2649  38.1467 C.3            1 <1>                0.0000
      6 C6          31.2484  36.7953  37.9099 C.3            1 <1>                0.0000
      7 C7          29.7662  37.1960  38.1200 C.3            1 <1>                0.0000
      8 S8          31.7841  37.1766  36.2193 S.o2           1 <1>                0.0000
      9 O9          32.7004  38.2628  36.2195 O.2            1 <1>                0.0000
     10 O10         32.0649  35.9814  35.5037 O.2            1 <1>                0.0000
     11 Cl11        30.1329  37.9180  35.3224 Cl             1 <1>                0.0000
     12 H12         30.7553  35.0227  40.2537 H              1 <1>                0.0000
     13 H13         29.6430  34.1659  39.1494 H              1 <1>                0.0000
     14 H14         32.2151  34.9094  38.4369 H              1 <1>                0.0000
     15 H15         30.8803  34.7455  37.2531 H              1 <1>                0.0000
     16 H16         31.8889  37.2900  38.6401 H              1 <1>                0.0000
     17 H17         29.1840  36.9886  37.2223 H              1 <1>                0.0000
     18 H18         29.6904  38.2493  38.3902 H              1 <1>                0.0000
@<TRIPOS>BOND
    1    1    2 1     
    2    2    3 1     
    3    2    4 1     
    4    2    7 1     
    5    4    5 1     
    6    4   12 1     
    7    4   13 1     
    8    5    6 1     
    9    5   14 1     
   10    5   15 1     
   11    6    7 1     
   12    6    8 1     
   13    6   16 1     
   14    7   17 1     
   15    7   18 1     
   16    8    9 2     
   17    8   10 2     
   18    8   11 1     
@<TRIPOS>SUBSTRUCTURE
      1 ****           1
@<TRIPOS>COMMENT
> <Gold.Version>
2022.2.0

> <Gold.Id.Protein>
1qkm|1qkm_protein|mol2

> <Gold.Protein.RotatedTorsions>
[  496  491  490  487 ] final   82.93 input  -89.99 | X-H torsion

> <Gold.Protein.ActiveResidues>
 MET295  LEU298  THR299  LEU301  ALA302  GLU305  TRP335  MET336  LEU339  MET340 
 GLY342  LEU343  ARG346  PHE356  ILE373  ILE376  PHE377  LEU380  LYS471  GLY472 
 MET473  HIS475  LEU476  LEU477  ASN478  MET479  VAL484  VAL487 

> <Gold.Protein.RotatedAtoms>
   36.7549   33.0744   42.1048 H   0  0  0  0  0  0  0  0  0  0  0  0  # atno 496  bound_to 491 

> <Gold.Score>
     Score     S(PLP)   S(hbond)     S(cho)   S(metal)  DE(clash)   DE(tors)     intcor
     31.81     -31.93       0.00       0.00       0.00       0.00       0.22       0.32

> <Gold.PLP.Fitness>
31.8106

> <Gold.PLP.PLP>
-31.9317

> <Gold.PLP.part.hbond>
0.0000

> <Gold.PLP.part.metal>
0.0000

> <Gold.PLP.part.buried>
-1.5076

> <Gold.PLP.part.nonpolar>
-30.7211

> <Gold.PLP.part.repulsive>
0.1024

> <Gold.PLP.ligand.clash>
0.0000

> <Gold.PLP.ligand.torsion>
0.2213

> <Gold.PLP.Chemscore.Hbond>
0.0000

> <Gold.PLP.Chemscore.CHOScore>
0.0000

> <Gold.PLP.Chemscore.Metal>
0.0000

> <Gold.PLP.Chemscore.Internal.Correction>
0.3215

