#       Name:                EN300-6730269_i001
#       Creating user name   aseyller
#       Creation time:       Fri Apr 21 18:44:04 2023


#       File generated by GOLD software.
#

@<TRIPOS>MOLECULE
EN300-6730269_i001|Sulfonylchlorides|mol2|620|dock7
    18    18     1
SMALL
USER_CHARGES


@<TRIPOS>ATOM
      1 F1          28.2982  35.4418  39.1719 F              1 <1>                0.0000
      2 C2          29.3994  36.3024  39.2354 C.3            1 <1>                0.0000
      3 F3          29.3980  36.9926  40.4523 F              1 <1>                0.0000
      4 C4          30.7042  35.5007  39.0857 C.3            1 <1>                0.0000
      5 C5          31.4105  36.0402  37.8247 C.3            1 <1>                0.0000
      6 C6          30.8433  37.4713  37.6545 C.3            1 <1>                0.0000
      7 C7          29.3575  37.3018  38.0610 C.3            1 <1>                0.0000
      8 S8          30.9799  38.0161  35.9296 S.o2           1 <1>                0.0000
      9 O9          30.3001  37.1147  35.0667 O.2            1 <1>                0.0000
     10 O10         30.7751  39.4189  35.8321 O.2            1 <1>                0.0000
     11 Cl11        32.9319  37.7648  35.4747 Cl             1 <1>                0.0000
     12 H12         31.3368  35.6502  39.9606 H              1 <1>                0.0000
     13 H13         30.4795  34.4412  38.9634 H              1 <1>                0.0000
     14 H14         32.4894  36.0729  37.9763 H              1 <1>                0.0000
     15 H15         31.1645  35.4267  36.9579 H              1 <1>                0.0000
     16 H16         31.3486  38.1691  38.3222 H              1 <1>                0.0000
     17 H17         28.7797  36.8921  37.2326 H              1 <1>                0.0000
     18 H18         28.9394  38.2550  38.3845 H              1 <1>                0.0000
@<TRIPOS>BOND
    1    1    2 1     
    2    2    3 1     
    3    2    4 1     
    4    2    7 1     
    5    4    5 1     
    6    4   12 1     
    7    4   13 1     
    8    5    6 1     
    9    5   14 1     
   10    5   15 1     
   11    6    7 1     
   12    6    8 1     
   13    6   16 1     
   14    7   17 1     
   15    7   18 1     
   16    8    9 2     
   17    8   10 2     
   18    8   11 1     
@<TRIPOS>SUBSTRUCTURE
      1 ****           1
@<TRIPOS>COMMENT
> <Gold.Version>
2022.2.0

> <Gold.Id.Protein>
1qkm|1qkm_protein|mol2

> <Gold.Protein.RotatedTorsions>
[  496  491  490  487 ] final -126.24 input  -89.99 | X-H torsion

> <Gold.Protein.ActiveResidues>
 MET295  LEU298  THR299  LEU301  ALA302  GLU305  TRP335  MET336  LEU339  MET340 
 GLY342  LEU343  ARG346  PHE356  ILE373  ILE376  PHE377  LEU380  LYS471  GLY472 
 MET473  HIS475  LEU476  LEU477  ASN478  MET479  VAL484  VAL487 

> <Gold.Protein.RotatedAtoms>
   37.0761   34.2733   40.7661 H   0  0  0  0  0  0  0  0  0  0  0  0  # atno 496  bound_to 491 

> <Gold.Score>
     Score     S(PLP)   S(hbond)     S(cho)   S(metal)  DE(clash)   DE(tors)     intcor
     32.77     -33.12       0.00       0.00       0.00       0.00       0.34       0.32

> <Gold.PLP.Fitness>
32.7651

> <Gold.PLP.PLP>
-33.1161

> <Gold.PLP.part.hbond>
0.0000

> <Gold.PLP.part.metal>
0.0000

> <Gold.PLP.part.buried>
-1.9631

> <Gold.PLP.part.nonpolar>
-31.0047

> <Gold.PLP.part.repulsive>
0.0535

> <Gold.PLP.ligand.clash>
0.0000

> <Gold.PLP.ligand.torsion>
0.3363

> <Gold.PLP.Chemscore.Hbond>
0.0000

> <Gold.PLP.Chemscore.CHOScore>
0.0000

> <Gold.PLP.Chemscore.Metal>
0.0000

> <Gold.PLP.Chemscore.Internal.Correction>
0.3215

