#       Name:                EN300-6730269_i001
#       Creating user name   aseyller
#       Creation time:       Fri Apr 21 18:44:07 2023


#       File generated by GOLD software.
#

@<TRIPOS>MOLECULE
EN300-6730269_i001|Sulfonylchlorides|mol2|620|dock20
    18    18     1
SMALL
USER_CHARGES


@<TRIPOS>ATOM
      1 F1          32.3925  34.5197  37.3336 F              1 <1>                0.0000
      2 C2          31.9223  35.7821  37.7109 C.3            1 <1>                0.0000
      3 F3          32.9915  36.5925  38.1073 F              1 <1>                0.0000
      4 C4          31.1712  36.4368  36.5383 C.3            1 <1>                0.0000
      5 C5          29.7248  36.6745  37.0193 C.3            1 <1>                0.0000
      6 C6          29.8419  36.7292  38.5627 C.3            1 <1>                0.0000
      7 C7          30.9071  35.6449  38.8643 C.3            1 <1>                0.0000
      8 S8          28.2588  36.3100  39.3428 S.o2           1 <1>                0.0000
      9 O9          27.3056  37.3404  39.1218 O.2            1 <1>                0.0000
     10 O10         27.9324  34.9472  39.1073 O.2            1 <1>                0.0000
     11 Cl11        28.6354  36.3966  41.3256 Cl             1 <1>                0.0000
     12 H12         31.6392  37.3864  36.2787 H              1 <1>                0.0000
     13 H13         31.1731  35.7710  35.6753 H              1 <1>                0.0000
     14 H14         29.3445  37.6196  36.6318 H              1 <1>                0.0000
     15 H15         29.0811  35.8494  36.7145 H              1 <1>                0.0000
     16 H16         30.1870  37.7102  38.8894 H              1 <1>                0.0000
     17 H17         30.4546  34.6533  38.8576 H              1 <1>                0.0000
     18 H18         31.3885  35.8391  39.8228 H              1 <1>                0.0000
@<TRIPOS>BOND
    1    1    2 1     
    2    2    3 1     
    3    2    4 1     
    4    2    7 1     
    5    4    5 1     
    6    4   12 1     
    7    4   13 1     
    8    5    6 1     
    9    5   14 1     
   10    5   15 1     
   11    6    7 1     
   12    6    8 1     
   13    6   16 1     
   14    7   17 1     
   15    7   18 1     
   16    8    9 2     
   17    8   10 2     
   18    8   11 1     
@<TRIPOS>SUBSTRUCTURE
      1 ****           1
@<TRIPOS>COMMENT
> <Gold.Version>
2022.2.0

> <Gold.Id.Protein>
1qkm|1qkm_protein|mol2

> <Gold.Protein.RotatedTorsions>
[  496  491  490  487 ] final -145.58 input  -89.99 | X-H torsion

> <Gold.Protein.ActiveResidues>
 MET295  LEU298  THR299  LEU301  ALA302  GLU305  TRP335  MET336  LEU339  MET340 
 GLY342  LEU343  ARG346  PHE356  ILE373  ILE376  PHE377  LEU380  LYS471  GLY472 
 MET473  HIS475  LEU476  LEU477  ASN478  MET479  VAL484  VAL487 

> <Gold.Protein.RotatedAtoms>
   37.2075   33.9885   40.7202 H   0  0  0  0  0  0  0  0  0  0  0  0  # atno 496  bound_to 491 

> <Gold.Score>
     Score     S(PLP)   S(hbond)     S(cho)   S(metal)  DE(clash)   DE(tors)     intcor
     30.62     -30.64       0.00       0.00       0.00       0.00       0.17       0.32

> <Gold.PLP.Fitness>
30.6213

> <Gold.PLP.PLP>
-30.6387

> <Gold.PLP.part.hbond>
0.0000

> <Gold.PLP.part.metal>
0.0000

> <Gold.PLP.part.buried>
-1.0525

> <Gold.PLP.part.nonpolar>
-30.2206

> <Gold.PLP.part.repulsive>
0.0019

> <Gold.PLP.ligand.clash>
0.0000

> <Gold.PLP.ligand.torsion>
0.1694

> <Gold.PLP.Chemscore.Hbond>
0.0000

> <Gold.PLP.Chemscore.CHOScore>
0.0000

> <Gold.PLP.Chemscore.Metal>
0.0000

> <Gold.PLP.Chemscore.Internal.Correction>
0.3215

