#       Name:                EN300-04840_i001
#       Creating user name   aseyller
#       Creation time:       Fri Apr 21 16:41:29 2023


#       File generated by GOLD software.
#

@<TRIPOS>MOLECULE
EN300-04840_i001|benzaldehydes|mol2|65|dock3
    23    23     1
SMALL
USER_CHARGES


@<TRIPOS>ATOM
      1 C1          31.8939  33.3231  38.1996 C.3            1 <1>                0.0000
      2 O2          31.4961  34.4052  39.0439 O.3            1 <1>                0.0000
      3 C3          31.2076  35.5878  38.4374 C.ar           1 <1>                0.0000
      4 C4          31.8439  35.9339  37.2625 C.ar           1 <1>                0.0000
      5 C5          31.5439  37.1523  36.6407 C.ar           1 <1>                0.0000
      6 C6          32.2171  37.5263  35.3901 C.2            1 <1>                0.0000
      7 O7          33.0110  36.7658  34.8777 O.2            1 <1>                0.0000
      8 C8          30.6001  38.0126  37.2145 C.ar           1 <1>                0.0000
      9 C9          29.9702  37.6593  38.3867 C.ar           1 <1>                0.0000
     10 C10         30.2646  36.4480  38.9999 C.ar           1 <1>                0.0000
     11 O11         29.6399  36.1050  40.1553 O.3            1 <1>                0.0000
     12 C12         28.3662  36.7022  40.4062 C.3            1 <1>                0.0000
     13 C13         27.4317  36.3353  39.3296 C.1            1 <1>                0.0000
     14 N14         26.7105  36.0522  38.4988 N.1            1 <1>                0.0000
     15 H15         31.0950  33.1021  37.4916 H              1 <1>                0.0000
     16 H16         32.7961  33.6004  37.6543 H              1 <1>                0.0000
     17 H17         32.0939  32.4416  38.8086 H              1 <1>                0.0000
     18 H18         32.5715  35.2670  36.8240 H              1 <1>                0.0000
     19 H19         32.0052  38.4785  34.9267 H              1 <1>                0.0000
     20 H20         30.3664  38.9532  36.7380 H              1 <1>                0.0000
     21 H21         29.2424  38.3236  38.8284 H              1 <1>                0.0000
     22 H22         27.9792  36.3454  41.3606 H              1 <1>                0.0000
     23 H23         28.4737  37.7864  40.4402 H              1 <1>                0.0000
@<TRIPOS>BOND
    1    1    2 1     
    2    1   15 1     
    3    1   16 1     
    4    1   17 1     
    5    2    3 1     
    6    3    4 ar    
    7    3   10 ar    
    8    4    5 ar    
    9    4   18 1     
   10    5    6 1     
   11    5    8 ar    
   12    6    7 2     
   13    6   19 1     
   14    8    9 ar    
   15    8   20 1     
   16    9   10 ar    
   17    9   21 1     
   18   10   11 1     
   19   11   12 1     
   20   12   13 1     
   21   12   22 1     
   22   12   23 1     
   23   13   14 3     
@<TRIPOS>SUBSTRUCTURE
      1 ****           1
@<TRIPOS>COMMENT
> <Gold.Version>
2022.2.0

> <Gold.Id.Protein>
1qkm|1qkm_protein|mol2

> <Gold.Protein.RotatedTorsions>
[  496  491  490  487 ] final  -27.19 input  -89.99 | X-H torsion

> <Gold.Protein.ActiveResidues>
 MET295  LEU298  THR299  LEU301  ALA302  GLU305  TRP335  MET336  LEU339  MET340 
 GLY342  LEU343  ARG346  PHE356  ILE373  ILE376  PHE377  LEU380  LYS471  GLY472 
 MET473  HIS475  LEU476  LEU477  ASN478  MET479  VAL484  VAL487 

> <Gold.Protein.RotatedAtoms>
   36.3038   34.5448   41.9445 H   0  0  0  0  0  0  0  0  0  0  0  0  # atno 496  bound_to 491 

> <Gold.Score>
     Score     S(PLP)   S(hbond)     S(cho)   S(metal)  DE(clash)   DE(tors)     intcor
     40.98     -41.03       0.00       0.00       0.00       0.00       0.72       1.39

> <Gold.PLP.Fitness>
40.9803

> <Gold.PLP.PLP>
-41.0269

> <Gold.PLP.part.hbond>
0.0000

> <Gold.PLP.part.metal>
0.0000

> <Gold.PLP.part.buried>
-6.1970

> <Gold.PLP.part.nonpolar>
-35.5860

> <Gold.PLP.part.repulsive>
0.9075

> <Gold.PLP.ligand.clash>
0.0000

> <Gold.PLP.ligand.torsion>
0.7188

> <Gold.PLP.Chemscore.Hbond>
0.0000

> <Gold.PLP.Chemscore.CHOScore>
0.0000

> <Gold.PLP.Chemscore.Metal>
0.0000

> <Gold.PLP.Chemscore.Internal.Correction>
1.3910

