#       Name:                EN300-04840_i001
#       Creating user name   aseyller
#       Creation time:       Fri Apr 21 16:41:48 2023


#       File generated by GOLD software.
#

@<TRIPOS>MOLECULE
EN300-04840_i001|benzaldehydes|mol2|65|dock20
    23    23     1
SMALL
USER_CHARGES


@<TRIPOS>ATOM
      1 C1          31.4994  32.8866  38.2014 C.3            1 <1>                0.0000
      2 O2          32.0986  34.1107  37.7715 O.3            1 <1>                0.0000
      3 C3          31.4075  35.2560  38.0169 C.ar           1 <1>                0.0000
      4 C4          30.5753  35.3378  39.1150 C.ar           1 <1>                0.0000
      5 C5          29.8657  36.5190  39.3645 C.ar           1 <1>                0.0000
      6 C6          28.9789  36.6128  40.5315 C.2            1 <1>                0.0000
      7 O7          28.7997  35.6423  41.2367 O.2            1 <1>                0.0000
      8 C8          30.0044  37.6104  38.4986 C.ar           1 <1>                0.0000
      9 C9          30.8367  37.5199  37.4056 C.ar           1 <1>                0.0000
     10 C10         31.5443  36.3495  37.1618 C.ar           1 <1>                0.0000
     11 O11         32.3638  36.2665  36.0828 O.3            1 <1>                0.0000
     12 C12         32.9742  37.4792  35.6369 C.3            1 <1>                0.0000
     13 C13         32.0477  38.1958  34.7452 C.1            1 <1>                0.0000
     14 N14         31.3327  38.7489  34.0572 N.1            1 <1>                0.0000
     15 H15         31.3515  32.9140  39.2810 H              1 <1>                0.0000
     16 H16         30.5368  32.7597  37.7059 H              1 <1>                0.0000
     17 H17         32.1527  32.0526  37.9451 H              1 <1>                0.0000
     18 H18         30.4715  34.4931  39.7798 H              1 <1>                0.0000
     19 H19         28.4864  37.5460  40.7618 H              1 <1>                0.0000
     20 H20         29.4584  38.5228  38.6877 H              1 <1>                0.0000
     21 H21         30.9429  38.3623  36.7383 H              1 <1>                0.0000
     22 H22         33.2082  38.1060  36.4973 H              1 <1>                0.0000
     23 H23         33.8918  37.2468  35.0965 H              1 <1>                0.0000
@<TRIPOS>BOND
    1    1    2 1     
    2    1   15 1     
    3    1   16 1     
    4    1   17 1     
    5    2    3 1     
    6    3    4 ar    
    7    3   10 ar    
    8    4    5 ar    
    9    4   18 1     
   10    5    6 1     
   11    5    8 ar    
   12    6    7 2     
   13    6   19 1     
   14    8    9 ar    
   15    8   20 1     
   16    9   10 ar    
   17    9   21 1     
   18   10   11 1     
   19   11   12 1     
   20   12   13 1     
   21   12   22 1     
   22   12   23 1     
   23   13   14 3     
@<TRIPOS>SUBSTRUCTURE
      1 ****           1
@<TRIPOS>COMMENT
> <Gold.Version>
2022.2.0

> <Gold.Id.Protein>
1qkm|1qkm_protein|mol2

> <Gold.Protein.RotatedTorsions>
[  496  491  490  487 ] final  -83.63 input  -89.99 | X-H torsion

> <Gold.Protein.ActiveResidues>
 MET295  LEU298  THR299  LEU301  ALA302  GLU305  TRP335  MET336  LEU339  MET340 
 GLY342  LEU343  ARG346  PHE356  ILE373  ILE376  PHE377  LEU380  LYS471  GLY472 
 MET473  HIS475  LEU476  LEU477  ASN478  MET479  VAL484  VAL487 

> <Gold.Protein.RotatedAtoms>
   36.6988   34.6900   41.1581 H   0  0  0  0  0  0  0  0  0  0  0  0  # atno 496  bound_to 491 

> <Gold.Score>
     Score     S(PLP)   S(hbond)     S(cho)   S(metal)  DE(clash)   DE(tors)     intcor
     40.93     -41.33       0.00       0.00       0.00       0.00       0.89       1.38

> <Gold.PLP.Fitness>
40.9273

> <Gold.PLP.PLP>
-41.3279

> <Gold.PLP.part.hbond>
0.0000

> <Gold.PLP.part.metal>
0.0000

> <Gold.PLP.part.buried>
-3.9370

> <Gold.PLP.part.nonpolar>
-38.0771

> <Gold.PLP.part.repulsive>
0.3003

> <Gold.PLP.ligand.clash>
0.0000

> <Gold.PLP.ligand.torsion>
0.8892

> <Gold.PLP.Chemscore.Hbond>
0.0000

> <Gold.PLP.Chemscore.CHOScore>
0.0000

> <Gold.PLP.Chemscore.Metal>
0.0000

> <Gold.PLP.Chemscore.Internal.Correction>
1.3779

