#       Name:                EN300-04840_i001
#       Creating user name   aseyller
#       Creation time:       Fri Apr 21 16:41:40 2023


#       File generated by GOLD software.
#

@<TRIPOS>MOLECULE
EN300-04840_i001|benzaldehydes|mol2|65|dock13
    23    23     1
SMALL
USER_CHARGES


@<TRIPOS>ATOM
      1 C1          32.0988  33.7350  38.1876 C.3            1 <1>                0.0000
      2 O2          32.0663  35.1374  37.9152 O.3            1 <1>                0.0000
      3 C3          30.9456  35.8127  38.2861 C.ar           1 <1>                0.0000
      4 C4          30.2118  35.3863  39.3747 C.ar           1 <1>                0.0000
      5 C5          29.0586  36.0845  39.7538 C.ar           1 <1>                0.0000
      6 C6          28.2736  35.6365  40.9115 C.2            1 <1>                0.0000
      7 O7          27.2386  36.2006  41.1974 O.2            1 <1>                0.0000
      8 C8          28.6565  37.2112  39.0264 C.ar           1 <1>                0.0000
      9 C9          29.3944  37.6293  37.9420 C.ar           1 <1>                0.0000
     10 C10         30.5412  36.9392  37.5698 C.ar           1 <1>                0.0000
     11 O11         31.2650  37.3566  36.4999 O.3            1 <1>                0.0000
     12 C12         30.5567  38.0413  35.4648 C.3            1 <1>                0.0000
     13 C13         30.4379  39.4669  35.8118 C.1            1 <1>                0.0000
     14 N14         30.3463  40.5671  36.0796 N.1            1 <1>                0.0000
     15 H15         31.9996  33.5709  39.2607 H              1 <1>                0.0000
     16 H16         31.2758  33.2447  37.6676 H              1 <1>                0.0000
     17 H17         33.0456  33.3196  37.8425 H              1 <1>                0.0000
     18 H18         30.5260  34.5165  39.9323 H              1 <1>                0.0000
     19 H19         28.6179  34.8047  41.5081 H              1 <1>                0.0000
     20 H20         27.7675  37.7519  39.3158 H              1 <1>                0.0000
     21 H21         29.0833  38.4985  37.3816 H              1 <1>                0.0000
     22 H22         31.0992  37.9401  34.5249 H              1 <1>                0.0000
     23 H23         29.5617  37.6091  35.3582 H              1 <1>                0.0000
@<TRIPOS>BOND
    1    1    2 1     
    2    1   15 1     
    3    1   16 1     
    4    1   17 1     
    5    2    3 1     
    6    3    4 ar    
    7    3   10 ar    
    8    4    5 ar    
    9    4   18 1     
   10    5    6 1     
   11    5    8 ar    
   12    6    7 2     
   13    6   19 1     
   14    8    9 ar    
   15    8   20 1     
   16    9   10 ar    
   17    9   21 1     
   18   10   11 1     
   19   11   12 1     
   20   12   13 1     
   21   12   22 1     
   22   12   23 1     
   23   13   14 3     
@<TRIPOS>SUBSTRUCTURE
      1 ****           1
@<TRIPOS>COMMENT
> <Gold.Version>
2022.2.0

> <Gold.Id.Protein>
1qkm|1qkm_protein|mol2

> <Gold.Protein.RotatedTorsions>
[  496  491  490  487 ] final   27.06 input  -89.99 | X-H torsion

> <Gold.Protein.ActiveResidues>
 MET295  LEU298  THR299  LEU301  ALA302  GLU305  TRP335  MET336  LEU339  MET340 
 GLY342  LEU343  ARG346  PHE356  ILE373  ILE376  PHE377  LEU380  LYS471  GLY472 
 MET473  HIS475  LEU476  LEU477  ASN478  MET479  VAL484  VAL487 

> <Gold.Protein.RotatedAtoms>
   36.3320   33.8014   42.3761 H   0  0  0  0  0  0  0  0  0  0  0  0  # atno 496  bound_to 491 

> <Gold.Score>
     Score     S(PLP)   S(hbond)     S(cho)   S(metal)  DE(clash)   DE(tors)     intcor
     40.11     -40.50       0.00       0.00       0.00       0.00       0.88       1.38

> <Gold.PLP.Fitness>
40.1089

> <Gold.PLP.PLP>
-40.4981

> <Gold.PLP.part.hbond>
0.0000

> <Gold.PLP.part.metal>
0.0000

> <Gold.PLP.part.buried>
-3.3412

> <Gold.PLP.part.nonpolar>
-36.6115

> <Gold.PLP.part.repulsive>
0.1446

> <Gold.PLP.ligand.clash>
0.0000

> <Gold.PLP.ligand.torsion>
0.8835

> <Gold.PLP.Chemscore.Hbond>
0.0000

> <Gold.PLP.Chemscore.CHOScore>
0.0000

> <Gold.PLP.Chemscore.Metal>
0.0000

> <Gold.PLP.Chemscore.Internal.Correction>
1.3779

