#       Name:                EN300-04840_i001
#       Creating user name   aseyller
#       Creation time:       Fri Apr 21 16:41:33 2023


#       File generated by GOLD software.
#

@<TRIPOS>MOLECULE
EN300-04840_i001|benzaldehydes|mol2|65|dock7
    23    23     1
SMALL
USER_CHARGES


@<TRIPOS>ATOM
      1 C1          28.9568  39.6507  36.3568 C.3            1 <1>                0.0000
      2 O2          29.4357  38.3074  36.4468 O.3            1 <1>                0.0000
      3 C3          28.9432  37.5426  37.4578 C.ar           1 <1>                0.0000
      4 C4          27.6677  37.7679  37.9349 C.ar           1 <1>                0.0000
      5 C5          27.1639  36.9782  38.9757 C.ar           1 <1>                0.0000
      6 C6          25.8074  37.2123  39.4876 C.2            1 <1>                0.0000
      7 O7          25.4989  36.8159  40.5917 O.2            1 <1>                0.0000
      8 C8          27.9570  35.9644  39.5267 C.ar           1 <1>                0.0000
      9 C9          29.2281  35.7468  39.0447 C.ar           1 <1>                0.0000
     10 C10         29.7250  36.5273  38.0085 C.ar           1 <1>                0.0000
     11 O11         30.9790  36.3076  37.5371 O.3            1 <1>                0.0000
     12 C12         31.9075  35.6867  38.4283 C.3            1 <1>                0.0000
     13 C13         31.7995  34.2236  38.3084 C.1            1 <1>                0.0000
     14 N14         31.7161  33.0944  38.2157 N.1            1 <1>                0.0000
     15 H15         27.8757  39.6425  36.2179 H              1 <1>                0.0000
     16 H16         29.2012  40.1858  37.2745 H              1 <1>                0.0000
     17 H17         29.4282  40.1486  35.5094 H              1 <1>                0.0000
     18 H18         27.0601  38.5514  37.5067 H              1 <1>                0.0000
     19 H19         25.0845  37.7374  38.8809 H              1 <1>                0.0000
     20 H20         27.5718  35.3536  40.3298 H              1 <1>                0.0000
     21 H21         29.8389  34.9645  39.4704 H              1 <1>                0.0000
     22 H22         32.9203  35.9984  38.1730 H              1 <1>                0.0000
     23 H23         31.6831  35.9849  39.4525 H              1 <1>                0.0000
@<TRIPOS>BOND
    1    1    2 1     
    2    1   15 1     
    3    1   16 1     
    4    1   17 1     
    5    2    3 1     
    6    3    4 ar    
    7    3   10 ar    
    8    4    5 ar    
    9    4   18 1     
   10    5    6 1     
   11    5    8 ar    
   12    6    7 2     
   13    6   19 1     
   14    8    9 ar    
   15    8   20 1     
   16    9   10 ar    
   17    9   21 1     
   18   10   11 1     
   19   11   12 1     
   20   12   13 1     
   21   12   22 1     
   22   12   23 1     
   23   13   14 3     
@<TRIPOS>SUBSTRUCTURE
      1 ****           1
@<TRIPOS>COMMENT
> <Gold.Version>
2022.2.0

> <Gold.Id.Protein>
1qkm|1qkm_protein|mol2

> <Gold.Protein.RotatedTorsions>
[  496  491  490  487 ] final  136.44 input  -89.99 | X-H torsion

> <Gold.Protein.ActiveResidues>
 MET295  LEU298  THR299  LEU301  ALA302  GLU305  TRP335  MET336  LEU339  MET340 
 GLY342  LEU343  ARG346  PHE356  ILE373  ILE376  PHE377  LEU380  LYS471  GLY472 
 MET473  HIS475  LEU476  LEU477  ASN478  MET479  VAL484  VAL487 

> <Gold.Protein.RotatedAtoms>
   37.1938   33.0031   41.3815 H   0  0  0  0  0  0  0  0  0  0  0  0  # atno 496  bound_to 491 

> <Gold.Score>
     Score     S(PLP)   S(hbond)     S(cho)   S(metal)  DE(clash)   DE(tors)     intcor
     42.16     -42.75       0.00       0.00       0.00       0.00       0.98       1.38

> <Gold.PLP.Fitness>
42.1629

> <Gold.PLP.PLP>
-42.7475

> <Gold.PLP.part.hbond>
0.0000

> <Gold.PLP.part.metal>
0.0000

> <Gold.PLP.part.buried>
-5.5323

> <Gold.PLP.part.nonpolar>
-37.5218

> <Gold.PLP.part.repulsive>
0.1973

> <Gold.PLP.ligand.clash>
0.0000

> <Gold.PLP.ligand.torsion>
0.9812

> <Gold.PLP.Chemscore.Hbond>
0.0000

> <Gold.PLP.Chemscore.CHOScore>
0.0000

> <Gold.PLP.Chemscore.Metal>
0.0000

> <Gold.PLP.Chemscore.Internal.Correction>
1.3779

