#       Name:                EN300-04840_i001
#       Creating user name   aseyller
#       Creation time:       Fri Apr 21 16:41:47 2023


#       File generated by GOLD software.
#

@<TRIPOS>MOLECULE
EN300-04840_i001|benzaldehydes|mol2|65|dock19
    23    23     1
SMALL
USER_CHARGES


@<TRIPOS>ATOM
      1 C1          30.3795  40.1969  36.2150 C.3            1 <1>                0.0000
      2 O2          29.6650  39.0855  36.7595 O.3            1 <1>                0.0000
      3 C3          30.3739  37.9475  36.9874 C.ar           1 <1>                0.0000
      4 C4          31.5178  37.6897  36.2593 C.ar           1 <1>                0.0000
      5 C5          32.2453  36.5170  36.4972 C.ar           1 <1>                0.0000
      6 C6          33.4637  36.2371  35.7264 C.2            1 <1>                0.0000
      7 O7          33.5984  36.7029  34.6145 O.2            1 <1>                0.0000
      8 C8          31.8081  35.6125  37.4723 C.ar           1 <1>                0.0000
      9 C9          30.6658  35.8777  38.1938 C.ar           1 <1>                0.0000
     10 C10         29.9478  37.0438  37.9608 C.ar           1 <1>                0.0000
     11 O11         28.8225  37.3000  38.6757 O.3            1 <1>                0.0000
     12 C12         28.0688  36.1722  39.1253 C.3            1 <1>                0.0000
     13 C13         26.7429  36.6190  39.5827 C.1            1 <1>                0.0000
     14 N14         25.7197  36.9639  39.9357 N.1            1 <1>                0.0000
     15 H15         31.1809  40.4825  36.8963 H              1 <1>                0.0000
     16 H16         30.8044  39.9183  35.2506 H              1 <1>                0.0000
     17 H17         29.6981  41.0373  36.0828 H              1 <1>                0.0000
     18 H18         31.8508  38.3905  35.5080 H              1 <1>                0.0000
     19 H19         34.2397  35.6164  36.1495 H              1 <1>                0.0000
     20 H20         32.3664  34.7069  37.6583 H              1 <1>                0.0000
     21 H21         30.3295  35.1793  38.9457 H              1 <1>                0.0000
     22 H22         27.9507  35.4639  38.3053 H              1 <1>                0.0000
     23 H23         28.5939  35.6895  39.9495 H              1 <1>                0.0000
@<TRIPOS>BOND
    1    1    2 1     
    2    1   15 1     
    3    1   16 1     
    4    1   17 1     
    5    2    3 1     
    6    3    4 ar    
    7    3   10 ar    
    8    4    5 ar    
    9    4   18 1     
   10    5    6 1     
   11    5    8 ar    
   12    6    7 2     
   13    6   19 1     
   14    8    9 ar    
   15    8   20 1     
   16    9   10 ar    
   17    9   21 1     
   18   10   11 1     
   19   11   12 1     
   20   12   13 1     
   21   12   22 1     
   22   12   23 1     
   23   13   14 3     
@<TRIPOS>SUBSTRUCTURE
      1 ****           1
@<TRIPOS>COMMENT
> <Gold.Version>
2022.2.0

> <Gold.Id.Protein>
1qkm|1qkm_protein|mol2

> <Gold.Protein.RotatedTorsions>
[  496  491  490  487 ] final  -18.72 input  -89.99 | X-H torsion

> <Gold.Protein.ActiveResidues>
 MET295  LEU298  THR299  LEU301  ALA302  GLU305  TRP335  MET336  LEU339  MET340 
 GLY342  LEU343  ARG346  PHE356  ILE373  ILE376  PHE377  LEU380  LYS471  GLY472 
 MET473  HIS475  LEU476  LEU477  ASN478  MET479  VAL484  VAL487 

> <Gold.Protein.RotatedAtoms>
   36.2776   34.4555   42.0482 H   0  0  0  0  0  0  0  0  0  0  0  0  # atno 496  bound_to 491 

> <Gold.Score>
     Score     S(PLP)   S(hbond)     S(cho)   S(metal)  DE(clash)   DE(tors)     intcor
     38.51     -38.98       0.00       0.00       0.00       0.00       0.92       1.38

> <Gold.PLP.Fitness>
38.5094

> <Gold.PLP.PLP>
-38.9809

> <Gold.PLP.part.hbond>
0.0000

> <Gold.PLP.part.metal>
0.0000

> <Gold.PLP.part.buried>
-5.4666

> <Gold.PLP.part.nonpolar>
-34.2982

> <Gold.PLP.part.repulsive>
0.3038

> <Gold.PLP.ligand.clash>
0.0000

> <Gold.PLP.ligand.torsion>
0.9247

> <Gold.PLP.Chemscore.Hbond>
0.0000

> <Gold.PLP.Chemscore.CHOScore>
0.0000

> <Gold.PLP.Chemscore.Metal>
0.0000

> <Gold.PLP.Chemscore.Internal.Correction>
1.3779

