#       Name:                EN300-04840_i001
#       Creating user name   aseyller
#       Creation time:       Fri Apr 21 16:41:44 2023


#       File generated by GOLD software.
#

@<TRIPOS>MOLECULE
EN300-04840_i001|benzaldehydes|mol2|65|dock17
    23    23     1
SMALL
USER_CHARGES


@<TRIPOS>ATOM
      1 C1          28.3688  39.6282  36.6526 C.3            1 <1>                0.0000
      2 O2          29.0919  38.4167  36.8794 O.3            1 <1>                0.0000
      3 C3          28.7325  37.6765  37.9622 C.ar           1 <1>                0.0000
      4 C4          27.4278  37.7006  38.4120 C.ar           1 <1>                0.0000
      5 C5          27.0613  36.9368  39.5270 C.ar           1 <1>                0.0000
      6 C6          25.6747  36.9575  40.0105 C.2            1 <1>                0.0000
      7 O7          25.4356  36.7277  41.1772 O.2            1 <1>                0.0000
      8 C8          28.0207  36.1529  40.1793 C.ar           1 <1>                0.0000
      9 C9          29.3198  36.1350  39.7238 C.ar           1 <1>                0.0000
     10 C10         29.6811  36.8889  38.6144 C.ar           1 <1>                0.0000
     11 O11         30.9635  36.8668  38.1696 O.3            1 <1>                0.0000
     12 C12         31.7043  35.6641  38.3856 C.3            1 <1>                0.0000
     13 C13         32.7894  35.5717  37.3951 C.1            1 <1>                0.0000
     14 N14         33.6268  35.5004  36.6308 N.1            1 <1>                0.0000
     15 H15         27.3121  39.4000  36.5137 H              1 <1>                0.0000
     16 H16         28.4881  40.2887  37.5115 H              1 <1>                0.0000
     17 H17         28.7548  40.1200  35.7597 H              1 <1>                0.0000
     18 H18         26.6916  38.3071  37.9055 H              1 <1>                0.0000
     19 H19         24.8678  37.1772  39.3271 H              1 <1>                0.0000
     20 H20         27.7418  35.5628  41.0398 H              1 <1>                0.0000
     21 H21         30.0589  35.5300  40.2278 H              1 <1>                0.0000
     22 H22         32.1286  35.6739  39.3895 H              1 <1>                0.0000
     23 H23         31.0416  34.8052  38.2797 H              1 <1>                0.0000
@<TRIPOS>BOND
    1    1    2 1     
    2    1   15 1     
    3    1   16 1     
    4    1   17 1     
    5    2    3 1     
    6    3    4 ar    
    7    3   10 ar    
    8    4    5 ar    
    9    4   18 1     
   10    5    6 1     
   11    5    8 ar    
   12    6    7 2     
   13    6   19 1     
   14    8    9 ar    
   15    8   20 1     
   16    9   10 ar    
   17    9   21 1     
   18   10   11 1     
   19   11   12 1     
   20   12   13 1     
   21   12   22 1     
   22   12   23 1     
   23   13   14 3     
@<TRIPOS>SUBSTRUCTURE
      1 ****           1
@<TRIPOS>COMMENT
> <Gold.Version>
2022.2.0

> <Gold.Id.Protein>
1qkm|1qkm_protein|mol2

> <Gold.Protein.RotatedTorsions>
[  496  491  490  487 ] final   23.08 input  -89.99 | X-H torsion

> <Gold.Protein.ActiveResidues>
 MET295  LEU298  THR299  LEU301  ALA302  GLU305  TRP335  MET336  LEU339  MET340 
 GLY342  LEU343  ARG346  PHE356  ILE373  ILE376  PHE377  LEU380  LYS471  GLY472 
 MET473  HIS475  LEU476  LEU477  ASN478  MET479  VAL484  VAL487 

> <Gold.Protein.RotatedAtoms>
   36.3144   33.8637   42.3665 H   0  0  0  0  0  0  0  0  0  0  0  0  # atno 496  bound_to 491 

> <Gold.Score>
     Score     S(PLP)   S(hbond)     S(cho)   S(metal)  DE(clash)   DE(tors)     intcor
     40.48     -41.16       0.00       0.00       0.00       0.00       1.03       1.38

> <Gold.PLP.Fitness>
40.4789

> <Gold.PLP.PLP>
-41.1623

> <Gold.PLP.part.hbond>
0.0000

> <Gold.PLP.part.metal>
0.0000

> <Gold.PLP.part.buried>
-5.3186

> <Gold.PLP.part.nonpolar>
-36.6937

> <Gold.PLP.part.repulsive>
0.2456

> <Gold.PLP.ligand.clash>
0.0000

> <Gold.PLP.ligand.torsion>
1.0307

> <Gold.PLP.Chemscore.Hbond>
0.0000

> <Gold.PLP.Chemscore.CHOScore>
0.0000

> <Gold.PLP.Chemscore.Metal>
0.0000

> <Gold.PLP.Chemscore.Internal.Correction>
1.3779

