#       Name:                EN300-04840_i001
#       Creating user name   aseyller
#       Creation time:       Fri Apr 21 16:41:31 2023


#       File generated by GOLD software.
#

@<TRIPOS>MOLECULE
EN300-04840_i001|benzaldehydes|mol2|65|dock5
    23    23     1
SMALL
USER_CHARGES


@<TRIPOS>ATOM
      1 C1          32.0972  33.7202  38.1465 C.3            1 <1>                0.0000
      2 O2          31.4381  34.5624  39.0943 O.3            1 <1>                0.0000
      3 C3          30.8152  35.6694  38.6086 C.ar           1 <1>                0.0000
      4 C4          31.2970  36.2901  37.4738 C.ar           1 <1>                0.0000
      5 C5          30.6527  37.4296  36.9764 C.ar           1 <1>                0.0000
      6 C6          31.1598  38.0944  35.7689 C.2            1 <1>                0.0000
      7 O7          30.6319  39.1105  35.3690 O.2            1 <1>                0.0000
      8 C8          29.5234  37.9330  37.6332 C.ar           1 <1>                0.0000
      9 C9          29.0498  37.3076  38.7646 C.ar           1 <1>                0.0000
     10 C10         29.6865  36.1741  39.2542 C.ar           1 <1>                0.0000
     11 O11         29.2145  35.5615  40.3700 O.3            1 <1>                0.0000
     12 C12         28.5010  36.3745  41.3037 C.3            1 <1>                0.0000
     13 C13         27.0773  36.4147  40.9316 C.1            1 <1>                0.0000
     14 N14         25.9786  36.4458  40.6444 N.1            1 <1>                0.0000
     15 H15         31.3717  33.3533  37.4203 H              1 <1>                0.0000
     16 H16         32.8710  34.2893  37.6312 H              1 <1>                0.0000
     17 H17         32.5515  32.8758  38.6647 H              1 <1>                0.0000
     18 H18         32.1687  35.8980  36.9709 H              1 <1>                0.0000
     19 H19         32.0028  37.6785  35.2372 H              1 <1>                0.0000
     20 H20         29.0241  38.8118  37.2527 H              1 <1>                0.0000
     21 H21         28.1786  37.6968  39.2704 H              1 <1>                0.0000
     22 H22         28.6033  35.9540  42.3041 H              1 <1>                0.0000
     23 H23         28.9086  37.3854  41.2911 H              1 <1>                0.0000
@<TRIPOS>BOND
    1    1    2 1     
    2    1   15 1     
    3    1   16 1     
    4    1   17 1     
    5    2    3 1     
    6    3    4 ar    
    7    3   10 ar    
    8    4    5 ar    
    9    4   18 1     
   10    5    6 1     
   11    5    8 ar    
   12    6    7 2     
   13    6   19 1     
   14    8    9 ar    
   15    8   20 1     
   16    9   10 ar    
   17    9   21 1     
   18   10   11 1     
   19   11   12 1     
   20   12   13 1     
   21   12   22 1     
   22   12   23 1     
   23   13   14 3     
@<TRIPOS>SUBSTRUCTURE
      1 ****           1
@<TRIPOS>COMMENT
> <Gold.Version>
2022.2.0

> <Gold.Id.Protein>
1qkm|1qkm_protein|mol2

> <Gold.Protein.RotatedTorsions>
[  496  491  490  487 ] final  -78.06 input  -89.99 | X-H torsion

> <Gold.Protein.ActiveResidues>
 MET295  LEU298  THR299  LEU301  ALA302  GLU305  TRP335  MET336  LEU339  MET340 
 GLY342  LEU343  ARG346  PHE356  ILE373  ILE376  PHE377  LEU380  LYS471  GLY472 
 MET473  HIS475  LEU476  LEU477  ASN478  MET479  VAL484  VAL487 

> <Gold.Protein.RotatedAtoms>
   36.6485   34.7135   41.2310 H   0  0  0  0  0  0  0  0  0  0  0  0  # atno 496  bound_to 491 

> <Gold.Score>
     Score     S(PLP)   S(hbond)     S(cho)   S(metal)  DE(clash)   DE(tors)     intcor
     41.08     -41.50       0.00       0.00       0.00       0.00       0.91       1.39

> <Gold.PLP.Fitness>
41.0808

> <Gold.PLP.PLP>
-41.5027

> <Gold.PLP.part.hbond>
0.0000

> <Gold.PLP.part.metal>
0.0000

> <Gold.PLP.part.buried>
-5.6269

> <Gold.PLP.part.nonpolar>
-37.2641

> <Gold.PLP.part.repulsive>
0.9331

> <Gold.PLP.ligand.clash>
0.0000

> <Gold.PLP.ligand.torsion>
0.9064

> <Gold.PLP.Chemscore.Hbond>
0.0000

> <Gold.PLP.Chemscore.CHOScore>
0.0000

> <Gold.PLP.Chemscore.Metal>
0.0000

> <Gold.PLP.Chemscore.Internal.Correction>
1.3910

