#       Name:                EN300-04840_i001
#       Creating user name   aseyller
#       Creation time:       Fri Apr 21 16:41:36 2023


#       File generated by GOLD software.
#

@<TRIPOS>MOLECULE
EN300-04840_i001|benzaldehydes|mol2|65|dock10
    23    23     1
SMALL
USER_CHARGES


@<TRIPOS>ATOM
      1 C1          31.6538  34.1625  38.5770 C.3            1 <1>                0.0000
      2 O2          30.8877  35.3425  38.8274 O.3            1 <1>                0.0000
      3 C3          30.7590  36.2248  37.8005 C.ar           1 <1>                0.0000
      4 C4          31.7614  36.3378  36.8584 C.ar           1 <1>                0.0000
      5 C5          31.6251  37.2471  35.8022 C.ar           1 <1>                0.0000
      6 C6          32.6878  37.3720  34.7961 C.2            1 <1>                0.0000
      7 O7          33.6962  36.7049  34.8931 O.2            1 <1>                0.0000
      8 C8          30.4727  38.0366  35.7079 C.ar           1 <1>                0.0000
      9 C9          29.4779  37.9173  36.6521 C.ar           1 <1>                0.0000
     10 C10         29.6116  37.0111  37.6965 C.ar           1 <1>                0.0000
     11 O11         28.6271  36.8976  38.6243 O.3            1 <1>                0.0000
     12 C12         27.2931  37.1713  38.1913 C.3            1 <1>                0.0000
     13 C13         26.3752  37.0730  39.3378 C.1            1 <1>                0.0000
     14 N14         25.6668  36.9972  40.2227 N.1            1 <1>                0.0000
     15 H15         31.1981  33.5995  37.7624 H              1 <1>                0.0000
     16 H16         32.6709  34.4415  38.3013 H              1 <1>                0.0000
     17 H17         31.6770  33.5467  39.4760 H              1 <1>                0.0000
     18 H18         32.6486  35.7268  36.9358 H              1 <1>                0.0000
     19 H19         32.5714  38.0577  33.9700 H              1 <1>                0.0000
     20 H20         30.3643  38.7392  34.8948 H              1 <1>                0.0000
     21 H21         28.5894  38.5267  36.5783 H              1 <1>                0.0000
     22 H22         27.2458  38.1768  37.7732 H              1 <1>                0.0000
     23 H23         27.0024  36.4474  37.4300 H              1 <1>                0.0000
@<TRIPOS>BOND
    1    1    2 1     
    2    1   15 1     
    3    1   16 1     
    4    1   17 1     
    5    2    3 1     
    6    3    4 ar    
    7    3   10 ar    
    8    4    5 ar    
    9    4   18 1     
   10    5    6 1     
   11    5    8 ar    
   12    6    7 2     
   13    6   19 1     
   14    8    9 ar    
   15    8   20 1     
   16    9   10 ar    
   17    9   21 1     
   18   10   11 1     
   19   11   12 1     
   20   12   13 1     
   21   12   22 1     
   22   12   23 1     
   23   13   14 3     
@<TRIPOS>SUBSTRUCTURE
      1 ****           1
@<TRIPOS>COMMENT
> <Gold.Version>
2022.2.0

> <Gold.Id.Protein>
1qkm|1qkm_protein|mol2

> <Gold.Protein.RotatedTorsions>
[  496  491  490  487 ] final  156.13 input  -89.99 | X-H torsion

> <Gold.Protein.ActiveResidues>
 MET295  LEU298  THR299  LEU301  ALA302  GLU305  TRP335  MET336  LEU339  MET340 
 GLY342  LEU343  ARG346  PHE356  ILE373  ILE376  PHE377  LEU380  LYS471  GLY472 
 MET473  HIS475  LEU476  LEU477  ASN478  MET479  VAL484  VAL487 

> <Gold.Protein.RotatedAtoms>
   37.2853   33.1637   41.1172 H   0  0  0  0  0  0  0  0  0  0  0  0  # atno 496  bound_to 491 

> <Gold.Score>
     Score     S(PLP)   S(hbond)     S(cho)   S(metal)  DE(clash)   DE(tors)     intcor
     40.59     -40.72       0.00       0.00       0.00       0.00       0.75       1.38

> <Gold.PLP.Fitness>
40.5880

> <Gold.PLP.PLP>
-40.7156

> <Gold.PLP.part.hbond>
0.0000

> <Gold.PLP.part.metal>
0.0000

> <Gold.PLP.part.buried>
-5.6468

> <Gold.PLP.part.nonpolar>
-35.8281

> <Gold.PLP.part.repulsive>
0.3737

> <Gold.PLP.ligand.clash>
0.0000

> <Gold.PLP.ligand.torsion>
0.7528

> <Gold.PLP.Chemscore.Hbond>
0.0000

> <Gold.PLP.Chemscore.CHOScore>
0.0000

> <Gold.PLP.Chemscore.Metal>
0.0000

> <Gold.PLP.Chemscore.Internal.Correction>
1.3779

