#       Name:                EN300-04840_i001
#       Creating user name   aseyller
#       Creation time:       Fri Apr 21 16:41:26 2023


#       File generated by GOLD software.
#

@<TRIPOS>MOLECULE
EN300-04840_i001|benzaldehydes|mol2|65|dock1
    23    23     1
SMALL
USER_CHARGES


@<TRIPOS>ATOM
      1 C1          29.2018  39.4115  36.9966 C.3            1 <1>                0.0000
      2 O2          28.4832  38.2879  37.5094 O.3            1 <1>                0.0000
      3 C3          29.2191  37.2686  38.0280 C.ar           1 <1>                0.0000
      4 C4          30.5178  37.0704  37.6047 C.ar           1 <1>                0.0000
      5 C5          31.2726  36.0200  38.1413 C.ar           1 <1>                0.0000
      6 C6          32.6553  35.8041  37.6956 C.2            1 <1>                0.0000
      7 O7          33.0901  36.4217  36.7465 O.2            1 <1>                0.0000
      8 C8          30.7055  35.1766  39.1041 C.ar           1 <1>                0.0000
      9 C9          29.4093  35.3815  39.5204 C.ar           1 <1>                0.0000
     10 C10         28.6631  36.4271  38.9915 C.ar           1 <1>                0.0000
     11 O11         27.3856  36.6244  39.4063 O.3            1 <1>                0.0000
     12 C12         26.9990  36.0035  40.6338 C.3            1 <1>                0.0000
     13 C13         25.8318  36.7054  41.1924 C.1            1 <1>                0.0000
     14 N14         24.9312  37.2471  41.6235 N.1            1 <1>                0.0000
     15 H15         29.7976  39.8563  37.7936 H              1 <1>                0.0000
     16 H16         29.8591  39.0852  36.1905 H              1 <1>                0.0000
     17 H17         28.4971  40.1499  36.6143 H              1 <1>                0.0000
     18 H18         30.9507  37.7237  36.8615 H              1 <1>                0.0000
     19 H19         33.2849  35.0954  38.2129 H              1 <1>                0.0000
     20 H20         31.2845  34.3652  39.5199 H              1 <1>                0.0000
     21 H21         28.9728  34.7303  40.2632 H              1 <1>                0.0000
     22 H22         26.7413  34.9608  40.4483 H              1 <1>                0.0000
     23 H23         27.8260  36.0528  41.3422 H              1 <1>                0.0000
@<TRIPOS>BOND
    1    1    2 1     
    2    1   15 1     
    3    1   16 1     
    4    1   17 1     
    5    2    3 1     
    6    3    4 ar    
    7    3   10 ar    
    8    4    5 ar    
    9    4   18 1     
   10    5    6 1     
   11    5    8 ar    
   12    6    7 2     
   13    6   19 1     
   14    8    9 ar    
   15    8   20 1     
   16    9   10 ar    
   17    9   21 1     
   18   10   11 1     
   19   11   12 1     
   20   12   13 1     
   21   12   22 1     
   22   12   23 1     
   23   13   14 3     
@<TRIPOS>SUBSTRUCTURE
      1 ****           1
@<TRIPOS>COMMENT
> <Gold.Version>
2022.2.0

> <Gold.Id.Protein>
1qkm|1qkm_protein|mol2

> <Gold.Protein.RotatedTorsions>
[  496  491  490  487 ] final   98.02 input  -89.99 | X-H torsion

> <Gold.Protein.ActiveResidues>
 MET295  LEU298  THR299  LEU301  ALA302  GLU305  TRP335  MET336  LEU339  MET340 
 GLY342  LEU343  ARG346  PHE356  ILE373  ILE376  PHE377  LEU380  LYS471  GLY472 
 MET473  HIS475  LEU476  LEU477  ASN478  MET479  VAL484  VAL487 

> <Gold.Protein.RotatedAtoms>
   36.8938   32.9775   41.9241 H   0  0  0  0  0  0  0  0  0  0  0  0  # atno 496  bound_to 491 

> <Gold.Score>
     Score     S(PLP)   S(hbond)     S(cho)   S(metal)  DE(clash)   DE(tors)     intcor
     43.18     -43.11       0.32       0.00       0.00       0.84       0.72       1.39

> <Gold.PLP.Fitness>
43.1803

> <Gold.PLP.PLP>
-43.1060

> <Gold.PLP.part.hbond>
-1.0000

> <Gold.PLP.part.metal>
0.0000

> <Gold.PLP.part.buried>
-4.1185

> <Gold.PLP.part.nonpolar>
-38.9938

> <Gold.PLP.part.repulsive>
0.2456

> <Gold.PLP.ligand.clash>
0.8356

> <Gold.PLP.ligand.torsion>
0.7205

> <Gold.PLP.Chemscore.Hbond>
0.3200

> <Gold.PLP.Chemscore.CHOScore>
0.0000

> <Gold.PLP.Chemscore.Metal>
0.0000

> <Gold.Chemscore.Hbonds>
donor molecule, donor type, donor heavy atom, donor atom, acceptor molecule, acceptor atom, score
      P1  H  1258  1270       L1    14  0.32

> <Gold.PLP.Chemscore.Internal.Correction>
1.3910

