#       Name:                EN300-04840_i001
#       Creating user name   aseyller
#       Creation time:       Fri Apr 21 16:41:42 2023


#       File generated by GOLD software.
#

@<TRIPOS>MOLECULE
EN300-04840_i001|benzaldehydes|mol2|65|dock15
    23    23     1
SMALL
USER_CHARGES


@<TRIPOS>ATOM
      1 C1          31.0623  35.1545  38.8081 C.3            1 <1>                0.0000
      2 O2          29.7944  35.6996  39.1785 O.3            1 <1>                0.0000
      3 C3          29.3474  36.7657  38.4621 C.ar           1 <1>                0.0000
      4 C4          30.2458  37.5755  37.7971 C.ar           1 <1>                0.0000
      5 C5          29.7818  38.6721  37.0601 C.ar           1 <1>                0.0000
      6 C6          30.7324  39.5374  36.3497 C.2            1 <1>                0.0000
      7 O7          30.3634  40.6003  35.8967 O.2            1 <1>                0.0000
      8 C8          28.4090  38.9409  37.0022 C.ar           1 <1>                0.0000
      9 C9          27.5201  38.1280  37.6687 C.ar           1 <1>                0.0000
     10 C10         27.9809  37.0372  38.3951 C.ar           1 <1>                0.0000
     11 O11         27.0995  36.2389  39.0499 O.3            1 <1>                0.0000
     12 C12         25.7990  36.7762  39.2992 C.3            1 <1>                0.0000
     13 C13         25.6540  37.0638  40.7355 C.1            1 <1>                0.0000
     14 N14         25.5421  37.2856  41.8440 N.1            1 <1>                0.0000
     15 H15         31.0238  34.8162  37.7726 H              1 <1>                0.0000
     16 H16         31.8312  35.9201  38.9119 H              1 <1>                0.0000
     17 H17         31.2991  34.3115  39.4572 H              1 <1>                0.0000
     18 H18         31.3038  37.3640  37.8452 H              1 <1>                0.0000
     19 H19         31.7600  39.2272  36.2306 H              1 <1>                0.0000
     20 H20         28.0476  39.7860  36.4351 H              1 <1>                0.0000
     21 H21         26.4614  38.3363  37.6233 H              1 <1>                0.0000
     22 H22         25.6708  37.6966  38.7295 H              1 <1>                0.0000
     23 H23         25.0426  36.0525  38.9953 H              1 <1>                0.0000
@<TRIPOS>BOND
    1    1    2 1     
    2    1   15 1     
    3    1   16 1     
    4    1   17 1     
    5    2    3 1     
    6    3    4 ar    
    7    3   10 ar    
    8    4    5 ar    
    9    4   18 1     
   10    5    6 1     
   11    5    8 ar    
   12    6    7 2     
   13    6   19 1     
   14    8    9 ar    
   15    8   20 1     
   16    9   10 ar    
   17    9   21 1     
   18   10   11 1     
   19   11   12 1     
   20   12   13 1     
   21   12   22 1     
   22   12   23 1     
   23   13   14 3     
@<TRIPOS>SUBSTRUCTURE
      1 ****           1
@<TRIPOS>COMMENT
> <Gold.Version>
2022.2.0

> <Gold.Id.Protein>
1qkm|1qkm_protein|mol2

> <Gold.Protein.RotatedTorsions>
[  496  491  490  487 ] final -174.98 input  -89.99 | X-H torsion

> <Gold.Protein.ActiveResidues>
 MET295  LEU298  THR299  LEU301  ALA302  GLU305  TRP335  MET336  LEU339  MET340 
 GLY342  LEU343  ARG346  PHE356  ILE373  ILE376  PHE377  LEU380  LYS471  GLY472 
 MET473  HIS475  LEU476  LEU477  ASN478  MET479  VAL484  VAL487 

> <Gold.Protein.RotatedAtoms>
   37.3131   33.5345   40.8287 H   0  0  0  0  0  0  0  0  0  0  0  0  # atno 496  bound_to 491 

> <Gold.Score>
     Score     S(PLP)   S(hbond)     S(cho)   S(metal)  DE(clash)   DE(tors)     intcor
     43.28     -44.52       0.06       0.00       0.00       0.84       0.97       1.38

> <Gold.PLP.Fitness>
43.2771

> <Gold.PLP.PLP>
-44.5227

> <Gold.PLP.part.hbond>
-1.0000

> <Gold.PLP.part.metal>
0.0000

> <Gold.PLP.part.buried>
-5.0325

> <Gold.PLP.part.nonpolar>
-39.7059

> <Gold.PLP.part.repulsive>
0.3275

> <Gold.PLP.ligand.clash>
0.8420

> <Gold.PLP.ligand.torsion>
0.9750

> <Gold.PLP.Chemscore.Hbond>
0.0562

> <Gold.PLP.Chemscore.CHOScore>
0.0000

> <Gold.PLP.Chemscore.Metal>
0.0000

> <Gold.Chemscore.Hbonds>
donor molecule, donor type, donor heavy atom, donor atom, acceptor molecule, acceptor atom, score
      P1  H  1258  1270       L1    14  0.06

> <Gold.PLP.Chemscore.Internal.Correction>
1.3779

