#       Name:                EN300-04840_i001
#       Creating user name   aseyller
#       Creation time:       Fri Apr 21 16:41:35 2023


#       File generated by GOLD software.
#

@<TRIPOS>MOLECULE
EN300-04840_i001|benzaldehydes|mol2|65|dock9
    23    23     1
SMALL
USER_CHARGES


@<TRIPOS>ATOM
      1 C1          27.4170  38.8342  37.1360 C.3            1 <1>                0.0000
      2 O2          28.2549  37.7054  37.3924 O.3            1 <1>                0.0000
      3 C3          28.1258  37.1032  38.6050 C.ar           1 <1>                0.0000
      4 C4          26.9096  37.1199  39.2576 C.ar           1 <1>                0.0000
      5 C5          26.7804  36.4985  40.5058 C.ar           1 <1>                0.0000
      6 C6          25.4890  36.5122  41.2052 C.2            1 <1>                0.0000
      7 O7          25.2926  37.3064  42.1007 O.2            1 <1>                0.0000
      8 C8          27.8859  35.8638  41.0849 C.ar           1 <1>                0.0000
      9 C9          29.0952  35.8521  40.4270 C.ar           1 <1>                0.0000
     10 C10         29.2209  36.4643  39.1863 C.ar           1 <1>                0.0000
     11 O11         30.4158  36.4490  38.5421 O.3            1 <1>                0.0000
     12 C12         31.2688  35.3283  38.7839 C.3            1 <1>                0.0000
     13 C13         32.2934  35.2551  37.7295 C.1            1 <1>                0.0000
     14 N14         33.0841  35.1987  36.9158 N.1            1 <1>                0.0000
     15 H15         26.3715  38.5334  37.2039 H              1 <1>                0.0000
     16 H16         27.6199  39.6119  37.8723 H              1 <1>                0.0000
     17 H17         27.6205  39.2181  36.1364 H              1 <1>                0.0000
     18 H18         26.0600  37.6112  38.8067 H              1 <1>                0.0000
     19 H19         24.7143  35.8150  40.9222 H              1 <1>                0.0000
     20 H20         27.7900  35.3838  42.0477 H              1 <1>                0.0000
     21 H21         29.9471  35.3622  40.8746 H              1 <1>                0.0000
     22 H22         31.7530  35.4427  39.7537 H              1 <1>                0.0000
     23 H23         30.6766  34.4132  38.7792 H              1 <1>                0.0000
@<TRIPOS>BOND
    1    1    2 1     
    2    1   15 1     
    3    1   16 1     
    4    1   17 1     
    5    2    3 1     
    6    3    4 ar    
    7    3   10 ar    
    8    4    5 ar    
    9    4   18 1     
   10    5    6 1     
   11    5    8 ar    
   12    6    7 2     
   13    6   19 1     
   14    8    9 ar    
   15    8   20 1     
   16    9   10 ar    
   17    9   21 1     
   18   10   11 1     
   19   11   12 1     
   20   12   13 1     
   21   12   22 1     
   22   12   23 1     
   23   13   14 3     
@<TRIPOS>SUBSTRUCTURE
      1 ****           1
@<TRIPOS>COMMENT
> <Gold.Version>
2022.2.0

> <Gold.Id.Protein>
1qkm|1qkm_protein|mol2

> <Gold.Protein.RotatedTorsions>
[  496  491  490  487 ] final  169.23 input  -89.99 | X-H torsion

> <Gold.Protein.ActiveResidues>
 MET295  LEU298  THR299  LEU301  ALA302  GLU305  TRP335  MET336  LEU339  MET340 
 GLY342  LEU343  ARG346  PHE356  ILE373  ILE376  PHE377  LEU380  LYS471  GLY472 
 MET473  HIS475  LEU476  LEU477  ASN478  MET479  VAL484  VAL487 

> <Gold.Protein.RotatedAtoms>
   37.3144   33.3158   40.9678 H   0  0  0  0  0  0  0  0  0  0  0  0  # atno 496  bound_to 491 

> <Gold.Score>
     Score     S(PLP)   S(hbond)     S(cho)   S(metal)  DE(clash)   DE(tors)     intcor
     44.28     -45.52       0.16       0.00       0.00       0.00       1.55       1.38

> <Gold.PLP.Fitness>
44.2777

> <Gold.PLP.PLP>
-45.5177

> <Gold.PLP.part.hbond>
-0.7801

> <Gold.PLP.part.metal>
0.0000

> <Gold.PLP.part.buried>
-5.4525

> <Gold.PLP.part.nonpolar>
-41.2052

> <Gold.PLP.part.repulsive>
0.3177

> <Gold.PLP.ligand.clash>
0.0000

> <Gold.PLP.ligand.torsion>
1.5490

> <Gold.PLP.Chemscore.Hbond>
0.1600

> <Gold.PLP.Chemscore.CHOScore>
0.0000

> <Gold.PLP.Chemscore.Metal>
0.0000

> <Gold.Chemscore.Hbonds>
donor molecule, donor type, donor heavy atom, donor atom, acceptor molecule, acceptor atom, score
      P1  H  1258  1270       L1     7  0.16

> <Gold.PLP.Chemscore.Internal.Correction>
1.3779

