#       Name:                EN300-04840_i001
#       Creating user name   aseyller
#       Creation time:       Fri Apr 21 16:41:41 2023


#       File generated by GOLD software.
#

@<TRIPOS>MOLECULE
EN300-04840_i001|benzaldehydes|mol2|65|dock14
    23    23     1
SMALL
USER_CHARGES


@<TRIPOS>ATOM
      1 C1          30.0462  40.0047  36.1902 C.3            1 <1>                0.0000
      2 O2          29.0989  39.0081  36.5796 O.3            1 <1>                0.0000
      3 C3          29.5637  37.9746  37.3316 C.ar           1 <1>                0.0000
      4 C4          30.8809  37.5776  37.2195 C.ar           1 <1>                0.0000
      5 C5          31.3559  36.5133  37.9958 C.ar           1 <1>                0.0000
      6 C6          32.7565  36.0862  37.8817 C.2            1 <1>                0.0000
      7 O7          33.3093  36.1017  36.8022 O.2            1 <1>                0.0000
      8 C8          30.4919  35.8579  38.8813 C.ar           1 <1>                0.0000
      9 C9          29.1796  36.2606  38.9866 C.ar           1 <1>                0.0000
     10 C10         28.7107  37.3199  38.2200 C.ar           1 <1>                0.0000
     11 O11         27.4157  37.7128  38.3285 O.3            1 <1>                0.0000
     12 C12         26.4594  36.7076  38.6706 C.3            1 <1>                0.0000
     13 C13         25.9218  36.9787  40.0139 C.1            1 <1>                0.0000
     14 N14         25.5070  37.1879  41.0506 N.1            1 <1>                0.0000
     15 H15         30.4794  40.4615  37.0801 H              1 <1>                0.0000
     16 H16         30.8361  39.5432  35.5975 H              1 <1>                0.0000
     17 H17         29.5458  40.7693  35.5962 H              1 <1>                0.0000
     18 H18         31.5433  38.0862  36.5347 H              1 <1>                0.0000
     19 H19         33.2941  35.7582  38.7591 H              1 <1>                0.0000
     20 H20         30.8547  35.0364  39.4814 H              1 <1>                0.0000
     21 H21         28.5140  35.7543  39.6700 H              1 <1>                0.0000
     22 H22         25.6462  36.7177  37.9449 H              1 <1>                0.0000
     23 H23         26.9413  35.7299  38.6626 H              1 <1>                0.0000
@<TRIPOS>BOND
    1    1    2 1     
    2    1   15 1     
    3    1   16 1     
    4    1   17 1     
    5    2    3 1     
    6    3    4 ar    
    7    3   10 ar    
    8    4    5 ar    
    9    4   18 1     
   10    5    6 1     
   11    5    8 ar    
   12    6    7 2     
   13    6   19 1     
   14    8    9 ar    
   15    8   20 1     
   16    9   10 ar    
   17    9   21 1     
   18   10   11 1     
   19   11   12 1     
   20   12   13 1     
   21   12   22 1     
   22   12   23 1     
   23   13   14 3     
@<TRIPOS>SUBSTRUCTURE
      1 ****           1
@<TRIPOS>COMMENT
> <Gold.Version>
2022.2.0

> <Gold.Id.Protein>
1qkm|1qkm_protein|mol2

> <Gold.Protein.RotatedTorsions>
[  496  491  490  487 ] final  -46.58 input  -89.99 | X-H torsion

> <Gold.Protein.ActiveResidues>
 MET295  LEU298  THR299  LEU301  ALA302  GLU305  TRP335  MET336  LEU339  MET340 
 GLY342  LEU343  ARG346  PHE356  ILE373  ILE376  PHE377  LEU380  LYS471  GLY472 
 MET473  HIS475  LEU476  LEU477  ASN478  MET479  VAL484  VAL487 

> <Gold.Protein.RotatedAtoms>
   36.4023   34.6885   41.6789 H   0  0  0  0  0  0  0  0  0  0  0  0  # atno 496  bound_to 491 

> <Gold.Score>
     Score     S(PLP)   S(hbond)     S(cho)   S(metal)  DE(clash)   DE(tors)     intcor
     41.23     -42.61       0.00       0.00       0.00       0.00       1.38       1.38

> <Gold.PLP.Fitness>
41.2330

> <Gold.PLP.PLP>
-42.6104

> <Gold.PLP.part.hbond>
0.0000

> <Gold.PLP.part.metal>
0.0000

> <Gold.PLP.part.buried>
-4.0449

> <Gold.PLP.part.nonpolar>
-39.0931

> <Gold.PLP.part.repulsive>
0.1653

> <Gold.PLP.ligand.clash>
0.0000

> <Gold.PLP.ligand.torsion>
1.3777

> <Gold.PLP.Chemscore.Hbond>
0.0000

> <Gold.PLP.Chemscore.CHOScore>
0.0000

> <Gold.PLP.Chemscore.Metal>
0.0000

> <Gold.PLP.Chemscore.Internal.Correction>
1.3779

