#       Name:                EN300-04840_i001
#       Creating user name   aseyller
#       Creation time:       Fri Apr 21 16:41:43 2023


#       File generated by GOLD software.
#

@<TRIPOS>MOLECULE
EN300-04840_i001|benzaldehydes|mol2|65|dock16
    23    23     1
SMALL
USER_CHARGES


@<TRIPOS>ATOM
      1 C1          31.8424  33.3804  38.4810 C.3            1 <1>                0.0000
      2 O2          31.3075  34.5874  39.0279 O.3            1 <1>                0.0000
      3 C3          31.2044  35.6529  38.1891 C.ar           1 <1>                0.0000
      4 C4          32.0978  35.7997  37.1472 C.ar           1 <1>                0.0000
      5 C5          31.9882  36.8979  36.2853 C.ar           1 <1>                0.0000
      6 C6          32.9352  37.0596  35.1744 C.2            1 <1>                0.0000
      7 O7          32.7067  37.8629  34.2947 O.2            1 <1>                0.0000
      8 C8          30.9730  37.8410  36.4854 C.ar           1 <1>                0.0000
      9 C9          30.0864  37.6868  37.5273 C.ar           1 <1>                0.0000
     10 C10         30.1926  36.5941  38.3785 C.ar           1 <1>                0.0000
     11 O11         29.3150  36.4472  39.4038 O.3            1 <1>                0.0000
     12 C12         28.0010  36.9755  39.2137 C.3            1 <1>                0.0000
     13 C13         27.0744  36.3400  40.1647 C.1            1 <1>                0.0000
     14 N14         26.3592  35.8497  40.8987 N.1            1 <1>                0.0000
     15 H15         31.2128  33.0447  37.6569 H              1 <1>                0.0000
     16 H16         32.8526  33.5638  38.1150 H              1 <1>                0.0000
     17 H17         31.8697  32.6122  39.2537 H              1 <1>                0.0000
     18 H18         32.8794  35.0695  36.9973 H              1 <1>                0.0000
     19 H19         33.8350  36.4633  35.1407 H              1 <1>                0.0000
     20 H20         30.8857  38.6895  35.8229 H              1 <1>                0.0000
     21 H21         29.3037  38.4149  37.6806 H              1 <1>                0.0000
     22 H22         28.0141  38.0521  39.3834 H              1 <1>                0.0000
     23 H23         27.6716  36.7724  38.1947 H              1 <1>                0.0000
@<TRIPOS>BOND
    1    1    2 1     
    2    1   15 1     
    3    1   16 1     
    4    1   17 1     
    5    2    3 1     
    6    3    4 ar    
    7    3   10 ar    
    8    4    5 ar    
    9    4   18 1     
   10    5    6 1     
   11    5    8 ar    
   12    6    7 2     
   13    6   19 1     
   14    8    9 ar    
   15    8   20 1     
   16    9   10 ar    
   17    9   21 1     
   18   10   11 1     
   19   11   12 1     
   20   12   13 1     
   21   12   22 1     
   22   12   23 1     
   23   13   14 3     
@<TRIPOS>SUBSTRUCTURE
      1 ****           1
@<TRIPOS>COMMENT
> <Gold.Version>
2022.2.0

> <Gold.Id.Protein>
1qkm|1qkm_protein|mol2

> <Gold.Protein.RotatedTorsions>
[  496  491  490  487 ] final  -53.27 input  -89.99 | X-H torsion

> <Gold.Protein.ActiveResidues>
 MET295  LEU298  THR299  LEU301  ALA302  GLU305  TRP335  MET336  LEU339  MET340 
 GLY342  LEU343  ARG346  PHE356  ILE373  ILE376  PHE377  LEU380  LYS471  GLY472 
 MET473  HIS475  LEU476  LEU477  ASN478  MET479  VAL484  VAL487 

> <Gold.Protein.RotatedAtoms>
   36.4471   34.7162   41.5823 H   0  0  0  0  0  0  0  0  0  0  0  0  # atno 496  bound_to 491 

> <Gold.Score>
     Score     S(PLP)   S(hbond)     S(cho)   S(metal)  DE(clash)   DE(tors)     intcor
     40.12     -40.51       0.00       0.00       0.00       0.00       0.88       1.38

> <Gold.PLP.Fitness>
40.1221

> <Gold.PLP.PLP>
-40.5078

> <Gold.PLP.part.hbond>
0.0000

> <Gold.PLP.part.metal>
0.0000

> <Gold.PLP.part.buried>
-5.9114

> <Gold.PLP.part.nonpolar>
-35.2536

> <Gold.PLP.part.repulsive>
0.5624

> <Gold.PLP.ligand.clash>
0.0000

> <Gold.PLP.ligand.torsion>
0.8818

> <Gold.PLP.Chemscore.Hbond>
0.0000

> <Gold.PLP.Chemscore.CHOScore>
0.0000

> <Gold.PLP.Chemscore.Metal>
0.0000

> <Gold.PLP.Chemscore.Internal.Correction>
1.3779

