#       Name:                EN300-04840_i001
#       Creating user name   aseyller
#       Creation time:       Fri Apr 21 16:41:30 2023


#       File generated by GOLD software.
#

@<TRIPOS>MOLECULE
EN300-04840_i001|benzaldehydes|mol2|65|dock4
    23    23     1
SMALL
USER_CHARGES


@<TRIPOS>ATOM
      1 C1          30.0370  39.8784  36.8412 C.3            1 <1>                0.0000
      2 O2          29.5810  38.6969  37.5030 O.3            1 <1>                0.0000
      3 C3          30.4443  37.6475  37.5579 C.ar           1 <1>                0.0000
      4 C4          31.3708  37.4631  36.5516 C.ar           1 <1>                0.0000
      5 C5          32.2585  36.3816  36.6118 C.ar           1 <1>                0.0000
      6 C6          33.2471  36.1800  35.5445 C.2            1 <1>                0.0000
      7 O7          33.2790  36.9360  34.5966 O.2            1 <1>                0.0000
      8 C8          32.2010  35.4935  37.6926 C.ar           1 <1>                0.0000
      9 C9          31.2736  35.6851  38.6919 C.ar           1 <1>                0.0000
     10 C10         30.3970  36.7613  38.6340 C.ar           1 <1>                0.0000
     11 O11         29.4851  36.9453  39.6226 O.3            1 <1>                0.0000
     12 C12         29.0820  35.7876  40.3570 C.3            1 <1>                0.0000
     13 C13         27.6998  35.9643  40.8315 C.1            1 <1>                0.0000
     14 N14         26.6331  36.1007  41.1976 N.1            1 <1>                0.0000
     15 H15         30.9263  40.2568  37.3453 H              1 <1>                0.0000
     16 H16         30.2791  39.6438  35.8046 H              1 <1>                0.0000
     17 H17         29.2537  40.6358  36.8689 H              1 <1>                0.0000
     18 H18         31.4109  38.1508  35.7198 H              1 <1>                0.0000
     19 H19         33.9456  35.3585  35.6038 H              1 <1>                0.0000
     20 H20         32.8838  34.6582  37.7422 H              1 <1>                0.0000
     21 H21         31.2302  34.9995  39.5251 H              1 <1>                0.0000
     22 H22         29.1353  34.9110  39.7114 H              1 <1>                0.0000
     23 H23         29.7447  35.6504  41.2114 H              1 <1>                0.0000
@<TRIPOS>BOND
    1    1    2 1     
    2    1   15 1     
    3    1   16 1     
    4    1   17 1     
    5    2    3 1     
    6    3    4 ar    
    7    3   10 ar    
    8    4    5 ar    
    9    4   18 1     
   10    5    6 1     
   11    5    8 ar    
   12    6    7 2     
   13    6   19 1     
   14    8    9 ar    
   15    8   20 1     
   16    9   10 ar    
   17    9   21 1     
   18   10   11 1     
   19   11   12 1     
   20   12   13 1     
   21   12   22 1     
   22   12   23 1     
   23   13   14 3     
@<TRIPOS>SUBSTRUCTURE
      1 ****           1
@<TRIPOS>COMMENT
> <Gold.Version>
2022.2.0

> <Gold.Id.Protein>
1qkm|1qkm_protein|mol2

> <Gold.Protein.RotatedTorsions>
[  496  491  490  487 ] final  -30.37 input  -89.99 | X-H torsion

> <Gold.Protein.ActiveResidues>
 MET295  LEU298  THR299  LEU301  ALA302  GLU305  TRP335  MET336  LEU339  MET340 
 GLY342  LEU343  ARG346  PHE356  ILE373  ILE376  PHE377  LEU380  LYS471  GLY472 
 MET473  HIS475  LEU476  LEU477  ASN478  MET479  VAL484  VAL487 

> <Gold.Protein.RotatedAtoms>
   36.3164   34.5744   41.9033 H   0  0  0  0  0  0  0  0  0  0  0  0  # atno 496  bound_to 491 

> <Gold.Score>
     Score     S(PLP)   S(hbond)     S(cho)   S(metal)  DE(clash)   DE(tors)     intcor
     41.78     -42.22       0.00       0.00       0.00       0.00       0.91       1.39

> <Gold.PLP.Fitness>
41.7848

> <Gold.PLP.PLP>
-42.2231

> <Gold.PLP.part.hbond>
0.0000

> <Gold.PLP.part.metal>
0.0000

> <Gold.PLP.part.buried>
-5.6540

> <Gold.PLP.part.nonpolar>
-37.8352

> <Gold.PLP.part.repulsive>
0.8087

> <Gold.PLP.ligand.clash>
0.0000

> <Gold.PLP.ligand.torsion>
0.9146

> <Gold.PLP.Chemscore.Hbond>
0.0000

> <Gold.PLP.Chemscore.CHOScore>
0.0000

> <Gold.PLP.Chemscore.Metal>
0.0000

> <Gold.PLP.Chemscore.Internal.Correction>
1.3910

