#       Name:                EN300-04840_i001
#       Creating user name   aseyller
#       Creation time:       Fri Apr 21 16:41:32 2023


#       File generated by GOLD software.
#

@<TRIPOS>MOLECULE
EN300-04840_i001|benzaldehydes|mol2|65|dock6
    23    23     1
SMALL
USER_CHARGES


@<TRIPOS>ATOM
      1 C1          31.2224  34.4947  38.8022 C.3            1 <1>                0.0000
      2 O2          30.2817  35.4582  39.2807 O.3            1 <1>                0.0000
      3 C3          29.9329  36.4575  38.4268 C.ar           1 <1>                0.0000
      4 C4          30.7924  36.8304  37.4132 C.ar           1 <1>                0.0000
      5 C5          30.4295  37.8596  36.5357 C.ar           1 <1>                0.0000
      6 C6          31.3393  38.2609  35.4548 C.2            1 <1>                0.0000
      7 O7          32.3329  37.6047  35.2234 O.2            1 <1>                0.0000
      8 C8          29.1967  38.5046  36.6914 C.ar           1 <1>                0.0000
      9 C9          28.3455  38.1262  37.7052 C.ar           1 <1>                0.0000
     10 C10         28.7042  37.1015  38.5720 C.ar           1 <1>                0.0000
     11 O11         27.8604  36.7325  39.5695 O.3            1 <1>                0.0000
     12 C12         26.4652  36.9535  39.3540 C.3            1 <1>                0.0000
     13 C13         25.7693  36.9967  40.6504 C.1            1 <1>                0.0000
     14 N14         25.2322  37.0300  41.6508 N.1            1 <1>                0.0000
     15 H15         30.8173  33.9984  37.9203 H              1 <1>                0.0000
     16 H16         32.1546  34.9957  38.5411 H              1 <1>                0.0000
     17 H17         31.4127  33.7553  39.5800 H              1 <1>                0.0000
     18 H18         31.7425  36.3300  37.2975 H              1 <1>                0.0000
     19 H19         31.1236  39.1401  34.8660 H              1 <1>                0.0000
     20 H20         28.9136  39.2990  36.0167 H              1 <1>                0.0000
     21 H21         27.3948  38.6244  37.8244 H              1 <1>                0.0000
     22 H22         26.3235  37.9008  38.8338 H              1 <1>                0.0000
     23 H23         26.0580  36.1428  38.7497 H              1 <1>                0.0000
@<TRIPOS>BOND
    1    1    2 1     
    2    1   15 1     
    3    1   16 1     
    4    1   17 1     
    5    2    3 1     
    6    3    4 ar    
    7    3   10 ar    
    8    4    5 ar    
    9    4   18 1     
   10    5    6 1     
   11    5    8 ar    
   12    6    7 2     
   13    6   19 1     
   14    8    9 ar    
   15    8   20 1     
   16    9   10 ar    
   17    9   21 1     
   18   10   11 1     
   19   11   12 1     
   20   12   13 1     
   21   12   22 1     
   22   12   23 1     
   23   13   14 3     
@<TRIPOS>SUBSTRUCTURE
      1 ****           1
@<TRIPOS>COMMENT
> <Gold.Version>
2022.2.0

> <Gold.Id.Protein>
1qkm|1qkm_protein|mol2

> <Gold.Protein.RotatedTorsions>
[  496  491  490  487 ] final  122.00 input  -89.99 | X-H torsion

> <Gold.Protein.ActiveResidues>
 MET295  LEU298  THR299  LEU301  ALA302  GLU305  TRP335  MET336  LEU339  MET340 
 GLY342  LEU343  ARG346  PHE356  ILE373  ILE376  PHE377  LEU380  LYS471  GLY472 
 MET473  HIS475  LEU476  LEU477  ASN478  MET479  VAL484  VAL487 

> <Gold.Protein.RotatedAtoms>
   37.0958   32.9467   41.5898 H   0  0  0  0  0  0  0  0  0  0  0  0  # atno 496  bound_to 491 

> <Gold.Score>
     Score     S(PLP)   S(hbond)     S(cho)   S(metal)  DE(clash)   DE(tors)     intcor
     41.91     -41.42       0.26       0.00       0.00       0.00       0.84       1.39

> <Gold.PLP.Fitness>
41.9110

> <Gold.PLP.PLP>
-41.4239

> <Gold.PLP.part.hbond>
-1.0000

> <Gold.PLP.part.metal>
0.0000

> <Gold.PLP.part.buried>
-5.3330

> <Gold.PLP.part.nonpolar>
-35.8532

> <Gold.PLP.part.repulsive>
0.4446

> <Gold.PLP.ligand.clash>
0.0000

> <Gold.PLP.ligand.torsion>
0.8357

> <Gold.PLP.Chemscore.Hbond>
0.2558

> <Gold.PLP.Chemscore.CHOScore>
0.0000

> <Gold.PLP.Chemscore.Metal>
0.0000

> <Gold.Chemscore.Hbonds>
donor molecule, donor type, donor heavy atom, donor atom, acceptor molecule, acceptor atom, score
      P1  H  1258  1270       L1    14  0.26

> <Gold.PLP.Chemscore.Internal.Correction>
1.3910

