#       Name:                EN300-04840_i001
#       Creating user name   aseyller
#       Creation time:       Fri Apr 21 16:41:39 2023


#       File generated by GOLD software.
#

@<TRIPOS>MOLECULE
EN300-04840_i001|benzaldehydes|mol2|65|dock12
    23    23     1
SMALL
USER_CHARGES


@<TRIPOS>ATOM
      1 C1          31.8010  33.7866  38.7972 C.3            1 <1>                0.0000
      2 O2          31.7693  35.1918  38.5394 O.3            1 <1>                0.0000
      3 C3          30.5799  35.8261  38.7199 C.ar           1 <1>                0.0000
      4 C4          29.6848  35.3590  39.6611 C.ar           1 <1>                0.0000
      5 C5          28.4613  36.0150  39.8444 C.ar           1 <1>                0.0000
      6 C6          27.5047  35.5235  40.8447 C.2            1 <1>                0.0000
      7 O7          26.4961  36.1547  41.0808 O.2            1 <1>                0.0000
      8 C8          28.1527  37.1409  39.0716 C.ar           1 <1>                0.0000
      9 C9          29.0514  37.5998  38.1349 C.ar           1 <1>                0.0000
     10 C10         30.2672  36.9516  37.9576 C.ar           1 <1>                0.0000
     11 O11         31.1494  37.4090  37.0328 O.3            1 <1>                0.0000
     12 C12         30.6062  38.0810  35.8948 C.3            1 <1>                0.0000
     13 C13         31.6203  38.1400  34.8294 C.1            1 <1>                0.0000
     14 N14         32.4031  38.1855  34.0074 N.1            1 <1>                0.0000
     15 H15         31.5248  33.6014  39.8353 H              1 <1>                0.0000
     16 H16         31.0961  33.2803  38.1378 H              1 <1>                0.0000
     17 H17         32.8062  33.4064  38.6153 H              1 <1>                0.0000
     18 H18         29.9275  34.4899  40.2545 H              1 <1>                0.0000
     19 H19         27.6993  34.6003  41.3700 H              1 <1>                0.0000
     20 H20         27.2098  37.6492  39.2099 H              1 <1>                0.0000
     21 H21         28.8123  38.4684  37.5394 H              1 <1>                0.0000
     22 H22         29.7324  37.5379  35.5349 H              1 <1>                0.0000
     23 H23         30.3146  39.0932  36.1754 H              1 <1>                0.0000
@<TRIPOS>BOND
    1    1    2 1     
    2    1   15 1     
    3    1   16 1     
    4    1   17 1     
    5    2    3 1     
    6    3    4 ar    
    7    3   10 ar    
    8    4    5 ar    
    9    4   18 1     
   10    5    6 1     
   11    5    8 ar    
   12    6    7 2     
   13    6   19 1     
   14    8    9 ar    
   15    8   20 1     
   16    9   10 ar    
   17    9   21 1     
   18   10   11 1     
   19   11   12 1     
   20   12   13 1     
   21   12   22 1     
   22   12   23 1     
   23   13   14 3     
@<TRIPOS>SUBSTRUCTURE
      1 ****           1
@<TRIPOS>COMMENT
> <Gold.Version>
2022.2.0

> <Gold.Id.Protein>
1qkm|1qkm_protein|mol2

> <Gold.Protein.RotatedTorsions>
[  496  491  490  487 ] final   55.85 input  -89.99 | X-H torsion

> <Gold.Protein.ActiveResidues>
 MET295  LEU298  THR299  LEU301  ALA302  GLU305  TRP335  MET336  LEU339  MET340 
 GLY342  LEU343  ARG346  PHE356  ILE373  ILE376  PHE377  LEU380  LYS471  GLY472 
 MET473  HIS475  LEU476  LEU477  ASN478  MET479  VAL484  VAL487 

> <Gold.Protein.RotatedAtoms>
   36.5178   33.3737   42.3269 H   0  0  0  0  0  0  0  0  0  0  0  0  # atno 496  bound_to 491 

> <Gold.Score>
     Score     S(PLP)   S(hbond)     S(cho)   S(metal)  DE(clash)   DE(tors)     intcor
     39.69     -39.96       0.00       0.00       0.00       0.00       0.83       1.38

> <Gold.PLP.Fitness>
39.6853

> <Gold.PLP.PLP>
-39.9621

> <Gold.PLP.part.hbond>
0.0000

> <Gold.PLP.part.metal>
0.0000

> <Gold.PLP.part.buried>
-5.0478

> <Gold.PLP.part.nonpolar>
-35.3872

> <Gold.PLP.part.repulsive>
0.3995

> <Gold.PLP.ligand.clash>
0.0000

> <Gold.PLP.ligand.torsion>
0.8274

> <Gold.PLP.Chemscore.Hbond>
0.0000

> <Gold.PLP.Chemscore.CHOScore>
0.0000

> <Gold.PLP.Chemscore.Metal>
0.0000

> <Gold.PLP.Chemscore.Internal.Correction>
1.3779

