#       Name:                EN300-04840_i001
#       Creating user name   aseyller
#       Creation time:       Fri Apr 21 16:41:38 2023


#       File generated by GOLD software.
#

@<TRIPOS>MOLECULE
EN300-04840_i001|benzaldehydes|mol2|65|dock11
    23    23     1
SMALL
USER_CHARGES


@<TRIPOS>ATOM
      1 C1          30.0008  39.8143  36.8198 C.3            1 <1>                0.0000
      2 O2          29.2785  38.6724  37.2851 O.3            1 <1>                0.0000
      3 C3          30.0115  37.5997  37.6870 C.ar           1 <1>                0.0000
      4 C4          31.2412  37.3500  37.1121 C.ar           1 <1>                0.0000
      5 C5          31.9933  36.2446  37.5289 C.ar           1 <1>                0.0000
      6 C6          33.3028  35.9736  36.9217 C.2            1 <1>                0.0000
      7 O7          33.4989  36.2459  35.7561 O.2            1 <1>                0.0000
      8 C8          31.4934  35.3990  38.5265 C.ar           1 <1>                0.0000
      9 C9          30.2657  35.6557  39.0944 C.ar           1 <1>                0.0000
     10 C10         29.5228  36.7555  38.6840 C.ar           1 <1>                0.0000
     11 O11         28.3132  37.0036  39.2481 O.3            1 <1>                0.0000
     12 C12         27.6270  35.8919  39.8269 C.3            1 <1>                0.0000
     13 C13         28.1193  35.6704  41.1963 C.1            1 <1>                0.0000
     14 N14         28.4994  35.4995  42.2532 N.1            1 <1>                0.0000
     15 H15         30.6484  40.1834  37.6152 H              1 <1>                0.0000
     16 H16         30.6071  39.5344  35.9582 H              1 <1>                0.0000
     17 H17         29.2982  40.5959  36.5312 H              1 <1>                0.0000
     18 H18         31.6223  38.0051  36.3427 H              1 <1>                0.0000
     19 H19         34.0911  35.5317  37.5130 H              1 <1>                0.0000
     20 H20         32.0705  34.5454  38.8502 H              1 <1>                0.0000
     21 H21         29.8812  35.0027  39.8638 H              1 <1>                0.0000
     22 H22         26.5573  36.0994  39.8545 H              1 <1>                0.0000
     23 H23         27.8087  35.0003  39.2268 H              1 <1>                0.0000
@<TRIPOS>BOND
    1    1    2 1     
    2    1   15 1     
    3    1   16 1     
    4    1   17 1     
    5    2    3 1     
    6    3    4 ar    
    7    3   10 ar    
    8    4    5 ar    
    9    4   18 1     
   10    5    6 1     
   11    5    8 ar    
   12    6    7 2     
   13    6   19 1     
   14    8    9 ar    
   15    8   20 1     
   16    9   10 ar    
   17    9   21 1     
   18   10   11 1     
   19   11   12 1     
   20   12   13 1     
   21   12   22 1     
   22   12   23 1     
   23   13   14 3     
@<TRIPOS>SUBSTRUCTURE
      1 ****           1
@<TRIPOS>COMMENT
> <Gold.Version>
2022.2.0

> <Gold.Id.Protein>
1qkm|1qkm_protein|mol2

> <Gold.Protein.RotatedTorsions>
[  496  491  490  487 ] final   62.88 input  -89.99 | X-H torsion

> <Gold.Protein.ActiveResidues>
 MET295  LEU298  THR299  LEU301  ALA302  GLU305  TRP335  MET336  LEU339  MET340 
 GLY342  LEU343  ARG346  PHE356  ILE373  ILE376  PHE377  LEU380  LYS471  GLY472 
 MET473  HIS475  LEU476  LEU477  ASN478  MET479  VAL484  VAL487 

> <Gold.Protein.RotatedAtoms>
   36.5756   33.2830   42.2842 H   0  0  0  0  0  0  0  0  0  0  0  0  # atno 496  bound_to 491 

> <Gold.Score>
     Score     S(PLP)   S(hbond)     S(cho)   S(metal)  DE(clash)   DE(tors)     intcor
     40.76     -41.57       0.00       0.00       0.00       0.05       1.07       1.38

> <Gold.PLP.Fitness>
40.7615

> <Gold.PLP.PLP>
-41.5741

> <Gold.PLP.part.hbond>
-0.6809

> <Gold.PLP.part.metal>
0.0000

> <Gold.PLP.part.buried>
-3.7435

> <Gold.PLP.part.nonpolar>
-38.3932

> <Gold.PLP.part.repulsive>
1.0649

> <Gold.PLP.ligand.clash>
0.0475

> <Gold.PLP.ligand.torsion>
1.0715

> <Gold.PLP.Chemscore.Hbond>
0.0000

> <Gold.PLP.Chemscore.CHOScore>
0.0000

> <Gold.PLP.Chemscore.Metal>
0.0000

> <Gold.PLP.Chemscore.Internal.Correction>
1.3779

