#       Name:                EN300-04840_i001
#       Creating user name   aseyller
#       Creation time:       Fri Apr 21 16:41:27 2023


#       File generated by GOLD software.
#

@<TRIPOS>MOLECULE
EN300-04840_i001|benzaldehydes|mol2|65|dock2
    23    23     1
SMALL
USER_CHARGES


@<TRIPOS>ATOM
      1 C1          29.5685  38.9202  36.0705 C.3            1 <1>                0.0000
      2 O2          28.8459  38.7067  37.2847 O.3            1 <1>                0.0000
      3 C3          29.1272  37.5719  37.9793 C.ar           1 <1>                0.0000
      4 C4          30.3660  36.9760  37.8549 C.ar           1 <1>                0.0000
      5 C5          30.6522  35.8078  38.5721 C.ar           1 <1>                0.0000
      6 C6          31.9686  35.1691  38.4446 C.2            1 <1>                0.0000
      7 O7          32.7009  35.4675  37.5249 O.2            1 <1>                0.0000
      8 C8          29.6798  35.2507  39.4114 C.ar           1 <1>                0.0000
      9 C9          28.4468  35.8517  39.5294 C.ar           1 <1>                0.0000
     10 C10         28.1658  37.0135  38.8216 C.ar           1 <1>                0.0000
     11 O11         26.9483  37.6018  38.9425 O.3            1 <1>                0.0000
     12 C12         25.8522  36.7572  39.2990 C.3            1 <1>                0.0000
     13 C13         25.4936  36.9872  40.7080 C.1            1 <1>                0.0000
     14 N14         25.2167  37.1647  41.7953 N.1            1 <1>                0.0000
     15 H15         30.6360  38.9658  36.2862 H              1 <1>                0.0000
     16 H16         29.3719  38.0987  35.3815 H              1 <1>                0.0000
     17 H17         29.2489  39.8586  35.6176 H              1 <1>                0.0000
     18 H18         31.1126  37.4095  37.2059 H              1 <1>                0.0000
     19 H19         32.2845  34.4338  39.1697 H              1 <1>                0.0000
     20 H20         29.8969  34.3496  39.9658 H              1 <1>                0.0000
     21 H21         27.6976  35.4211  40.1771 H              1 <1>                0.0000
     22 H22         24.9961  36.9855  38.6642 H              1 <1>                0.0000
     23 H23         26.1379  35.7141  39.1623 H              1 <1>                0.0000
@<TRIPOS>BOND
    1    1    2 1     
    2    1   15 1     
    3    1   16 1     
    4    1   17 1     
    5    2    3 1     
    6    3    4 ar    
    7    3   10 ar    
    8    4    5 ar    
    9    4   18 1     
   10    5    6 1     
   11    5    8 ar    
   12    6    7 2     
   13    6   19 1     
   14    8    9 ar    
   15    8   20 1     
   16    9   10 ar    
   17    9   21 1     
   18   10   11 1     
   19   11   12 1     
   20   12   13 1     
   21   12   22 1     
   22   12   23 1     
   23   13   14 3     
@<TRIPOS>SUBSTRUCTURE
      1 ****           1
@<TRIPOS>COMMENT
> <Gold.Version>
2022.2.0

> <Gold.Id.Protein>
1qkm|1qkm_protein|mol2

> <Gold.Protein.RotatedTorsions>
[  496  491  490  487 ] final  -85.33 input  -89.99 | X-H torsion

> <Gold.Protein.ActiveResidues>
 MET295  LEU298  THR299  LEU301  ALA302  GLU305  TRP335  MET336  LEU339  MET340 
 GLY342  LEU343  ARG346  PHE356  ILE373  ILE376  PHE377  LEU380  LYS471  GLY472 
 MET473  HIS475  LEU476  LEU477  ASN478  MET479  VAL484  VAL487 

> <Gold.Protein.RotatedAtoms>
   36.7144   34.6812   41.1365 H   0  0  0  0  0  0  0  0  0  0  0  0  # atno 496  bound_to 491 

> <Gold.Score>
     Score     S(PLP)   S(hbond)     S(cho)   S(metal)  DE(clash)   DE(tors)     intcor
     42.59     -42.57       0.28       0.00       0.00       0.00       1.10       1.39

> <Gold.PLP.Fitness>
42.5927

> <Gold.PLP.PLP>
-42.5699

> <Gold.PLP.part.hbond>
-1.0000

> <Gold.PLP.part.metal>
0.0000

> <Gold.PLP.part.buried>
-3.6541

> <Gold.PLP.part.nonpolar>
-39.0497

> <Gold.PLP.part.repulsive>
0.2815

> <Gold.PLP.ligand.clash>
0.0000

> <Gold.PLP.ligand.torsion>
1.0990

> <Gold.PLP.Chemscore.Hbond>
0.2766

> <Gold.PLP.Chemscore.CHOScore>
0.0000

> <Gold.PLP.Chemscore.Metal>
0.0000

> <Gold.Chemscore.Hbonds>
donor molecule, donor type, donor heavy atom, donor atom, acceptor molecule, acceptor atom, score
      P1  H  1258  1270       L1    14  0.28

> <Gold.PLP.Chemscore.Internal.Correction>
1.3910

