#       Name:                EN300-04840_i001
#       Creating user name   aseyller
#       Creation time:       Fri Apr 21 16:41:34 2023


#       File generated by GOLD software.
#

@<TRIPOS>MOLECULE
EN300-04840_i001|benzaldehydes|mol2|65|dock8
    23    23     1
SMALL
USER_CHARGES


@<TRIPOS>ATOM
      1 C1          30.0101  39.1824  36.6610 C.3            1 <1>                0.0000
      2 O2          29.7329  38.5429  37.9085 O.3            1 <1>                0.0000
      3 C3          30.2522  37.2997  38.0940 C.ar           1 <1>                0.0000
      4 C4          31.3705  36.9066  37.3869 C.ar           1 <1>                0.0000
      5 C5          31.9026  35.6259  37.5808 C.ar           1 <1>                0.0000
      6 C6          33.0926  35.2016  36.8320 C.2            1 <1>                0.0000
      7 O7          33.6114  35.9581  36.0383 O.2            1 <1>                0.0000
      8 C8          31.2970  34.7513  38.4910 C.ar           1 <1>                0.0000
      9 C9          30.1817  35.1517  39.1920 C.ar           1 <1>                0.0000
     10 C10         29.6578  36.4243  39.0028 C.ar           1 <1>                0.0000
     11 O11         28.5582  36.8136  39.6973 O.3            1 <1>                0.0000
     12 C12         27.6350  35.7911  40.0768 C.3            1 <1>                0.0000
     13 C13         26.5327  36.3873  40.8489 C.1            1 <1>                0.0000
     14 N14         25.6820  36.8475  41.4448 N.1            1 <1>                0.0000
     15 H15         31.0878  39.2943  36.5417 H              1 <1>                0.0000
     16 H16         29.6154  38.5756  35.8461 H              1 <1>                0.0000
     17 H17         29.5387  40.1649  36.6437 H              1 <1>                0.0000
     18 H18         31.8337  37.5849  36.6856 H              1 <1>                0.0000
     19 H19         33.5058  34.2161  36.9880 H              1 <1>                0.0000
     20 H20         31.7044  33.7626  38.6430 H              1 <1>                0.0000
     21 H21         29.7155  34.4762  39.8939 H              1 <1>                0.0000
     22 H22         27.2352  35.3124  39.1829 H              1 <1>                0.0000
     23 H23         28.1469  35.0482  40.6885 H              1 <1>                0.0000
@<TRIPOS>BOND
    1    1    2 1     
    2    1   15 1     
    3    1   16 1     
    4    1   17 1     
    5    2    3 1     
    6    3    4 ar    
    7    3   10 ar    
    8    4    5 ar    
    9    4   18 1     
   10    5    6 1     
   11    5    8 ar    
   12    6    7 2     
   13    6   19 1     
   14    8    9 ar    
   15    8   20 1     
   16    9   10 ar    
   17    9   21 1     
   18   10   11 1     
   19   11   12 1     
   20   12   13 1     
   21   12   22 1     
   22   12   23 1     
   23   13   14 3     
@<TRIPOS>SUBSTRUCTURE
      1 ****           1
@<TRIPOS>COMMENT
> <Gold.Version>
2022.2.0

> <Gold.Id.Protein>
1qkm|1qkm_protein|mol2

> <Gold.Protein.RotatedTorsions>
[  496  491  490  487 ] final  -26.45 input  -89.99 | X-H torsion

> <Gold.Protein.ActiveResidues>
 MET295  LEU298  THR299  LEU301  ALA302  GLU305  TRP335  MET336  LEU339  MET340 
 GLY342  LEU343  ARG346  PHE356  ILE373  ILE376  PHE377  LEU380  LYS471  GLY472 
 MET473  HIS475  LEU476  LEU477  ASN478  MET479  VAL484  VAL487 

> <Gold.Protein.RotatedAtoms>
   36.3011   34.5376   41.9539 H   0  0  0  0  0  0  0  0  0  0  0  0  # atno 496  bound_to 491 

> <Gold.Score>
     Score     S(PLP)   S(hbond)     S(cho)   S(metal)  DE(clash)   DE(tors)     intcor
     40.98     -41.07       0.00       0.00       0.00       0.04       0.72       1.38

> <Gold.PLP.Fitness>
40.9786

> <Gold.PLP.PLP>
-41.0707

> <Gold.PLP.part.hbond>
-0.1461

> <Gold.PLP.part.metal>
0.0000

> <Gold.PLP.part.buried>
-4.7576

> <Gold.PLP.part.nonpolar>
-37.4356

> <Gold.PLP.part.repulsive>
0.2994

> <Gold.PLP.ligand.clash>
0.0397

> <Gold.PLP.ligand.torsion>
0.7152

> <Gold.PLP.Chemscore.Hbond>
0.0000

> <Gold.PLP.Chemscore.CHOScore>
0.0000

> <Gold.PLP.Chemscore.Metal>
0.0000

> <Gold.PLP.Chemscore.Internal.Correction>
1.3779

