#       Name:                EN300-04840_i001
#       Creating user name   aseyller
#       Creation time:       Fri Apr 21 16:41:46 2023


#       File generated by GOLD software.
#

@<TRIPOS>MOLECULE
EN300-04840_i001|benzaldehydes|mol2|65|dock18
    23    23     1
SMALL
USER_CHARGES


@<TRIPOS>ATOM
      1 C1          29.3982  40.5437  36.6661 C.3            1 <1>                0.0000
      2 O2          29.2344  39.2699  37.2928 O.3            1 <1>                0.0000
      3 C3          30.2044  38.3430  37.0704 C.ar           1 <1>                0.0000
      4 C4          30.9749  38.4114  35.9273 C.ar           1 <1>                0.0000
      5 C5          31.9730  37.4554  35.7020 C.ar           1 <1>                0.0000
      6 C6          32.7968  37.5227  34.4879 C.2            1 <1>                0.0000
      7 O7          33.6687  36.7007  34.3003 O.2            1 <1>                0.0000
      8 C8          32.1837  36.4354  36.6377 C.ar           1 <1>                0.0000
      9 C9          31.4104  36.3749  37.7751 C.ar           1 <1>                0.0000
     10 C10         30.4240  37.3268  38.0003 C.ar           1 <1>                0.0000
     11 O11         29.6650  37.2621  39.1240 O.3            1 <1>                0.0000
     12 C12         29.5234  35.9797  39.7382 C.3            1 <1>                0.0000
     13 C13         28.6340  36.0905  40.9059 C.1            1 <1>                0.0000
     14 N14         27.9475  36.1759  41.8070 N.1            1 <1>                0.0000
     15 H15         30.3254  41.0015  37.0107 H              1 <1>                0.0000
     16 H16         29.4370  40.4141  35.5845 H              1 <1>                0.0000
     17 H17         28.5572  41.1869  36.9250 H              1 <1>                0.0000
     18 H18         30.8082  39.1999  35.2084 H              1 <1>                0.0000
     19 H19         32.6262  38.3042  33.7624 H              1 <1>                0.0000
     20 H20         32.9524  35.6962  36.4671 H              1 <1>                0.0000
     21 H21         31.5738  35.5877  38.4962 H              1 <1>                0.0000
     22 H22         29.0962  35.2786  39.0213 H              1 <1>                0.0000
     23 H23         30.5013  35.6205  40.0591 H              1 <1>                0.0000
@<TRIPOS>BOND
    1    1    2 1     
    2    1   15 1     
    3    1   16 1     
    4    1   17 1     
    5    2    3 1     
    6    3    4 ar    
    7    3   10 ar    
    8    4    5 ar    
    9    4   18 1     
   10    5    6 1     
   11    5    8 ar    
   12    6    7 2     
   13    6   19 1     
   14    8    9 ar    
   15    8   20 1     
   16    9   10 ar    
   17    9   21 1     
   18   10   11 1     
   19   11   12 1     
   20   12   13 1     
   21   12   22 1     
   22   12   23 1     
   23   13   14 3     
@<TRIPOS>SUBSTRUCTURE
      1 ****           1
@<TRIPOS>COMMENT
> <Gold.Version>
2022.2.0

> <Gold.Id.Protein>
1qkm|1qkm_protein|mol2

> <Gold.Protein.RotatedTorsions>
[  496  491  490  487 ] final   54.60 input  -89.99 | X-H torsion

> <Gold.Protein.ActiveResidues>
 MET295  LEU298  THR299  LEU301  ALA302  GLU305  TRP335  MET336  LEU339  MET340 
 GLY342  LEU343  ARG346  PHE356  ILE373  ILE376  PHE377  LEU380  LYS471  GLY472 
 MET473  HIS475  LEU476  LEU477  ASN478  MET479  VAL484  VAL487 

> <Gold.Protein.RotatedAtoms>
   36.5080   33.3905   42.3333 H   0  0  0  0  0  0  0  0  0  0  0  0  # atno 496  bound_to 491 

> <Gold.Score>
     Score     S(PLP)   S(hbond)     S(cho)   S(metal)  DE(clash)   DE(tors)     intcor
     40.09     -40.12       0.00       0.00       0.00       0.00       0.70       1.38

> <Gold.PLP.Fitness>
40.0864

> <Gold.PLP.PLP>
-40.1156

> <Gold.PLP.part.hbond>
-0.4035

> <Gold.PLP.part.metal>
0.0000

> <Gold.PLP.part.buried>
-4.8536

> <Gold.PLP.part.nonpolar>
-35.8090

> <Gold.PLP.part.repulsive>
1.6154

> <Gold.PLP.ligand.clash>
0.0000

> <Gold.PLP.ligand.torsion>
0.7036

> <Gold.PLP.Chemscore.Hbond>
0.0000

> <Gold.PLP.Chemscore.CHOScore>
0.0000

> <Gold.PLP.Chemscore.Metal>
0.0000

> <Gold.PLP.Chemscore.Internal.Correction>
1.3779

