#       Name:                plp ligand
#       Creating user name   aseyller
#       Creation time:       Fri Apr 21 16:41:25 2023


#       File generated by GOLD software.
#

@<TRIPOS>MOLECULE
plp ligand
    23    23     1
SMALL
USER_CHARGES


@<TRIPOS>ATOM
      1 C1          -0.4118   3.1935  -0.0003 NONPOLAR       1 <1>                0.0000
      2 O2           0.4862   2.0819   0.0005 ACCEPTOR       1 <1>                0.0000
      3 C3          -0.0683   0.8401   0.0007 NONPOLAR       1 <1>                0.0000
      4 C4          -1.4412   0.6976   0.0003 NONPOLAR       1 <1>                0.0000
      5 C5          -2.0085  -0.5827   0.0001 NONPOLAR       1 <1>                0.0000
      6 C6          -3.4686  -0.7413  -0.0009 NONPOLAR       1 <1>                0.0000
      7 O7          -3.9581  -1.8511  -0.0011 ACCEPTOR       1 <1>                0.0000
      8 C8          -1.1797  -1.7111   0.0004 NONPOLAR       1 <1>                0.0000
      9 C9           0.1887  -1.5596   0.0009 NONPOLAR       1 <1>                0.0000
     10 C10          0.7505  -0.2891  -0.0043 NONPOLAR       1 <1>                0.0000
     11 O11          2.1005  -0.1461  -0.0043 ACCEPTOR       1 <1>                0.0000
     12 C12          2.8797  -1.3439   0.0012 NONPOLAR       1 <1>                0.0000
     13 C13          4.3106  -0.9984   0.0004 NONPOLAR       1 <1>                0.0000
     14 N14          5.4149  -0.7318  -0.0003 ACCEPTOR       1 <1>                0.0000
     15 H15         -1.0395   3.1528  -0.8905                1 <1>                0.0000
     16 H16         -1.0402   3.1535   0.8895                1 <1>                0.0000
     17 H17          0.1592   4.1219  -0.0004                1 <1>                0.0000
     18 H18         -2.0762   1.5712   0.0004                1 <1>                0.0000
     19 H19         -4.1064   0.1302  -0.0015                1 <1>                0.0000
     20 H20         -1.6137  -2.7001   0.0006                1 <1>                0.0000
     21 H21          0.8270  -2.4307   0.0011                1 <1>                0.0000
     22 H22          2.6467  -1.9249   0.8935                1 <1>                0.0000
     23 H23          2.6475  -1.9325  -0.8864                1 <1>                0.0000
@<TRIPOS>BOND
    1    1    2 1     
    2    1   15 1     
    3    1   16 1     
    4    1   17 1     
    5    2    3 1     
    6    3    4 ar    
    7    3   10 ar    
    8    4    5 ar    
    9    4   18 1     
   10    5    6 1     
   11    5    8 ar    
   12    6    7 2     
   13    6   19 1     
   14    8    9 ar    
   15    8   20 1     
   16    9   10 ar    
   17    9   21 1     
   18   10   11 1     
   19   11   12 1     
   20   12   13 1     
   21   12   22 1     
   22   12   23 1     
   23   13   14 3     
@<TRIPOS>SUBSTRUCTURE
      1 ****           1
@<TRIPOS>SET
DONOR_HYDROGENS      STATIC     ATOMS    <user>   **** ""
0
ATOM$RED        STATIC     ATOMS    COLORGROUP SYSTEM
0
