#       Name:                EN300-98433_i002
#       Creating user name   fsindt
#       Creation time:       Tue Feb 28 15:21:00 2023


#       File generated by GOLD software.
#

@<TRIPOS>MOLECULE
EN300-98433_i002|amine_7|mol2|6375|dock8
    31    32     1
SMALL
USER_CHARGES


@<TRIPOS>ATOM
      1 C1          -0.3024 -10.0157  11.0339 C.3            1 <1>                0.0000
      2 N2          -1.5758 -10.4520  10.4556 N.pl3          1 <1>                0.0000
      3 C3          -2.8062  -9.9005  10.6911 C.2            1 <1>                0.0000
      4 C4          -3.6942 -10.6034   9.9624 C.2            1 <1>                0.0000
      5 N5          -3.0242 -11.5581   9.3000 N.2            1 <1>                0.0000
      6 C6          -1.7540 -11.4699   9.5861 C.2            1 <1>                0.0000
      7 C7          -0.6674 -12.3624   9.0439 C.3            1 <1>                0.0000
      8 C8           0.0042 -13.1077  10.1991 C.3            1 <1>                0.0000
      9 C9          -1.0666 -13.6369  11.1574 C.3            1 <1>                0.0000
     10 C10         -0.3895 -14.4472  12.2666 C.3            1 <1>                0.0000
     11 C11          0.4340 -15.5733  11.6378 C.3            1 <1>                0.0000
     12 N12          1.4566 -15.0017  10.7536 N.4            1 <1>                1.0000
     13 C13          0.8130 -14.2834   9.6470 C.3            1 <1>                0.0000
     14 H14         -0.1241 -10.5518  11.9661 H              1 <1>                0.0000
     15 H15          0.5057 -10.2261  10.3335 H              1 <1>                0.0000
     16 H16         -0.3416  -8.9447  11.2326 H              1 <1>                0.0000
     17 H17         -3.0233  -9.0630  11.3375 H              1 <1>                0.0000
     18 H18         -4.7592 -10.4290   9.9190 H              1 <1>                0.0000
     19 H19         -1.1012 -13.0825   8.3503 H              1 <1>                0.0000
     20 H20          0.0737 -11.7566   8.5225 H              1 <1>                0.0000
     21 H21          0.6675 -12.4279  10.7340 H              1 <1>                0.0000
     22 H22         -1.6086 -12.7995  11.5968 H              1 <1>                0.0000
     23 H23         -1.7608 -14.2757  10.6113 H              1 <1>                0.0000
     24 H24          0.2661 -13.7959  12.8446 H              1 <1>                0.0000
     25 H25         -1.1493 -14.8737  12.9213 H              1 <1>                0.0000
     26 H26          0.9173 -16.1523  12.4248 H              1 <1>                0.0000
     27 H27         -0.2226 -16.2241  11.0604 H              1 <1>                0.0000
     28 H28          0.1484 -14.9616   9.1119 H              1 <1>                0.0000
     29 H29          1.5762 -13.9101   8.9642 H              1 <1>                0.0000
     30 H30          2.0337 -14.3616  11.2782 H              1 <1>                0.0000
     31 H31          2.0316 -15.7432  10.3826 H              1 <1>                0.0000
@<TRIPOS>BOND
    1    1    2 1     
    2    1   14 1     
    3    1   15 1     
    4    1   16 1     
    5    2    3 1     
    6    2    6 1     
    7    3    4 2     
    8    3   17 1     
    9    4    5 1     
   10    4   18 1     
   11    5    6 2     
   12    6    7 1     
   13    7    8 1     
   14    7   19 1     
   15    7   20 1     
   16    8    9 1     
   17    8   13 1     
   18    8   21 1     
   19    9   10 1     
   20    9   22 1     
   21    9   23 1     
   22   10   11 1     
   23   10   24 1     
   24   10   25 1     
   25   11   12 1     
   26   11   26 1     
   27   11   27 1     
   28   12   13 1     
   29   12   30 1     
   30   12   31 1     
   31   13   28 1     
   32   13   29 1     
@<TRIPOS>SUBSTRUCTURE
      1 ****           1
@<TRIPOS>SET
DONOR_HYDROGENS      STATIC     ATOMS    <user>   **** ""
2 30 31
ATOM$RED        STATIC     ATOMS    COLORGROUP SYSTEM
2 30 31
@<TRIPOS>COMMENT
> <Gold.Version>
2022.2.0

> <Gold.Id.Protein>
3pbl|protein|mol2

> <Gold.Protein.RotatedTorsions>
[ 1303 1298 1297 1294 ] final  -63.63 input  179.99 | X-H torsion
[ 2461 2456 2455 2452 ] final  148.81 input   30.03 | X-H torsion
[ 2515 2510 2509 2506 ] final  -28.53 input  -89.99 | X-H torsion
[ 3721 3712 3711 3710 ] final   -7.79 input -179.91 | X-H torsion
[ 3841 3832 3831 3830 ] final   25.61 input -179.91 | X-H torsion
[ 3767 3762 3761 3758 ] final -156.19 input  -89.99 | X-H torsion
[ 2472 2467 2466 2463 ] final  169.87 input  -89.97 | X-H torsion

> <Gold.Protein.ActiveResidues>
 VAL82   VAL86   LEU89   PHE106  VAL107  ASP110  VAL111  MET112  CYS114  THR115 
 CYS181  SER182  ILE183  PHE188  VAL189  ILE190  SER192  SER193  SER196  TRP342 
 PHE345  PHE346  HIS349  VAL350  TYR365  THR369  GLY372  TYR373 

> <Gold.Protein.RotatedAtoms>
    3.5308   -8.9262    3.7806 H   0  0  0  0  0  0  0  0  0  0  0  0  # atno 1303 bound_to 1298
    1.8834   -8.9704    8.3059 H   0  0  0  0  0  0  0  0  0  0  0  0  # atno 2461 bound_to 2456
   -5.4276   -5.3460    8.8798 H   0  0  0  0  0  0  0  0  0  0  0  0  # atno 2472 bound_to 2467
    2.7134   -8.0008    4.3892 H   0  0  0  0  0  0  0  0  0  0  0  0  # atno 2515 bound_to 2510
   -2.5071  -17.9053   14.3463 H   0  0  0  0  0  0  0  0  0  0  0  0  # atno 3721 bound_to 3712
   -4.3552  -22.2560   11.6493 H   0  0  0  0  0  0  0  0  0  0  0  0  # atno 3767 bound_to 3762
    2.0107  -20.7476    9.6225 H   0  0  0  0  0  0  0  0  0  0  0  0  # atno 3841 bound_to 3832
    4.8725   -8.9232    4.7112 LP  0  0  0  0  0  0  0  0  0  0  0  0  # atno 4297 bound_to 1298
    3.9591  -10.2722    4.5999 LP  0  0  0  0  0  0  0  0  0  0  0  0  # atno 4298 bound_to 1298
    1.4963   -7.9175    7.1189 LP  0  0  0  0  0  0  0  0  0  0  0  0  # atno 4299 bound_to 2456
    0.3583   -8.9205    7.7236 LP  0  0  0  0  0  0  0  0  0  0  0  0  # atno 4300 bound_to 2456
    2.5425   -9.2466    5.4306 LP  0  0  0  0  0  0  0  0  0  0  0  0  # atno 4301 bound_to 2510
    2.0407   -7.7519    5.8559 LP  0  0  0  0  0  0  0  0  0  0  0  0  # atno 4302 bound_to 2510
   -3.4825  -16.6300   14.3438 LP  0  0  0  0  0  0  0  0  0  0  0  0  # atno 4306 bound_to 3712
   -3.1507  -17.4244   12.9562 LP  0  0  0  0  0  0  0  0  0  0  0  0  # atno 4307 bound_to 3712
    1.7833  -19.6527    8.4712 LP  0  0  0  0  0  0  0  0  0  0  0  0  # atno 4314 bound_to 3832
    3.1233  -20.5859    8.4770 LP  0  0  0  0  0  0  0  0  0  0  0  0  # atno 4315 bound_to 3832
   -4.2625  -23.3355   10.4275 LP  0  0  0  0  0  0  0  0  0  0  0  0  # atno 4318 bound_to 3762
   -5.5095  -22.2834   10.4945 LP  0  0  0  0  0  0  0  0  0  0  0  0  # atno 4319 bound_to 3762
   -4.4777   -4.8037    7.6674 LP  0  0  0  0  0  0  0  0  0  0  0  0  # atno 4320 bound_to 2467
   -3.8118   -5.2439    9.0920 LP  0  0  0  0  0  0  0  0  0  0  0  0  # atno 4321 bound_to 2467

> <Gold.Score>
     Score     S(PLP)   S(hbond)     S(cho)   S(metal)  DE(clash)   DE(tors)     intcor
     54.02     -45.71       2.00       0.85       0.00       0.00       0.12       0.00

> <Gold.PLP.Fitness>
54.0152

> <Gold.PLP.PLP>
-45.7078

> <Gold.PLP.part.hbond>
-1.0000

> <Gold.PLP.part.metal>
0.0000

> <Gold.PLP.part.buried>
-3.2224

> <Gold.PLP.part.nonpolar>
-41.7262

> <Gold.PLP.part.repulsive>
0.0101

> <Gold.PLP.ligand.clash>
0.0000

> <Gold.PLP.ligand.torsion>
0.1218

> <Gold.PLP.Chemscore.Hbond>
2.0000

> <Gold.PLP.Chemscore.CHOScore>
0.8502

> <Gold.PLP.Chemscore.Metal>
0.0000

> <Gold.Chemscore.Hbonds>
donor molecule, donor type, donor heavy atom, donor atom, acceptor molecule, acceptor atom, score
      L1  H    12    31       P1  1227  2.00
      L1  C     3    17       P1  2398  0.85

> <Gold.PLP.Chemscore.Internal.Correction>
0.0004

