#       Name:                EN300-98433_i002
#       Creating user name   fsindt
#       Creation time:       Tue Feb 28 15:21:04 2023


#       File generated by GOLD software.
#

@<TRIPOS>MOLECULE
EN300-98433_i002|amine_7|mol2|6375|dock16
    31    32     1
SMALL
USER_CHARGES


@<TRIPOS>ATOM
      1 C1           1.1784 -12.0858   6.2956 C.3            1 <1>                0.0000
      2 N2           0.9895 -13.0876   7.3478 N.pl3          1 <1>                0.0000
      3 C3           1.0660 -14.4461   7.1992 C.2            1 <1>                0.0000
      4 C4           0.8282 -14.9846   8.4104 C.2            1 <1>                0.0000
      5 N5           0.6125 -13.9822   9.2751 N.2            1 <1>                0.0000
      6 C6           0.7133 -12.8427   8.6469 C.2            1 <1>                0.0000
      7 C7           0.5400 -11.4799   9.2664 C.3            1 <1>                0.0000
      8 C8          -0.8230 -11.4033   9.9573 C.3            1 <1>                0.0000
      9 C9          -1.0471  -9.9853  10.4903 C.3            1 <1>                0.0000
     10 C10         -2.4447  -9.8984  11.1101 C.3            1 <1>                0.0000
     11 C11         -3.4869 -10.2956  10.0624 C.3            1 <1>                0.0000
     12 N12         -3.2342 -11.6696   9.6121 N.4            1 <1>                1.0000
     13 C13         -1.9252 -11.7447   8.9523 C.3            1 <1>                0.0000
     14 H14          0.2201 -11.8704   5.8229 H              1 <1>                0.0000
     15 H15          1.5818 -11.1722   6.7319 H              1 <1>                0.0000
     16 H16          1.8736 -12.4698   5.5490 H              1 <1>                0.0000
     17 H17          1.2759 -14.9829   6.2859 H              1 <1>                0.0000
     18 H18          0.8137 -16.0388   8.6445 H              1 <1>                0.0000
     19 H19          1.3289 -11.3110   9.9992 H              1 <1>                0.0000
     20 H20          0.5967 -10.7178   8.4891 H              1 <1>                0.0000
     21 H21         -0.8518 -12.1120  10.7849 H              1 <1>                0.0000
     22 H22         -0.2974  -9.7580  11.2483 H              1 <1>                0.0000
     23 H23         -0.9667  -9.2709   9.6709 H              1 <1>                0.0000
     24 H24         -2.5080 -10.5760  11.9616 H              1 <1>                0.0000
     25 H25         -2.6329  -8.8773  11.4419 H              1 <1>                0.0000
     26 H26         -4.4832 -10.2346  10.5004 H              1 <1>                0.0000
     27 H27         -3.4229  -9.6173   9.2117 H              1 <1>                0.0000
     28 H28         -1.8945 -11.0355   8.1251 H              1 <1>                0.0000
     29 H29         -1.7686 -12.7536   8.5707 H              1 <1>                0.0000
     30 H30         -3.2450 -12.2904  10.4074 H              1 <1>                0.0000
     31 H31         -3.9540 -11.9470   8.9616 H              1 <1>                0.0000
@<TRIPOS>BOND
    1    1    2 1     
    2    1   14 1     
    3    1   15 1     
    4    1   16 1     
    5    2    3 1     
    6    2    6 1     
    7    3    4 2     
    8    3   17 1     
    9    4    5 1     
   10    4   18 1     
   11    5    6 2     
   12    6    7 1     
   13    7    8 1     
   14    7   19 1     
   15    7   20 1     
   16    8    9 1     
   17    8   13 1     
   18    8   21 1     
   19    9   10 1     
   20    9   22 1     
   21    9   23 1     
   22   10   11 1     
   23   10   24 1     
   24   10   25 1     
   25   11   12 1     
   26   11   26 1     
   27   11   27 1     
   28   12   13 1     
   29   12   30 1     
   30   12   31 1     
   31   13   28 1     
   32   13   29 1     
@<TRIPOS>SUBSTRUCTURE
      1 ****           1
@<TRIPOS>SET
DONOR_HYDROGENS      STATIC     ATOMS    <user>   **** ""
2 30 31
ATOM$RED        STATIC     ATOMS    COLORGROUP SYSTEM
2 30 31
@<TRIPOS>COMMENT
> <Gold.Version>
2022.2.0

> <Gold.Id.Protein>
3pbl|protein|mol2

> <Gold.Protein.RotatedTorsions>
[ 1303 1298 1297 1294 ] final -127.99 input  179.99 | X-H torsion
[ 2461 2456 2455 2452 ] final -145.90 input   30.03 | X-H torsion
[ 2515 2510 2509 2506 ] final    1.31 input  -89.99 | X-H torsion
[ 3721 3712 3711 3710 ] final -178.88 input -179.91 | X-H torsion
[ 3841 3832 3831 3830 ] final  -31.99 input -179.91 | X-H torsion
[ 3767 3762 3761 3758 ] final    6.01 input  -89.99 | X-H torsion
[ 2472 2467 2466 2463 ] final -148.39 input  -89.97 | X-H torsion

> <Gold.Protein.ActiveResidues>
 VAL82   VAL86   LEU89   PHE106  VAL107  ASP110  VAL111  MET112  CYS114  THR115 
 CYS181  SER182  ILE183  PHE188  VAL189  ILE190  SER192  SER193  SER196  TRP342 
 PHE345  PHE346  HIS349  VAL350  TYR365  THR369  GLY372  TYR373 

> <Gold.Protein.RotatedAtoms>
    4.3408   -8.4780    4.1697 H   0  0  0  0  0  0  0  0  0  0  0  0  # atno 1303 bound_to 1298
    0.9153   -9.2826    8.2798 H   0  0  0  0  0  0  0  0  0  0  0  0  # atno 2461 bound_to 2456
   -4.9546   -5.4608    9.3427 H   0  0  0  0  0  0  0  0  0  0  0  0  # atno 2472 bound_to 2467
    2.5320   -7.6156    4.6222 H   0  0  0  0  0  0  0  0  0  0  0  0  # atno 2515 bound_to 2510
   -3.3241  -16.6012   13.5622 H   0  0  0  0  0  0  0  0  0  0  0  0  # atno 3721 bound_to 3712
   -5.2658  -22.7900   10.1140 H   0  0  0  0  0  0  0  0  0  0  0  0  # atno 3767 bound_to 3762
    1.5672  -20.1076    9.3240 H   0  0  0  0  0  0  0  0  0  0  0  0  # atno 3841 bound_to 3832
    4.6688   -9.8795    4.9408 LP  0  0  0  0  0  0  0  0  0  0  0  0  # atno 4297 bound_to 1298
    3.3525   -9.7641    3.9813 LP  0  0  0  0  0  0  0  0  0  0  0  0  # atno 4298 bound_to 1298
    2.1504   -8.3425    7.7718 LP  0  0  0  0  0  0  0  0  0  0  0  0  # atno 4299 bound_to 2456
    0.6720   -8.1833    7.0967 LP  0  0  0  0  0  0  0  0  0  0  0  0  # atno 4300 bound_to 2456
    2.7211   -9.1969    4.9818 LP  0  0  0  0  0  0  0  0  0  0  0  0  # atno 4301 bound_to 2510
    2.0436   -8.1870    6.0716 LP  0  0  0  0  0  0  0  0  0  0  0  0  # atno 4302 bound_to 2510
   -2.7391  -18.0814   13.3512 LP  0  0  0  0  0  0  0  0  0  0  0  0  # atno 4306 bound_to 3712
   -2.9509  -17.4786   14.8540 LP  0  0  0  0  0  0  0  0  0  0  0  0  # atno 4307 bound_to 3712
    2.6184  -19.8573    8.1373 LP  0  0  0  0  0  0  0  0  0  0  0  0  # atno 4314 bound_to 3832
    2.8006  -21.1207    9.1557 LP  0  0  0  0  0  0  0  0  0  0  0  0  # atno 4315 bound_to 3832
   -4.9309  -21.9441   11.4701 LP  0  0  0  0  0  0  0  0  0  0  0  0  # atno 4318 bound_to 3762
   -3.9309  -23.1411   10.9867 LP  0  0  0  0  0  0  0  0  0  0  0  0  # atno 4319 bound_to 3762
   -5.1227   -4.9258    7.8091 LP  0  0  0  0  0  0  0  0  0  0  0  0  # atno 4320 bound_to 2467
   -3.6396   -5.0071    8.4875 LP  0  0  0  0  0  0  0  0  0  0  0  0  # atno 4321 bound_to 2467

> <Gold.Score>
     Score     S(PLP)   S(hbond)     S(cho)   S(metal)  DE(clash)   DE(tors)     intcor
     49.61     -46.69       0.00       0.99       0.00       0.00       0.03       0.00

> <Gold.PLP.Fitness>
49.6140

> <Gold.PLP.PLP>
-46.6914

> <Gold.PLP.part.hbond>
0.0000

> <Gold.PLP.part.metal>
0.0000

> <Gold.PLP.part.buried>
-3.6533

> <Gold.PLP.part.nonpolar>
-43.8315

> <Gold.PLP.part.repulsive>
0.0510

> <Gold.PLP.ligand.clash>
0.0000

> <Gold.PLP.ligand.torsion>
0.0306

> <Gold.PLP.Chemscore.Hbond>
0.0000

> <Gold.PLP.Chemscore.CHOScore>
0.9945

> <Gold.PLP.Chemscore.Metal>
0.0000

> <Gold.Chemscore.Hbonds>
donor molecule, donor type, donor heavy atom, donor atom, acceptor molecule, acceptor atom, score
      L1  C     4    18       P1  1227  0.99

> <Gold.PLP.Chemscore.Internal.Correction>
0.0002

