#       Name:                EN300-98433_i002
#       Creating user name   fsindt
#       Creation time:       Tue Feb 28 15:20:58 2023


#       File generated by GOLD software.
#

@<TRIPOS>MOLECULE
EN300-98433_i002|amine_7|mol2|6375|dock3
    31    32     1
SMALL
USER_CHARGES


@<TRIPOS>ATOM
      1 C1           1.4096 -11.8521   6.4179 C.3            1 <1>                0.0000
      2 N2           1.1336 -12.8286   7.4745 N.pl3          1 <1>                0.0000
      3 C3           1.3315 -14.1810   7.4025 C.2            1 <1>                0.0000
      4 C4           0.9486 -14.6945   8.5872 C.2            1 <1>                0.0000
      5 N5           0.5284 -13.6831   9.3614 N.2            1 <1>                0.0000
      6 C6           0.6417 -12.5617   8.7036 C.2            1 <1>                0.0000
      7 C7           0.2748 -11.1963   9.2254 C.3            1 <1>                0.0000
      8 C8          -1.2459 -11.0308   9.1962 C.3            1 <1>                0.0000
      9 C9          -1.8886 -12.0405  10.1515 C.3            1 <1>                0.0000
     10 C10         -3.4031 -11.8146  10.1741 C.3            1 <1>                0.0000
     11 C11         -3.6914 -10.3676  10.5798 C.3            1 <1>                0.0000
     12 N12         -3.0730  -9.4522   9.6134 N.4            1 <1>                1.0000
     13 C13         -1.6141  -9.6129   9.6382 C.3            1 <1>                0.0000
     14 H14          0.5233 -11.7301   5.7953 H              1 <1>                0.0000
     15 H15          1.6723 -10.8946   6.8676 H              1 <1>                0.0000
     16 H16          2.2387 -12.2051   5.8045 H              1 <1>                0.0000
     17 H17          1.7196 -14.7308   6.5578 H              1 <1>                0.0000
     18 H18          0.9752 -15.7378   8.8650 H              1 <1>                0.0000
     19 H19          0.6322 -11.0908  10.2496 H              1 <1>                0.0000
     20 H20          0.7356 -10.4323   8.5992 H              1 <1>                0.0000
     21 H21         -1.6114 -11.2038   8.1840 H              1 <1>                0.0000
     22 H22         -1.6761 -13.0532   9.8085 H              1 <1>                0.0000
     23 H23         -1.4844 -11.9018  11.1543 H              1 <1>                0.0000
     24 H24         -3.8140 -12.0034   9.1823 H              1 <1>                0.0000
     25 H25         -3.8615 -12.4927  10.8939 H              1 <1>                0.0000
     26 H26         -4.7688 -10.2035  10.5971 H              1 <1>                0.0000
     27 H27         -3.2803 -10.1801  11.5717 H              1 <1>                0.0000
     28 H28         -1.2473  -9.4414  10.6501 H              1 <1>                0.0000
     29 H29         -1.1581  -8.8915   8.9602 H              1 <1>                0.0000
     30 H30         -3.4174  -9.6590   8.6879 H              1 <1>                0.0000
     31 H31         -3.3096  -8.5012   9.8535 H              1 <1>                0.0000
@<TRIPOS>BOND
    1    1    2 1     
    2    1   14 1     
    3    1   15 1     
    4    1   16 1     
    5    2    3 1     
    6    2    6 1     
    7    3    4 2     
    8    3   17 1     
    9    4    5 1     
   10    4   18 1     
   11    5    6 2     
   12    6    7 1     
   13    7    8 1     
   14    7   19 1     
   15    7   20 1     
   16    8    9 1     
   17    8   13 1     
   18    8   21 1     
   19    9   10 1     
   20    9   22 1     
   21    9   23 1     
   22   10   11 1     
   23   10   24 1     
   24   10   25 1     
   25   11   12 1     
   26   11   26 1     
   27   11   27 1     
   28   12   13 1     
   29   12   30 1     
   30   12   31 1     
   31   13   28 1     
   32   13   29 1     
@<TRIPOS>SUBSTRUCTURE
      1 ****           1
@<TRIPOS>SET
DONOR_HYDROGENS      STATIC     ATOMS    <user>   **** ""
2 30 31
ATOM$RED        STATIC     ATOMS    COLORGROUP SYSTEM
2 30 31
@<TRIPOS>COMMENT
> <Gold.Version>
2022.2.0

> <Gold.Id.Protein>
3pbl|protein|mol2

> <Gold.Protein.RotatedTorsions>
[ 1303 1298 1297 1294 ] final  145.43 input  179.99 | X-H torsion
[ 2461 2456 2455 2452 ] final  -20.92 input   30.03 | X-H torsion
[ 2515 2510 2509 2506 ] final -122.73 input  -89.99 | X-H torsion
[ 3721 3712 3711 3710 ] final -146.63 input -179.91 | X-H torsion
[ 3841 3832 3831 3830 ] final  -42.40 input -179.91 | X-H torsion
[ 3767 3762 3761 3758 ] final  -74.75 input  -89.99 | X-H torsion
[ 2472 2467 2466 2463 ] final   63.71 input  -89.97 | X-H torsion

> <Gold.Protein.ActiveResidues>
 VAL82   VAL86   LEU89   PHE106  VAL107  ASP110  VAL111  MET112  CYS114  THR115 
 CYS181  SER182  ILE183  PHE188  VAL189  ILE190  SER192  SER193  SER196  TRP342 
 PHE345  PHE346  HIS349  VAL350  TYR365  THR369  GLY372  TYR373 

> <Gold.Protein.RotatedAtoms>
    4.8921   -9.3867    4.9054 H   0  0  0  0  0  0  0  0  0  0  0  0  # atno 1303 bound_to 1298
    0.7359   -8.1376    7.0734 H   0  0  0  0  0  0  0  0  0  0  0  0  # atno 2461 bound_to 2456
   -4.7035   -4.8279    7.6634 H   0  0  0  0  0  0  0  0  0  0  0  0  # atno 2472 bound_to 2467
    2.7006   -9.2176    5.0414 H   0  0  0  0  0  0  0  0  0  0  0  0  # atno 2515 bound_to 2510
   -3.3193  -16.5356   14.0388 H   0  0  0  0  0  0  0  0  0  0  0  0  # atno 3721 bound_to 3712
   -5.3683  -21.9690   11.0129 H   0  0  0  0  0  0  0  0  0  0  0  0  # atno 3767 bound_to 3762
    1.5626  -19.9891    9.2208 H   0  0  0  0  0  0  0  0  0  0  0  0  # atno 3841 bound_to 3832
    3.5837  -10.1452    4.2898 LP  0  0  0  0  0  0  0  0  0  0  0  0  # atno 4297 bound_to 1298
    3.8861   -8.5894    3.8962 LP  0  0  0  0  0  0  0  0  0  0  0  0  # atno 4298 bound_to 1298
    0.8426   -9.2719    8.2437 LP  0  0  0  0  0  0  0  0  0  0  0  0  # atno 4299 bound_to 2456
    2.1592   -8.3985    7.8308 LP  0  0  0  0  0  0  0  0  0  0  0  0  # atno 4300 bound_to 2456
    2.0368   -8.1230    6.0548 LP  0  0  0  0  0  0  0  0  0  0  0  0  # atno 4301 bound_to 2510
    2.5592   -7.6581    4.5791 LP  0  0  0  0  0  0  0  0  0  0  0  0  # atno 4302 bound_to 2510
   -2.9693  -17.7303   13.0249 LP  0  0  0  0  0  0  0  0  0  0  0  0  # atno 4306 bound_to 3712
   -2.7262  -17.9054   14.6301 LP  0  0  0  0  0  0  0  0  0  0  0  0  # atno 4307 bound_to 3712
    2.7556  -19.9635    8.1475 LP  0  0  0  0  0  0  0  0  0  0  0  0  # atno 4314 bound_to 3832
    2.6687  -21.1513    9.2647 LP  0  0  0  0  0  0  0  0  0  0  0  0  # atno 4315 bound_to 3832
   -3.9841  -22.7155   11.4527 LP  0  0  0  0  0  0  0  0  0  0  0  0  # atno 4318 bound_to 3762
   -4.7752  -23.1903   10.1054 LP  0  0  0  0  0  0  0  0  0  0  0  0  # atno 4319 bound_to 3762
   -3.7026   -5.1657    8.9085 LP  0  0  0  0  0  0  0  0  0  0  0  0  # atno 4320 bound_to 2467
   -5.3109   -5.3998    9.0671 LP  0  0  0  0  0  0  0  0  0  0  0  0  # atno 4321 bound_to 2467

> <Gold.Score>
     Score     S(PLP)   S(hbond)     S(cho)   S(metal)  DE(clash)   DE(tors)     intcor
     54.03     -48.45       0.81       1.20       0.00       0.00       0.23       0.00

> <Gold.PLP.Fitness>
54.0307

> <Gold.PLP.PLP>
-48.4474

> <Gold.PLP.part.hbond>
-0.9858

> <Gold.PLP.part.metal>
0.0000

> <Gold.PLP.part.buried>
-4.5834

> <Gold.PLP.part.nonpolar>
-45.0193

> <Gold.PLP.part.repulsive>
0.1116

> <Gold.PLP.ligand.clash>
0.0000

> <Gold.PLP.ligand.torsion>
0.2299

> <Gold.PLP.Chemscore.Hbond>
0.8125

> <Gold.PLP.Chemscore.CHOScore>
1.2017

> <Gold.PLP.Chemscore.Metal>
0.0000

> <Gold.Chemscore.Hbonds>
donor molecule, donor type, donor heavy atom, donor atom, acceptor molecule, acceptor atom, score
      L1  H    12    31       P1  2398  0.81
      L1  C     3    17       P1  1223  0.20
      L1  C     4    18       P1  1227  1.00

> <Gold.PLP.Chemscore.Internal.Correction>
0.0004

