#       Name:                EN300-98433_i002
#       Creating user name   fsindt
#       Creation time:       Tue Feb 28 15:21:03 2023


#       File generated by GOLD software.
#

@<TRIPOS>MOLECULE
EN300-98433_i002|amine_7|mol2|6375|dock13
    31    32     1
SMALL
USER_CHARGES


@<TRIPOS>ATOM
      1 C1          -0.5880 -11.4128   8.4987 C.3            1 <1>                0.0000
      2 N2           0.1974 -12.6158   8.2121 N.pl3          1 <1>                0.0000
      3 C3           0.8162 -12.9193   7.0295 C.2            1 <1>                0.0000
      4 C4           1.4213 -14.1102   7.2007 C.2            1 <1>                0.0000
      5 N5           1.1787 -14.5225   8.4537 N.2            1 <1>                0.0000
      6 C6           0.4510 -13.6298   9.0673 C.2            1 <1>                0.0000
      7 C7          -0.0345 -13.7202  10.4912 C.3            1 <1>                0.0000
      8 C8           0.3742 -15.0699  11.0846 C.3            1 <1>                0.0000
      9 C9          -0.0218 -15.1193  12.5631 C.3            1 <1>                0.0000
     10 C10          0.3202 -16.5014  13.1271 C.3            1 <1>                0.0000
     11 C11         -0.3915 -17.5741  12.2999 C.3            1 <1>                0.0000
     12 N12          0.0491 -17.4917  10.9022 N.4            1 <1>                1.0000
     13 C13         -0.3395 -16.1956  10.3331 C.3            1 <1>                0.0000
     14 H14         -1.6333 -11.5931   8.2480 H              1 <1>                0.0000
     15 H15         -0.5053 -11.1686   9.5577 H              1 <1>                0.0000
     16 H16         -0.2098 -10.5817   7.9035 H              1 <1>                0.0000
     17 H17          0.8181 -12.3193   6.1315 H              1 <1>                0.0000
     18 H18          2.0004 -14.6402   6.4590 H              1 <1>                0.0000
     19 H19          0.4091 -12.9159  11.0780 H              1 <1>                0.0000
     20 H20         -1.1204 -13.6283  10.5112 H              1 <1>                0.0000
     21 H21          1.4529 -15.1964  10.9923 H              1 <1>                0.0000
     22 H22          0.5272 -14.3550  13.1133 H              1 <1>                0.0000
     23 H23         -1.0928 -14.9410  12.6597 H              1 <1>                0.0000
     24 H24          1.3976 -16.6584  13.0771 H              1 <1>                0.0000
     25 H25         -0.0096 -16.5630  14.1642 H              1 <1>                0.0000
     26 H26         -0.1503 -18.5594  12.6989 H              1 <1>                0.0000
     27 H27         -1.4688 -17.4163  12.3508 H              1 <1>                0.0000
     28 H28         -1.4179 -16.0672  10.4259 H              1 <1>                0.0000
     29 H29         -0.0598 -16.1632   9.2801 H              1 <1>                0.0000
     30 H30          1.0525 -17.5889  10.8606 H              1 <1>                0.0000
     31 H31         -0.3811 -18.2337  10.3707 H              1 <1>                0.0000
@<TRIPOS>BOND
    1    1    2 1     
    2    1   14 1     
    3    1   15 1     
    4    1   16 1     
    5    2    3 1     
    6    2    6 1     
    7    3    4 2     
    8    3   17 1     
    9    4    5 1     
   10    4   18 1     
   11    5    6 2     
   12    6    7 1     
   13    7    8 1     
   14    7   19 1     
   15    7   20 1     
   16    8    9 1     
   17    8   13 1     
   18    8   21 1     
   19    9   10 1     
   20    9   22 1     
   21    9   23 1     
   22   10   11 1     
   23   10   24 1     
   24   10   25 1     
   25   11   12 1     
   26   11   26 1     
   27   11   27 1     
   28   12   13 1     
   29   12   30 1     
   30   12   31 1     
   31   13   28 1     
   32   13   29 1     
@<TRIPOS>SUBSTRUCTURE
      1 ****           1
@<TRIPOS>SET
DONOR_HYDROGENS      STATIC     ATOMS    <user>   **** ""
2 30 31
ATOM$RED        STATIC     ATOMS    COLORGROUP SYSTEM
2 30 31
@<TRIPOS>COMMENT
> <Gold.Version>
2022.2.0

> <Gold.Id.Protein>
3pbl|protein|mol2

> <Gold.Protein.RotatedTorsions>
[ 1303 1298 1297 1294 ] final   17.27 input  179.99 | X-H torsion
[ 2461 2456 2455 2452 ] final   93.34 input   30.03 | X-H torsion
[ 2515 2510 2509 2506 ] final  170.97 input  -89.99 | X-H torsion
[ 3721 3712 3711 3710 ] final  -76.70 input -179.91 | X-H torsion
[ 3841 3832 3831 3830 ] final -170.12 input -179.91 | X-H torsion
[ 3767 3762 3761 3758 ] final   18.47 input  -89.99 | X-H torsion
[ 2472 2467 2466 2463 ] final -148.45 input  -89.97 | X-H torsion

> <Gold.Protein.ActiveResidues>
 VAL82   VAL86   LEU89   PHE106  VAL107  ASP110  VAL111  MET112  CYS114  THR115 
 CYS181  SER182  ILE183  PHE188  VAL189  ILE190  SER192  SER193  SER196  TRP342 
 PHE345  PHE346  HIS349  VAL350  TYR365  THR369  GLY372  TYR373 

> <Gold.Protein.RotatedAtoms>
    3.5066  -10.0717    4.2083 H   0  0  0  0  0  0  0  0  0  0  0  0  # atno 1303 bound_to 1298
    2.1487   -8.3340    7.7627 H   0  0  0  0  0  0  0  0  0  0  0  0  # atno 2461 bound_to 2456
   -4.9554   -5.4607    9.3423 H   0  0  0  0  0  0  0  0  0  0  0  0  # atno 2472 bound_to 2467
    2.2641   -8.9342    5.9312 H   0  0  0  0  0  0  0  0  0  0  0  0  # atno 2515 bound_to 2510
   -2.9256  -17.1132   14.7438 H   0  0  0  0  0  0  0  0  0  0  0  0  # atno 3721 bound_to 3712
   -5.1281  -22.9352   10.0712 H   0  0  0  0  0  0  0  0  0  0  0  0  # atno 3767 bound_to 3762
    2.8638  -19.9412    8.3722 H   0  0  0  0  0  0  0  0  0  0  0  0  # atno 3841 bound_to 3832
    3.9958   -8.5352    3.9514 LP  0  0  0  0  0  0  0  0  0  0  0  0  # atno 4297 bound_to 1298
    4.8601   -9.5141    4.9319 LP  0  0  0  0  0  0  0  0  0  0  0  0  # atno 4298 bound_to 1298
    0.6626   -8.1905    7.1006 LP  0  0  0  0  0  0  0  0  0  0  0  0  # atno 4299 bound_to 2456
    0.9268   -9.2836    8.2848 LP  0  0  0  0  0  0  0  0  0  0  0  0  # atno 4300 bound_to 2456
    2.1986   -7.4240    5.3141 LP  0  0  0  0  0  0  0  0  0  0  0  0  # atno 4301 bound_to 2510
    2.8341   -8.6407    4.4296 LP  0  0  0  0  0  0  0  0  0  0  0  0  # atno 4302 bound_to 2510
   -3.4841  -16.7934   13.2728 LP  0  0  0  0  0  0  0  0  0  0  0  0  # atno 4306 bound_to 3712
   -2.6659  -18.1754   13.5682 LP  0  0  0  0  0  0  0  0  0  0  0  0  # atno 4307 bound_to 3712
    2.5195  -21.1568    9.3621 LP  0  0  0  0  0  0  0  0  0  0  0  0  # atno 4314 bound_to 3832
    1.4017  -20.0134    9.0304 LP  0  0  0  0  0  0  0  0  0  0  0  0  # atno 4315 bound_to 3832
   -5.0920  -21.9165   11.3471 LP  0  0  0  0  0  0  0  0  0  0  0  0  # atno 4318 bound_to 3762
   -3.9074  -23.0235   11.1525 LP  0  0  0  0  0  0  0  0  0  0  0  0  # atno 4319 bound_to 3762
   -5.1221   -4.9255    7.8086 LP  0  0  0  0  0  0  0  0  0  0  0  0  # atno 4320 bound_to 2467
   -3.6395   -5.0074    8.4883 LP  0  0  0  0  0  0  0  0  0  0  0  0  # atno 4321 bound_to 2467

> <Gold.Score>
     Score     S(PLP)   S(hbond)     S(cho)   S(metal)  DE(clash)   DE(tors)     intcor
     45.12     -37.34       1.76       0.85       0.00       0.00       0.03       0.00

> <Gold.PLP.Fitness>
45.1197

> <Gold.PLP.PLP>
-37.3352

> <Gold.PLP.part.hbond>
-1.0000

> <Gold.PLP.part.metal>
0.0000

> <Gold.PLP.part.buried>
-4.1901

> <Gold.PLP.part.nonpolar>
-32.6567

> <Gold.PLP.part.repulsive>
0.1499

> <Gold.PLP.ligand.clash>
0.0000

> <Gold.PLP.ligand.torsion>
0.0268

> <Gold.PLP.Chemscore.Hbond>
1.7600

> <Gold.PLP.Chemscore.CHOScore>
0.8526

> <Gold.PLP.Chemscore.Metal>
0.0000

> <Gold.Chemscore.Hbonds>
donor molecule, donor type, donor heavy atom, donor atom, acceptor molecule, acceptor atom, score
      L1  H    12    30       P1  1227  1.76
      L1  C     4    18       P1  1223  0.85

> <Gold.PLP.Chemscore.Internal.Correction>
0.0002

