#       Name:                EN300-98433_i002
#       Creating user name   fsindt
#       Creation time:       Tue Feb 28 15:20:59 2023


#       File generated by GOLD software.
#

@<TRIPOS>MOLECULE
EN300-98433_i002|amine_7|mol2|6375|dock5
    31    32     1
SMALL
USER_CHARGES


@<TRIPOS>ATOM
      1 C1           0.3499 -11.6462   7.5986 C.3            1 <1>                0.0000
      2 N2           0.3601 -12.9830   8.1980 N.pl3          1 <1>                0.0000
      3 C3           0.8153 -14.1328   7.6114 C.2            1 <1>                0.0000
      4 C4           0.6399 -15.1231   8.5071 C.2            1 <1>                0.0000
      5 N5           0.0925 -14.5923   9.6105 N.2            1 <1>                0.0000
      6 C6          -0.0727 -13.3097   9.4349 C.2            1 <1>                0.0000
      7 C7          -0.6587 -12.3536  10.4416 C.3            1 <1>                0.0000
      8 C8          -1.7756 -11.5411   9.7833 C.3            1 <1>                0.0000
      9 C9          -3.1351 -12.1107  10.1986 C.3            1 <1>                0.0000
     10 C10         -4.2457 -11.2438   9.5983 C.3            1 <1>                0.0000
     11 C11         -4.0589  -9.7958  10.0566 C.3            1 <1>                0.0000
     12 N12         -2.7525  -9.3009   9.6065 N.4            1 <1>                1.0000
     13 C13         -1.6804 -10.0822  10.2348 C.3            1 <1>                0.0000
     14 H14         -0.5910 -11.4921   7.0703 H              1 <1>                0.0000
     15 H15          0.4537 -10.8958   8.3822 H              1 <1>                0.0000
     16 H16          1.1794 -11.5563   6.8972 H              1 <1>                0.0000
     17 H17          1.2341 -14.2277   6.6205 H              1 <1>                0.0000
     18 H18          0.8953 -16.1624   8.3622 H              1 <1>                0.0000
     19 H19         -1.0652 -12.9154  11.2824 H              1 <1>                0.0000
     20 H20          0.1199 -11.6790  10.7977 H              1 <1>                0.0000
     21 H21         -1.6742 -11.5948   8.6993 H              1 <1>                0.0000
     22 H22         -3.2304 -13.1321   9.8299 H              1 <1>                0.0000
     23 H23         -3.2158 -12.1053  11.2856 H              1 <1>                0.0000
     24 H24         -4.1959 -11.2905   8.5104 H              1 <1>                0.0000
     25 H25         -5.2154 -11.6101   9.9350 H              1 <1>                0.0000
     26 H26         -4.8481  -9.1760   9.6311 H              1 <1>                0.0000
     27 H27         -4.1091  -9.7503  11.1445 H              1 <1>                0.0000
     28 H28         -1.7812 -10.0305  11.3189 H              1 <1>                0.0000
     29 H29         -0.7136  -9.6736   9.9408 H              1 <1>                0.0000
     30 H30         -2.6880  -9.3891   8.6034 H              1 <1>                0.0000
     31 H31         -2.6549  -8.3301   9.8637 H              1 <1>                0.0000
@<TRIPOS>BOND
    1    1    2 1     
    2    1   14 1     
    3    1   15 1     
    4    1   16 1     
    5    2    3 1     
    6    2    6 1     
    7    3    4 2     
    8    3   17 1     
    9    4    5 1     
   10    4   18 1     
   11    5    6 2     
   12    6    7 1     
   13    7    8 1     
   14    7   19 1     
   15    7   20 1     
   16    8    9 1     
   17    8   13 1     
   18    8   21 1     
   19    9   10 1     
   20    9   22 1     
   21    9   23 1     
   22   10   11 1     
   23   10   24 1     
   24   10   25 1     
   25   11   12 1     
   26   11   26 1     
   27   11   27 1     
   28   12   13 1     
   29   12   30 1     
   30   12   31 1     
   31   13   28 1     
   32   13   29 1     
@<TRIPOS>SUBSTRUCTURE
      1 ****           1
@<TRIPOS>SET
DONOR_HYDROGENS      STATIC     ATOMS    <user>   **** ""
2 30 31
ATOM$RED        STATIC     ATOMS    COLORGROUP SYSTEM
2 30 31
@<TRIPOS>COMMENT
> <Gold.Version>
2022.2.0

> <Gold.Id.Protein>
3pbl|protein|mol2

> <Gold.Protein.RotatedTorsions>
[ 1303 1298 1297 1294 ] final   26.38 input  179.99 | X-H torsion
[ 2461 2456 2455 2452 ] final  -50.90 input   30.03 | X-H torsion
[ 2515 2510 2509 2506 ] final -123.78 input  -89.99 | X-H torsion
[ 3721 3712 3711 3710 ] final    7.27 input -179.91 | X-H torsion
[ 3841 3832 3831 3830 ] final -104.97 input -179.91 | X-H torsion
[ 3767 3762 3761 3758 ] final  154.37 input  -89.99 | X-H torsion
[ 2472 2467 2466 2463 ] final   43.30 input  -89.97 | X-H torsion

> <Gold.Protein.ActiveResidues>
 VAL82   VAL86   LEU89   PHE106  VAL107  ASP110  VAL111  MET112  CYS114  THR115 
 CYS181  SER182  ILE183  PHE188  VAL189  ILE190  SER192  SER193  SER196  TRP342 
 PHE345  PHE346  HIS349  VAL350  TYR365  THR369  GLY372  TYR373 

> <Gold.Protein.RotatedAtoms>
    3.5934  -10.1524    4.3000 H   0  0  0  0  0  0  0  0  0  0  0  0  # atno 1303 bound_to 1298
    0.4241   -8.4519    7.2786 H   0  0  0  0  0  0  0  0  0  0  0  0  # atno 2461 bound_to 2456
   -4.3714   -4.7998    7.6869 H   0  0  0  0  0  0  0  0  0  0  0  0  # atno 2472 bound_to 2467
    2.6950   -9.2224    5.0570 H   0  0  0  0  0  0  0  0  0  0  0  0  # atno 2515 bound_to 2510
   -2.4750  -17.9934   14.1396 H   0  0  0  0  0  0  0  0  0  0  0  0  # atno 3721 bound_to 3712
   -3.9318  -22.8465   11.3427 H   0  0  0  0  0  0  0  0  0  0  0  0  # atno 3767 bound_to 3762
    2.0266  -19.5809    8.5680 H   0  0  0  0  0  0  0  0  0  0  0  0  # atno 3841 bound_to 3832
    3.8736   -8.5968    3.8904 LP  0  0  0  0  0  0  0  0  0  0  0  0  # atno 4297 bound_to 1298
    4.8954   -9.3718    4.9012 LP  0  0  0  0  0  0  0  0  0  0  0  0  # atno 4298 bound_to 1298
    1.3072   -9.2575    8.3916 LP  0  0  0  0  0  0  0  0  0  0  0  0  # atno 4299 bound_to 2456
    2.0062   -8.0986    7.4778 LP  0  0  0  0  0  0  0  0  0  0  0  0  # atno 4300 bound_to 2456
    2.0354   -8.1065    6.0498 LP  0  0  0  0  0  0  0  0  0  0  0  0  # atno 4301 bound_to 2510
    2.5662   -7.6698    4.5685 LP  0  0  0  0  0  0  0  0  0  0  0  0  # atno 4302 bound_to 2510
   -3.3980  -16.7454   14.5499 LP  0  0  0  0  0  0  0  0  0  0  0  0  # atno 4306 bound_to 3712
   -3.2722  -17.2073   12.9887 LP  0  0  0  0  0  0  0  0  0  0  0  0  # atno 4307 bound_to 3712
    3.1211  -20.7534    8.6283 LP  0  0  0  0  0  0  0  0  0  0  0  0  # atno 4314 bound_to 3832
    1.7672  -20.8330    9.5380 LP  0  0  0  0  0  0  0  0  0  0  0  0  # atno 4315 bound_to 3832
   -4.9248  -23.0989   10.0711 LP  0  0  0  0  0  0  0  0  0  0  0  0  # atno 4318 bound_to 3762
   -5.2704  -21.9297   11.1574 LP  0  0  0  0  0  0  0  0  0  0  0  0  # atno 4319 bound_to 3762
   -3.8795   -5.2789    9.1684 LP  0  0  0  0  0  0  0  0  0  0  0  0  # atno 4320 bound_to 2467
   -5.4661   -5.3148    8.7837 LP  0  0  0  0  0  0  0  0  0  0  0  0  # atno 4321 bound_to 2467

> <Gold.Score>
     Score     S(PLP)   S(hbond)     S(cho)   S(metal)  DE(clash)   DE(tors)     intcor
     54.71     -50.12       1.00       0.97       0.00       0.00       0.66       0.00

> <Gold.PLP.Fitness>
54.7115

> <Gold.PLP.PLP>
-50.1213

> <Gold.PLP.part.hbond>
-1.0000

> <Gold.PLP.part.metal>
0.0000

> <Gold.PLP.part.buried>
-4.3931

> <Gold.PLP.part.nonpolar>
-46.6388

> <Gold.PLP.part.repulsive>
0.1512

> <Gold.PLP.ligand.clash>
0.0000

> <Gold.PLP.ligand.torsion>
0.6626

> <Gold.PLP.Chemscore.Hbond>
1.0000

> <Gold.PLP.Chemscore.CHOScore>
0.9717

> <Gold.PLP.Chemscore.Metal>
0.0000

> <Gold.Chemscore.Hbonds>
donor molecule, donor type, donor heavy atom, donor atom, acceptor molecule, acceptor atom, score
      L1  H    12    31       P1  2398  1.00
      L1  C     4    18       P1  1227  0.97

> <Gold.PLP.Chemscore.Internal.Correction>
0.0004

