#       Name:                EN300-98433_i002
#       Creating user name   fsindt
#       Creation time:       Tue Feb 28 15:21:04 2023


#       File generated by GOLD software.
#

@<TRIPOS>MOLECULE
EN300-98433_i002|amine_7|mol2|6375|dock15
    31    32     1
SMALL
USER_CHARGES


@<TRIPOS>ATOM
      1 C1           2.4138 -16.9636  13.9545 C.3            1 <1>                0.0000
      2 N2           1.1613 -17.6091  14.3554 N.pl3          1 <1>                0.0000
      3 C3           1.0187 -18.5897  15.2997 C.2            1 <1>                0.0000
      4 C4          -0.2922 -18.8937  15.3510 C.2            1 <1>                0.0000
      5 N5          -0.9327 -18.1198  14.4622 N.2            1 <1>                0.0000
      6 C6          -0.0692 -17.3437  13.8662 C.2            1 <1>                0.0000
      7 C7          -0.3906 -16.3270  12.8012 C.3            1 <1>                0.0000
      8 C8          -0.0198 -16.8918  11.4284 C.3            1 <1>                0.0000
      9 C9          -0.9949 -18.0124  11.0562 C.3            1 <1>                0.0000
     10 C10         -0.6639 -18.5172   9.6488 C.3            1 <1>                0.0000
     11 C11         -0.7236 -17.3461   8.6657 C.3            1 <1>                0.0000
     12 N12          0.2495 -16.3208   9.0608 N.4            1 <1>                1.0000
     13 C13         -0.1034 -15.7809  10.3794 C.3            1 <1>                0.0000
     14 H14          2.8621 -17.5200  13.1314 H              1 <1>                0.0000
     15 H15          2.2097 -15.9421  13.6339 H              1 <1>                0.0000
     16 H16          3.1016 -16.9486  14.8000 H              1 <1>                0.0000
     17 H17          1.8064 -19.0345  15.8898 H              1 <1>                0.0000
     18 H18         -0.7479 -19.6313  15.9949 H              1 <1>                0.0000
     19 H19         -1.4564 -16.1004  12.8251 H              1 <1>                0.0000
     20 H20          0.1788 -15.4160  12.9852 H              1 <1>                0.0000
     21 H21          0.9951 -17.2880  11.4600 H              1 <1>                0.0000
     22 H22         -0.8986 -18.8312  11.7692 H              1 <1>                0.0000
     23 H23         -2.0152 -17.6291  11.0754 H              1 <1>                0.0000
     24 H24          0.3378 -18.9470   9.6426 H              1 <1>                0.0000
     25 H25         -1.3884 -19.2766   9.3548 H              1 <1>                0.0000
     26 H26         -0.4886 -17.7021   7.6627 H              1 <1>                0.0000
     27 H27         -1.7257 -16.9173   8.6726 H              1 <1>                0.0000
     28 H28         -1.1187 -15.3854  10.3497 H              1 <1>                0.0000
     29 H29          0.5895 -14.9814  10.6415 H              1 <1>                0.0000
     30 H30          1.1706 -16.7306   9.1019 H              1 <1>                0.0000
     31 H31          0.2455 -15.5750   8.3812 H              1 <1>                0.0000
@<TRIPOS>BOND
    1    1    2 1     
    2    1   14 1     
    3    1   15 1     
    4    1   16 1     
    5    2    3 1     
    6    2    6 1     
    7    3    4 2     
    8    3   17 1     
    9    4    5 1     
   10    4   18 1     
   11    5    6 2     
   12    6    7 1     
   13    7    8 1     
   14    7   19 1     
   15    7   20 1     
   16    8    9 1     
   17    8   13 1     
   18    8   21 1     
   19    9   10 1     
   20    9   22 1     
   21    9   23 1     
   22   10   11 1     
   23   10   24 1     
   24   10   25 1     
   25   11   12 1     
   26   11   26 1     
   27   11   27 1     
   28   12   13 1     
   29   12   30 1     
   30   12   31 1     
   31   13   28 1     
   32   13   29 1     
@<TRIPOS>SUBSTRUCTURE
      1 ****           1
@<TRIPOS>SET
DONOR_HYDROGENS      STATIC     ATOMS    <user>   **** ""
2 30 31
ATOM$RED        STATIC     ATOMS    COLORGROUP SYSTEM
2 30 31
@<TRIPOS>COMMENT
> <Gold.Version>
2022.2.0

> <Gold.Id.Protein>
3pbl|protein|mol2

> <Gold.Protein.RotatedTorsions>
[ 1303 1298 1297 1294 ] final -176.96 input  179.99 | X-H torsion
[ 2461 2456 2455 2452 ] final -143.85 input   30.03 | X-H torsion
[ 2515 2510 2509 2506 ] final  -69.57 input  -89.99 | X-H torsion
[ 3721 3712 3711 3710 ] final   21.09 input -179.91 | X-H torsion
[ 3841 3832 3831 3830 ] final  101.07 input -179.91 | X-H torsion
[ 3767 3762 3761 3758 ] final -104.14 input  -89.99 | X-H torsion
[ 2472 2467 2466 2463 ] final  -55.20 input  -89.97 | X-H torsion

> <Gold.Protein.ActiveResidues>
 VAL82   VAL86   LEU89   PHE106  VAL107  ASP110  VAL111  MET112  CYS114  THR115 
 CYS181  SER182  ILE183  PHE188  VAL189  ILE190  SER192  SER193  SER196  TRP342 
 PHE345  PHE346  HIS349  VAL350  TYR365  THR369  GLY372  TYR373 

> <Gold.Protein.RotatedAtoms>
    4.8383   -8.8360    4.6543 H   0  0  0  0  0  0  0  0  0  0  0  0  # atno 1303 bound_to 1298
    0.8849   -9.2789    8.2655 H   0  0  0  0  0  0  0  0  0  0  0  0  # atno 2461 bound_to 2456
   -3.6960   -5.1602    8.8930 H   0  0  0  0  0  0  0  0  0  0  0  0  # atno 2472 bound_to 2467
    2.8344   -8.6487    4.4334 H   0  0  0  0  0  0  0  0  0  0  0  0  # atno 2515 bound_to 2510
   -2.4715  -18.0313   13.9346 H   0  0  0  0  0  0  0  0  0  0  0  0  # atno 3721 bound_to 3712
   -5.0592  -21.9189   11.3747 H   0  0  0  0  0  0  0  0  0  0  0  0  # atno 3767 bound_to 3762
    2.9504  -20.8676    9.1480 H   0  0  0  0  0  0  0  0  0  0  0  0  # atno 3841 bound_to 3832
    4.0499  -10.2659    4.6606 LP  0  0  0  0  0  0  0  0  0  0  0  0  # atno 4297 bound_to 1298
    3.4737   -9.0197    3.7766 LP  0  0  0  0  0  0  0  0  0  0  0  0  # atno 4298 bound_to 1298
    2.1548   -8.3653    7.7962 LP  0  0  0  0  0  0  0  0  0  0  0  0  # atno 4299 bound_to 2456
    0.6979   -8.1642    7.0866 LP  0  0  0  0  0  0  0  0  0  0  0  0  # atno 4300 bound_to 2456
    2.2604   -8.9278    5.9362 LP  0  0  0  0  0  0  0  0  0  0  0  0  # atno 4301 bound_to 2510
    2.2017   -7.4224    5.3061 LP  0  0  0  0  0  0  0  0  0  0  0  0  # atno 4302 bound_to 2510
   -3.3015  -16.8903   14.7008 LP  0  0  0  0  0  0  0  0  0  0  0  0  # atno 4306 bound_to 3712
   -3.3727  -17.0185   13.0745 LP  0  0  0  0  0  0  0  0  0  0  0  0  # atno 4307 bound_to 3712
    1.4351  -20.3705    9.3295 LP  0  0  0  0  0  0  0  0  0  0  0  0  # atno 4314 bound_to 3832
    2.3860  -19.7296    8.1669 LP  0  0  0  0  0  0  0  0  0  0  0  0  # atno 4315 bound_to 3832
   -3.9092  -23.0498   11.1189 LP  0  0  0  0  0  0  0  0  0  0  0  0  # atno 4318 bound_to 3762
   -5.1591  -22.9062   10.0777 LP  0  0  0  0  0  0  0  0  0  0  0  0  # atno 4319 bound_to 3762
   -5.2998   -5.4035    9.0807 LP  0  0  0  0  0  0  0  0  0  0  0  0  # atno 4320 bound_to 2467
   -4.7210   -4.8298    7.6655 LP  0  0  0  0  0  0  0  0  0  0  0  0  # atno 4321 bound_to 2467

> <Gold.Score>
     Score     S(PLP)   S(hbond)     S(cho)   S(metal)  DE(clash)   DE(tors)     intcor
     46.14     -34.86       2.96       1.00       0.00       0.00       0.30       0.00

> <Gold.PLP.Fitness>
46.1359

> <Gold.PLP.PLP>
-34.8558

> <Gold.PLP.part.hbond>
-1.7719

> <Gold.PLP.part.metal>
0.0000

> <Gold.PLP.part.buried>
-3.2762

> <Gold.PLP.part.nonpolar>
-29.8064

> <Gold.PLP.part.repulsive>
0.0095

> <Gold.PLP.ligand.clash>
0.0000

> <Gold.PLP.ligand.torsion>
0.3001

> <Gold.PLP.Chemscore.Hbond>
2.9600

> <Gold.PLP.Chemscore.CHOScore>
1.0000

> <Gold.PLP.Chemscore.Metal>
0.0000

> <Gold.Chemscore.Hbonds>
donor molecule, donor type, donor heavy atom, donor atom, acceptor molecule, acceptor atom, score
      L1  H    12    30       P1  1227  2.00
      P1  H  3712  3721       L1     5  0.96
      L1  C     3    17       P1  2287  1.00

> <Gold.PLP.Chemscore.Internal.Correction>
0.0002

