#       Name:                EN300-98433_i002
#       Creating user name   fsindt
#       Creation time:       Tue Feb 28 15:21:06 2023


#       File generated by GOLD software.
#

@<TRIPOS>MOLECULE
EN300-98433_i002|amine_7|mol2|6375|dock20
    31    32     1
SMALL
USER_CHARGES


@<TRIPOS>ATOM
      1 C1           0.5575 -14.8724   7.5311 C.3            1 <1>                0.0000
      2 N2           0.7288 -13.4195   7.4523 N.pl3          1 <1>                0.0000
      3 C3           1.0507 -12.6991   6.3339 C.2            1 <1>                0.0000
      4 C4           1.1062 -11.4060   6.7060 C.2            1 <1>                0.0000
      5 N5           0.8258 -11.3388   8.0159 N.2            1 <1>                0.0000
      6 C6           0.5931 -12.5405   8.4685 C.2            1 <1>                0.0000
      7 C7           0.2411 -12.8903   9.8915 C.3            1 <1>                0.0000
      8 C8          -0.9256 -12.0171  10.3577 C.3            1 <1>                0.0000
      9 C9          -0.4793 -10.5531  10.4104 C.3            1 <1>                0.0000
     10 C10         -1.6744  -9.6792  10.8020 C.3            1 <1>                0.0000
     11 C11         -2.8121  -9.9032   9.8035 C.3            1 <1>                0.0000
     12 N12         -3.2108 -11.3157   9.8194 N.4            1 <1>                1.0000
     13 C13         -2.0909 -12.1545   9.3756 C.3            1 <1>                0.0000
     14 H14          1.5133 -15.3385   7.7702 H              1 <1>                0.0000
     15 H15         -0.1678 -15.1111   8.3089 H              1 <1>                0.0000
     16 H16          0.1995 -15.2485   6.5727 H              1 <1>                0.0000
     17 H17          1.2269 -13.0922   5.3435 H              1 <1>                0.0000
     18 H18          1.3362 -10.5697   6.0625 H              1 <1>                0.0000
     19 H19         -0.0461 -13.9403   9.9471 H              1 <1>                0.0000
     20 H20          1.1049 -12.7153  10.5328 H              1 <1>                0.0000
     21 H21         -1.2451 -12.3361  11.3498 H              1 <1>                0.0000
     22 H22          0.3131 -10.4399  11.1503 H              1 <1>                0.0000
     23 H23         -0.1109 -10.2489   9.4306 H              1 <1>                0.0000
     24 H24         -2.0102  -9.9495  11.8031 H              1 <1>                0.0000
     25 H25         -1.3785  -8.6302  10.7874 H              1 <1>                0.0000
     26 H26         -3.6644  -9.2823  10.0794 H              1 <1>                0.0000
     27 H27         -2.4752  -9.6324   8.8029 H              1 <1>                0.0000
     28 H28         -1.7695 -11.8358   8.3841 H              1 <1>                0.0000
     29 H29         -2.4110 -13.1956   9.3357 H              1 <1>                0.0000
     30 H30         -3.4760 -11.5787  10.7567 H              1 <1>                0.0000
     31 H31         -3.9960 -11.4495   9.1999 H              1 <1>                0.0000
@<TRIPOS>BOND
    1    1    2 1     
    2    1   14 1     
    3    1   15 1     
    4    1   16 1     
    5    2    3 1     
    6    2    6 1     
    7    3    4 2     
    8    3   17 1     
    9    4    5 1     
   10    4   18 1     
   11    5    6 2     
   12    6    7 1     
   13    7    8 1     
   14    7   19 1     
   15    7   20 1     
   16    8    9 1     
   17    8   13 1     
   18    8   21 1     
   19    9   10 1     
   20    9   22 1     
   21    9   23 1     
   22   10   11 1     
   23   10   24 1     
   24   10   25 1     
   25   11   12 1     
   26   11   26 1     
   27   11   27 1     
   28   12   13 1     
   29   12   30 1     
   30   12   31 1     
   31   13   28 1     
   32   13   29 1     
@<TRIPOS>SUBSTRUCTURE
      1 ****           1
@<TRIPOS>SET
DONOR_HYDROGENS      STATIC     ATOMS    <user>   **** ""
2 30 31
ATOM$RED        STATIC     ATOMS    COLORGROUP SYSTEM
2 30 31
@<TRIPOS>COMMENT
> <Gold.Version>
2022.2.0

> <Gold.Id.Protein>
3pbl|protein|mol2

> <Gold.Protein.RotatedTorsions>
[ 1303 1298 1297 1294 ] final  163.02 input  179.99 | X-H torsion
[ 2461 2456 2455 2452 ] final -147.10 input   30.03 | X-H torsion
[ 2515 2510 2509 2506 ] final  -17.17 input  -89.99 | X-H torsion
[ 3721 3712 3711 3710 ] final  166.95 input -179.91 | X-H torsion
[ 3841 3832 3831 3830 ] final -164.91 input -179.91 | X-H torsion
[ 3767 3762 3761 3758 ] final -133.77 input  -89.99 | X-H torsion
[ 2472 2467 2466 2463 ] final   70.59 input  -89.97 | X-H torsion

> <Gold.Protein.ActiveResidues>
 VAL82   VAL86   LEU89   PHE106  VAL107  ASP110  VAL111  MET112  CYS114  THR115 
 CYS181  SER182  ILE183  PHE188  VAL189  ILE190  SER192  SER193  SER196  TRP342 
 PHE345  PHE346  HIS349  VAL350  TYR365  THR369  GLY372  TYR373 

> <Gold.Protein.RotatedAtoms>
    4.9088   -9.1146    4.8114 H   0  0  0  0  0  0  0  0  0  0  0  0  # atno 1303 bound_to 1298
    0.9332   -9.2844    8.2879 H   0  0  0  0  0  0  0  0  0  0  0  0  # atno 2461 bound_to 2456
   -4.8137   -4.8463    7.6807 H   0  0  0  0  0  0  0  0  0  0  0  0  # atno 2472 bound_to 2467
    2.6508   -7.8373    4.4539 H   0  0  0  0  0  0  0  0  0  0  0  0  # atno 2515 bound_to 2510
   -3.2838  -16.7002   13.3772 H   0  0  0  0  0  0  0  0  0  0  0  0  # atno 3721 bound_to 3712
   -4.6565  -22.0522   11.6042 H   0  0  0  0  0  0  0  0  0  0  0  0  # atno 3767 bound_to 3762
    2.8078  -19.8875    8.3588 H   0  0  0  0  0  0  0  0  0  0  0  0  # atno 3841 bound_to 3832
    3.7844  -10.2483    4.4693 LP  0  0  0  0  0  0  0  0  0  0  0  0  # atno 4297 bound_to 1298
    3.6686   -8.7585    3.8107 LP  0  0  0  0  0  0  0  0  0  0  0  0  # atno 4298 bound_to 1298
    2.1472   -8.3292    7.7575 LP  0  0  0  0  0  0  0  0  0  0  0  0  # atno 4299 bound_to 2456
    0.6572   -8.1948    7.1030 LP  0  0  0  0  0  0  0  0  0  0  0  0  # atno 4300 bound_to 2456
    2.6169   -9.2570    5.2596 LP  0  0  0  0  0  0  0  0  0  0  0  0  # atno 4301 bound_to 2510
    2.0290   -7.9051    5.9621 LP  0  0  0  0  0  0  0  0  0  0  0  0  # atno 4302 bound_to 2510
   -2.6687  -18.1722   13.5576 LP  0  0  0  0  0  0  0  0  0  0  0  0  # atno 4306 bound_to 3712
   -3.0678  -17.2734   14.8613 LP  0  0  0  0  0  0  0  0  0  0  0  0  # atno 4307 bound_to 3712
    2.5937  -21.1574    9.3166 LP  0  0  0  0  0  0  0  0  0  0  0  0  # atno 4314 bound_to 3832
    1.3921  -20.0748    9.0914 LP  0  0  0  0  0  0  0  0  0  0  0  0  # atno 4315 bound_to 3832
   -4.0422  -23.2759   10.7143 LP  0  0  0  0  0  0  0  0  0  0  0  0  # atno 4318 bound_to 3762
   -5.4286  -22.5467   10.2528 LP  0  0  0  0  0  0  0  0  0  0  0  0  # atno 4319 bound_to 3762
   -3.6668   -5.1259    8.8089 LP  0  0  0  0  0  0  0  0  0  0  0  0  # atno 4320 bound_to 2467
   -5.2364   -5.4213    9.1494 LP  0  0  0  0  0  0  0  0  0  0  0  0  # atno 4321 bound_to 2467

> <Gold.Score>
     Score     S(PLP)   S(hbond)     S(cho)   S(metal)  DE(clash)   DE(tors)     intcor
     51.29     -48.47       1.00       0.00       0.00       0.00       0.09       0.00

> <Gold.PLP.Fitness>
51.2896

> <Gold.PLP.PLP>
-48.4679

> <Gold.PLP.part.hbond>
-1.0000

> <Gold.PLP.part.metal>
0.0000

> <Gold.PLP.part.buried>
-4.2766

> <Gold.PLP.part.nonpolar>
-43.7830

> <Gold.PLP.part.repulsive>
0.0087

> <Gold.PLP.ligand.clash>
0.0000

> <Gold.PLP.ligand.torsion>
0.0893

> <Gold.PLP.Chemscore.Hbond>
1.0000

> <Gold.PLP.Chemscore.CHOScore>
0.0000

> <Gold.PLP.Chemscore.Metal>
0.0000

> <Gold.Chemscore.Hbonds>
donor molecule, donor type, donor heavy atom, donor atom, acceptor molecule, acceptor atom, score
      P1  H  2456  2461       L1     5  1.00

> <Gold.PLP.Chemscore.Internal.Correction>
0.0002

