#       Name:                EN300-98433_i002
#       Creating user name   fsindt
#       Creation time:       Tue Feb 28 15:21:05 2023


#       File generated by GOLD software.
#

@<TRIPOS>MOLECULE
EN300-98433_i002|amine_7|mol2|6375|dock17
    31    32     1
SMALL
USER_CHARGES


@<TRIPOS>ATOM
      1 C1          -2.3703 -11.4879   9.3177 C.3            1 <1>                0.0000
      2 N2          -1.3321 -10.8509  10.1319 N.pl3          1 <1>                0.0000
      3 C3          -1.5277 -10.1299  11.2787 C.2            1 <1>                0.0000
      4 C4          -0.3127  -9.7289  11.6989 C.2            1 <1>                0.0000
      5 N5           0.5999 -10.1926  10.8322 N.2            1 <1>                0.0000
      6 C6          -0.0029 -10.8705   9.8941 C.2            1 <1>                0.0000
      7 C7           0.6716 -11.5534   8.7323 C.3            1 <1>                0.0000
      8 C8           0.1707 -12.9953   8.6274 C.3            1 <1>                0.0000
      9 C9          -0.1993 -13.3036   7.1737 C.3            1 <1>                0.0000
     10 C10         -0.6246 -14.7708   7.0657 C.3            1 <1>                0.0000
     11 C11          0.5079 -15.6635   7.5778 C.3            1 <1>                0.0000
     12 N12          0.7964 -15.3381   8.9796 N.4            1 <1>                1.0000
     13 C13          1.2737 -13.9537   9.0816 C.3            1 <1>                0.0000
     14 H14         -2.7187 -10.7866   8.5596 H              1 <1>                0.0000
     15 H15         -1.9593 -12.3730   8.8323 H              1 <1>                0.0000
     16 H16         -3.2052 -11.7779   9.9555 H              1 <1>                0.0000
     17 H17         -2.4746  -9.9219  11.7548 H              1 <1>                0.0000
     18 H18         -0.1089  -9.1377  12.5794 H              1 <1>                0.0000
     19 H19          0.4376 -11.0196   7.8113 H              1 <1>                0.0000
     20 H20          1.7505 -11.5540   8.8878 H              1 <1>                0.0000
     21 H21         -0.7069 -13.1227   9.2612 H              1 <1>                0.0000
     22 H22         -1.0235 -12.6614   6.8632 H              1 <1>                0.0000
     23 H23          0.6641 -13.1262   6.5324 H              1 <1>                0.0000
     24 H24         -1.5185 -14.9358   7.6672 H              1 <1>                0.0000
     25 H25         -0.8362 -15.0127   6.0241 H              1 <1>                0.0000
     26 H26          0.2083 -16.7088   7.5021 H              1 <1>                0.0000
     27 H27          1.4010 -15.4978   6.9755 H              1 <1>                0.0000
     28 H28          2.1506 -13.8245   8.4473 H              1 <1>                0.0000
     29 H29          1.5396 -13.7369  10.1162 H              1 <1>                0.0000
     30 H30         -0.0436 -15.4444   9.5284 H              1 <1>                0.0000
     31 H31          1.5061 -15.9640   9.3300 H              1 <1>                0.0000
@<TRIPOS>BOND
    1    1    2 1     
    2    1   14 1     
    3    1   15 1     
    4    1   16 1     
    5    2    3 1     
    6    2    6 1     
    7    3    4 2     
    8    3   17 1     
    9    4    5 1     
   10    4   18 1     
   11    5    6 2     
   12    6    7 1     
   13    7    8 1     
   14    7   19 1     
   15    7   20 1     
   16    8    9 1     
   17    8   13 1     
   18    8   21 1     
   19    9   10 1     
   20    9   22 1     
   21    9   23 1     
   22   10   11 1     
   23   10   24 1     
   24   10   25 1     
   25   11   12 1     
   26   11   26 1     
   27   11   27 1     
   28   12   13 1     
   29   12   30 1     
   30   12   31 1     
   31   13   28 1     
   32   13   29 1     
@<TRIPOS>SUBSTRUCTURE
      1 ****           1
@<TRIPOS>SET
DONOR_HYDROGENS      STATIC     ATOMS    <user>   **** ""
2 30 31
ATOM$RED        STATIC     ATOMS    COLORGROUP SYSTEM
2 30 31
@<TRIPOS>COMMENT
> <Gold.Version>
2022.2.0

> <Gold.Id.Protein>
3pbl|protein|mol2

> <Gold.Protein.RotatedTorsions>
[ 1303 1298 1297 1294 ] final  -49.05 input  179.99 | X-H torsion
[ 2461 2456 2455 2452 ] final  125.55 input   30.03 | X-H torsion
[ 2515 2510 2509 2506 ] final -147.27 input  -89.99 | X-H torsion
[ 3721 3712 3711 3710 ] final  -68.85 input -179.91 | X-H torsion
[ 3841 3832 3831 3830 ] final  117.29 input -179.91 | X-H torsion
[ 3767 3762 3761 3758 ] final  173.04 input  -89.99 | X-H torsion
[ 2472 2467 2466 2463 ] final  -20.62 input  -89.97 | X-H torsion

> <Gold.Protein.ActiveResidues>
 VAL82   VAL86   LEU89   PHE106  VAL107  ASP110  VAL111  MET112  CYS114  THR115 
 CYS181  SER182  ILE183  PHE188  VAL189  ILE190  SER192  SER193  SER196  TRP342 
 PHE345  PHE346  HIS349  VAL350  TYR365  THR369  GLY372  TYR373 

> <Gold.Protein.RotatedAtoms>
    3.4171   -9.1366    3.7833 H   0  0  0  0  0  0  0  0  0  0  0  0  # atno 1303 bound_to 1298
    2.0911   -8.7118    8.1200 H   0  0  0  0  0  0  0  0  0  0  0  0  # atno 2461 bound_to 2456
   -3.6612   -4.9672    8.3680 H   0  0  0  0  0  0  0  0  0  0  0  0  # atno 2472 bound_to 2467
    2.5511   -9.2491    5.4118 H   0  0  0  0  0  0  0  0  0  0  0  0  # atno 2515 bound_to 2510
   -2.8661  -17.2149   14.7573 H   0  0  0  0  0  0  0  0  0  0  0  0  # atno 3721 bound_to 3712
   -4.0366  -22.6188   11.5179 H   0  0  0  0  0  0  0  0  0  0  0  0  # atno 3767 bound_to 3762
    3.0672  -20.7489    8.9694 H   0  0  0  0  0  0  0  0  0  0  0  0  # atno 3841 bound_to 3832
    4.7861   -8.7421    4.5809 LP  0  0  0  0  0  0  0  0  0  0  0  0  # atno 4297 bound_to 1298
    4.1592  -10.2428    4.7276 LP  0  0  0  0  0  0  0  0  0  0  0  0  # atno 4298 bound_to 1298
    1.1283   -7.9618    7.0347 LP  0  0  0  0  0  0  0  0  0  0  0  0  # atno 4299 bound_to 2456
    0.5187   -9.1346    7.9935 LP  0  0  0  0  0  0  0  0  0  0  0  0  # atno 4300 bound_to 2456
    2.0387   -7.7679    5.8690 LP  0  0  0  0  0  0  0  0  0  0  0  0  # atno 4301 bound_to 2510
    2.7069   -7.9817    4.3944 LP  0  0  0  0  0  0  0  0  0  0  0  0  # atno 4302 bound_to 2510
   -3.5173  -16.7194   13.3758 LP  0  0  0  0  0  0  0  0  0  0  0  0  # atno 4306 bound_to 3712
   -2.7013  -18.1320   13.4497 LP  0  0  0  0  0  0  0  0  0  0  0  0  # atno 4307 bound_to 3712
    1.5454  -20.5841    9.4524 LP  0  0  0  0  0  0  0  0  0  0  0  0  # atno 4314 bound_to 3832
    2.1408  -19.6531    8.2502 LP  0  0  0  0  0  0  0  0  0  0  0  0  # atno 4315 bound_to 3832
   -4.6662  -23.2435   10.1468 LP  0  0  0  0  0  0  0  0  0  0  0  0  # atno 4318 bound_to 3762
   -5.4243  -22.0128   10.9066 LP  0  0  0  0  0  0  0  0  0  0  0  0  # atno 4319 bound_to 3762
   -4.8354   -5.4634    9.3885 LP  0  0  0  0  0  0  0  0  0  0  0  0  # atno 4320 bound_to 2467
   -5.2202   -4.9629    7.8825 LP  0  0  0  0  0  0  0  0  0  0  0  0  # atno 4321 bound_to 2467

> <Gold.Score>
     Score     S(PLP)   S(hbond)     S(cho)   S(metal)  DE(clash)   DE(tors)     intcor
     47.63     -43.16       2.00       0.00       0.00       0.00       0.77       0.00

> <Gold.PLP.Fitness>
47.6326

> <Gold.PLP.PLP>
-43.1647

> <Gold.PLP.part.hbond>
-1.0000

> <Gold.PLP.part.metal>
0.0000

> <Gold.PLP.part.buried>
-2.5611

> <Gold.PLP.part.nonpolar>
-40.7711

> <Gold.PLP.part.repulsive>
0.0163

> <Gold.PLP.ligand.clash>
0.0000

> <Gold.PLP.ligand.torsion>
0.7662

> <Gold.PLP.Chemscore.Hbond>
2.0000

> <Gold.PLP.Chemscore.CHOScore>
0.0000

> <Gold.PLP.Chemscore.Metal>
0.0000

> <Gold.Chemscore.Hbonds>
donor molecule, donor type, donor heavy atom, donor atom, acceptor molecule, acceptor atom, score
      L1  H    12    31       P1  1227  2.00

> <Gold.PLP.Chemscore.Internal.Correction>
0.0002

