#       Name:                EN300-98433_i002
#       Creating user name   fsindt
#       Creation time:       Tue Feb 28 15:20:59 2023


#       File generated by GOLD software.
#

@<TRIPOS>MOLECULE
EN300-98433_i002|amine_7|mol2|6375|dock6
    31    32     1
SMALL
USER_CHARGES


@<TRIPOS>ATOM
      1 C1          -1.3038 -12.8583  11.3992 C.3            1 <1>                0.0000
      2 N2          -1.4059 -11.6343  10.6007 N.pl3          1 <1>                0.0000
      3 C3          -2.3935 -10.6903  10.6838 C.2            1 <1>                0.0000
      4 C4          -2.1005  -9.7389   9.7768 C.2            1 <1>                0.0000
      5 N5          -0.9649 -10.0923   9.1568 N.2            1 <1>                0.0000
      6 C6          -0.5399 -11.2238   9.6492 C.2            1 <1>                0.0000
      7 C7           0.7053 -11.9560   9.2199 C.3            1 <1>                0.0000
      8 C8           0.3222 -13.3236   8.6508 C.3            1 <1>                0.0000
      9 C9           0.4708 -13.3032   7.1268 C.3            1 <1>                0.0000
     10 C10          0.1609 -14.6976   6.5748 C.3            1 <1>                0.0000
     11 C11          1.0897 -15.7193   7.2344 C.3            1 <1>                0.0000
     12 N12          0.8811 -15.7091   8.6873 N.4            1 <1>                1.0000
     13 C13          1.2450 -14.3961   9.2335 C.3            1 <1>                0.0000
     14 H14         -1.8228 -13.6695  10.8886 H              1 <1>                0.0000
     15 H15         -0.2540 -13.1223  11.5270 H              1 <1>                0.0000
     16 H16         -1.7587 -12.6939  12.3760 H              1 <1>                0.0000
     17 H17         -3.2446 -10.7058  11.3486 H              1 <1>                0.0000
     18 H18         -2.6787  -8.8475   9.5827 H              1 <1>                0.0000
     19 H19          1.2223 -11.3762   8.4553 H              1 <1>                0.0000
     20 H20          1.3618 -12.0910  10.0795 H              1 <1>                0.0000
     21 H21         -0.7113 -13.5502   8.9128 H              1 <1>                0.0000
     22 H22         -0.2256 -12.5800   6.7023 H              1 <1>                0.0000
     23 H23          1.4916 -13.0256   6.8638 H              1 <1>                0.0000
     24 H24         -0.8757 -14.9535   6.7936 H              1 <1>                0.0000
     25 H25          0.3186 -14.7054   5.4963 H              1 <1>                0.0000
     26 H26          0.8718 -16.7131   6.8434 H              1 <1>                0.0000
     27 H27          2.1260 -15.4625   7.0147 H              1 <1>                0.0000
     28 H28          2.2780 -14.1676   8.9713 H              1 <1>                0.0000
     29 H29          1.1418 -14.4133  10.3185 H              1 <1>                0.0000
     30 H30         -0.0893 -15.8985   8.8880 H              1 <1>                0.0000
     31 H31          1.4558 -16.4206   9.1135 H              1 <1>                0.0000
@<TRIPOS>BOND
    1    1    2 1     
    2    1   14 1     
    3    1   15 1     
    4    1   16 1     
    5    2    3 1     
    6    2    6 1     
    7    3    4 2     
    8    3   17 1     
    9    4    5 1     
   10    4   18 1     
   11    5    6 2     
   12    6    7 1     
   13    7    8 1     
   14    7   19 1     
   15    7   20 1     
   16    8    9 1     
   17    8   13 1     
   18    8   21 1     
   19    9   10 1     
   20    9   22 1     
   21    9   23 1     
   22   10   11 1     
   23   10   24 1     
   24   10   25 1     
   25   11   12 1     
   26   11   26 1     
   27   11   27 1     
   28   12   13 1     
   29   12   30 1     
   30   12   31 1     
   31   13   28 1     
   32   13   29 1     
@<TRIPOS>SUBSTRUCTURE
      1 ****           1
@<TRIPOS>SET
DONOR_HYDROGENS      STATIC     ATOMS    <user>   **** ""
2 30 31
ATOM$RED        STATIC     ATOMS    COLORGROUP SYSTEM
2 30 31
@<TRIPOS>COMMENT
> <Gold.Version>
2022.2.0

> <Gold.Id.Protein>
3pbl|protein|mol2

> <Gold.Protein.RotatedTorsions>
[ 1303 1298 1297 1294 ] final   49.08 input  179.99 | X-H torsion
[ 2461 2456 2455 2452 ] final -121.56 input   30.03 | X-H torsion
[ 2515 2510 2509 2506 ] final   50.01 input  -89.99 | X-H torsion
[ 3721 3712 3711 3710 ] final  107.82 input -179.91 | X-H torsion
[ 3841 3832 3831 3830 ] final  -70.34 input -179.91 | X-H torsion
[ 3767 3762 3761 3758 ] final  -23.41 input  -89.99 | X-H torsion
[ 2472 2467 2466 2463 ] final   55.28 input  -89.97 | X-H torsion

> <Gold.Protein.ActiveResidues>
 VAL82   VAL86   LEU89   PHE106  VAL107  ASP110  VAL111  MET112  CYS114  THR115 
 CYS181  SER182  ILE183  PHE188  VAL189  ILE190  SER192  SER193  SER196  TRP342 
 PHE345  PHE346  HIS349  VAL350  TYR365  THR369  GLY372  TYR373 

> <Gold.Protein.RotatedAtoms>
    3.8618  -10.2647    4.5301 H   0  0  0  0  0  0  0  0  0  0  0  0  # atno 1303 bound_to 1298
    0.5928   -9.1843    8.0691 H   0  0  0  0  0  0  0  0  0  0  0  0  # atno 2461 bound_to 2456
   -4.5658   -4.8114    7.6595 H   0  0  0  0  0  0  0  0  0  0  0  0  # atno 2472 bound_to 2467
    2.2044   -7.4216    5.2997 H   0  0  0  0  0  0  0  0  0  0  0  0  # atno 2515 bound_to 2510
   -2.9174  -17.3927   13.0355 H   0  0  0  0  0  0  0  0  0  0  0  0  # atno 3721 bound_to 3712
   -5.4776  -22.4292   10.3468 H   0  0  0  0  0  0  0  0  0  0  0  0  # atno 3767 bound_to 3762
    1.6756  -19.7267    8.9158 H   0  0  0  0  0  0  0  0  0  0  0  0  # atno 3841 bound_to 3832
    3.6027   -8.8309    3.7930 LP  0  0  0  0  0  0  0  0  0  0  0  0  # atno 4297 bound_to 1298
    4.8978   -9.0254    4.7685 LP  0  0  0  0  0  0  0  0  0  0  0  0  # atno 4298 bound_to 1298
    2.1279   -8.6271    8.0483 LP  0  0  0  0  0  0  0  0  0  0  0  0  # atno 4299 bound_to 2456
    1.0169   -7.9969    7.0309 LP  0  0  0  0  0  0  0  0  0  0  0  0  # atno 4300 bound_to 2456
    2.8347   -8.6553    4.4357 LP  0  0  0  0  0  0  0  0  0  0  0  0  # atno 4301 bound_to 2510
    2.2578   -8.9227    5.9398 LP  0  0  0  0  0  0  0  0  0  0  0  0  # atno 4302 bound_to 2510
   -2.6704  -18.0245   14.4907 LP  0  0  0  0  0  0  0  0  0  0  0  0  # atno 4306 bound_to 3712
   -3.4891  -16.6217   14.3226 LP  0  0  0  0  0  0  0  0  0  0  0  0  # atno 4307 bound_to 3712
    3.0320  -20.3078    8.2845 LP  0  0  0  0  0  0  0  0  0  0  0  0  # atno 4314 bound_to 3832
    2.2617  -21.1102    9.4800 LP  0  0  0  0  0  0  0  0  0  0  0  0  # atno 4315 bound_to 3832
   -4.5238  -22.1313   11.6385 LP  0  0  0  0  0  0  0  0  0  0  0  0  # atno 4318 bound_to 3762
   -4.1263  -23.3145   10.5856 LP  0  0  0  0  0  0  0  0  0  0  0  0  # atno 4319 bound_to 3762
   -3.7634   -5.2139    9.0235 LP  0  0  0  0  0  0  0  0  0  0  0  0  # atno 4320 bound_to 2467
   -5.3877   -5.3682    8.9560 LP  0  0  0  0  0  0  0  0  0  0  0  0  # atno 4321 bound_to 2467

> <Gold.Score>
     Score     S(PLP)   S(hbond)     S(cho)   S(metal)  DE(clash)   DE(tors)     intcor
     58.73     -48.24       2.94       1.00       0.00       0.00       0.66       0.00

> <Gold.PLP.Fitness>
58.7334

> <Gold.PLP.PLP>
-48.2406

> <Gold.PLP.part.hbond>
-2.0000

> <Gold.PLP.part.metal>
0.0000

> <Gold.PLP.part.buried>
-3.0694

> <Gold.PLP.part.nonpolar>
-44.7797

> <Gold.PLP.part.repulsive>
0.0629

> <Gold.PLP.ligand.clash>
0.0000

> <Gold.PLP.ligand.torsion>
0.6574

> <Gold.PLP.Chemscore.Hbond>
2.9357

> <Gold.PLP.Chemscore.CHOScore>
1.0000

> <Gold.PLP.Chemscore.Metal>
0.0000

> <Gold.Chemscore.Hbonds>
donor molecule, donor type, donor heavy atom, donor atom, acceptor molecule, acceptor atom, score
      L1  H    12    31       P1  1227  2.00
      P1  H  2456  2461       L1     5  0.94
      L1  C     4    18       P1  2398  1.00

> <Gold.PLP.Chemscore.Internal.Correction>
0.0004

