#       Name:                EN300-98433_i002
#       Creating user name   fsindt
#       Creation time:       Tue Feb 28 15:20:58 2023


#       File generated by GOLD software.
#

@<TRIPOS>MOLECULE
EN300-98433_i002|amine_7|mol2|6375|dock4
    31    32     1
SMALL
USER_CHARGES


@<TRIPOS>ATOM
      1 C1           1.3564 -14.5647  10.2035 C.3            1 <1>                0.0000
      2 N2           1.0355 -13.7548   9.0256 N.pl3          1 <1>                0.0000
      3 C3           1.5201 -13.9364   7.7584 C.2            1 <1>                0.0000
      4 C4           0.9708 -12.9767   6.9899 C.2            1 <1>                0.0000
      5 N5           0.1724 -12.2295   7.7666 N.2            1 <1>                0.0000
      6 C6           0.2017 -12.6932   8.9861 C.2            1 <1>                0.0000
      7 C7          -0.5608 -12.1310  10.1582 C.3            1 <1>                0.0000
      8 C8          -1.7825 -11.3625   9.6506 C.3            1 <1>                0.0000
      9 C9          -3.0582 -12.1130  10.0435 C.3            1 <1>                0.0000
     10 C10         -4.2759 -11.2971   9.6000 C.3            1 <1>                0.0000
     11 C11         -4.2058  -9.9037  10.2286 C.3            1 <1>                0.0000
     12 N12         -2.9774  -9.2281   9.7938 N.4            1 <1>                1.0000
     13 C13         -1.8048  -9.9668  10.2773 C.3            1 <1>                0.0000
     14 H14          2.2252 -14.1428  10.7087 H              1 <1>                0.0000
     15 H15          0.5058 -14.5677  10.8851 H              1 <1>                0.0000
     16 H16          1.5769 -15.5860   9.8931 H              1 <1>                0.0000
     17 H17          2.2109 -14.7019   7.4370 H              1 <1>                0.0000
     18 H18          1.1429 -12.8337   5.9333 H              1 <1>                0.0000
     19 H19         -0.8868 -12.9461  10.8041 H              1 <1>                0.0000
     20 H20          0.0844 -11.4568  10.7214 H              1 <1>                0.0000
     21 H21         -1.7318 -11.2742   8.5653 H              1 <1>                0.0000
     22 H22         -3.0738 -13.0867   9.5537 H              1 <1>                0.0000
     23 H23         -3.0836 -12.2473  11.1249 H              1 <1>                0.0000
     24 H24         -4.2773 -11.2067   8.5137 H              1 <1>                0.0000
     25 H25         -5.1877 -11.7979   9.9255 H              1 <1>                0.0000
     26 H26         -5.0714  -9.3203   9.9150 H              1 <1>                0.0000
     27 H27         -4.2046  -9.9954  11.3147 H              1 <1>                0.0000
     28 H28         -1.8548 -10.0570  11.3624 H              1 <1>                0.0000
     29 H29         -0.8978  -9.4297   9.9997 H              1 <1>                0.0000
     30 H30         -2.9559  -9.1874   8.7859 H              1 <1>                0.0000
     31 H31         -2.9604  -8.2906  10.1667 H              1 <1>                0.0000
@<TRIPOS>BOND
    1    1    2 1     
    2    1   14 1     
    3    1   15 1     
    4    1   16 1     
    5    2    3 1     
    6    2    6 1     
    7    3    4 2     
    8    3   17 1     
    9    4    5 1     
   10    4   18 1     
   11    5    6 2     
   12    6    7 1     
   13    7    8 1     
   14    7   19 1     
   15    7   20 1     
   16    8    9 1     
   17    8   13 1     
   18    8   21 1     
   19    9   10 1     
   20    9   22 1     
   21    9   23 1     
   22   10   11 1     
   23   10   24 1     
   24   10   25 1     
   25   11   12 1     
   26   11   26 1     
   27   11   27 1     
   28   12   13 1     
   29   12   30 1     
   30   12   31 1     
   31   13   28 1     
   32   13   29 1     
@<TRIPOS>SUBSTRUCTURE
      1 ****           1
@<TRIPOS>SET
DONOR_HYDROGENS      STATIC     ATOMS    <user>   **** ""
2 30 31
ATOM$RED        STATIC     ATOMS    COLORGROUP SYSTEM
2 30 31
@<TRIPOS>COMMENT
> <Gold.Version>
2022.2.0

> <Gold.Id.Protein>
3pbl|protein|mol2

> <Gold.Protein.RotatedTorsions>
[ 1303 1298 1297 1294 ] final   49.25 input  179.99 | X-H torsion
[ 2461 2456 2455 2452 ] final  113.03 input   30.03 | X-H torsion
[ 2515 2510 2509 2506 ] final  -92.83 input  -89.99 | X-H torsion
[ 3721 3712 3711 3710 ] final -161.51 input -179.91 | X-H torsion
[ 3841 3832 3831 3830 ] final    2.93 input -179.91 | X-H torsion
[ 3767 3762 3761 3758 ] final  -70.29 input  -89.99 | X-H torsion
[ 2472 2467 2466 2463 ] final  175.83 input  -89.97 | X-H torsion

> <Gold.Protein.ActiveResidues>
 VAL82   VAL86   LEU89   PHE106  VAL107  ASP110  VAL111  MET112  CYS114  THR115 
 CYS181  SER182  ILE183  PHE188  VAL189  ILE190  SER192  SER193  SER196  TRP342 
 PHE345  PHE346  HIS349  VAL350  TYR365  THR369  GLY372  TYR373 

> <Gold.Protein.RotatedAtoms>
    3.8640  -10.2651    4.5317 H   0  0  0  0  0  0  0  0  0  0  0  0  # atno 1303 bound_to 1298
    2.1473   -8.5624    7.9904 H   0  0  0  0  0  0  0  0  0  0  0  0  # atno 2461 bound_to 2456
   -5.3831   -5.3712    8.9634 H   0  0  0  0  0  0  0  0  0  0  0  0  # atno 2472 bound_to 2467
    2.8151   -8.9662    4.6414 H   0  0  0  0  0  0  0  0  0  0  0  0  # atno 2515 bound_to 2510
   -3.3385  -16.5368   13.8154 H   0  0  0  0  0  0  0  0  0  0  0  0  # atno 3721 bound_to 3712
   -5.4018  -21.9923   10.9521 H   0  0  0  0  0  0  0  0  0  0  0  0  # atno 3767 bound_to 3762
    1.7628  -20.5198    9.5720 H   0  0  0  0  0  0  0  0  0  0  0  0  # atno 3841 bound_to 3832
    3.6009   -8.8330    3.7926 LP  0  0  0  0  0  0  0  0  0  0  0  0  # atno 4297 bound_to 1298
    4.8974   -9.0229    4.7672 LP  0  0  0  0  0  0  0  0  0  0  0  0  # atno 4298 bound_to 1298
    0.9344   -8.0299    7.0351 LP  0  0  0  0  0  0  0  0  0  0  0  0  # atno 4299 bound_to 2456
    0.6564   -9.2158    8.1227 LP  0  0  0  0  0  0  0  0  0  0  0  0  # atno 4300 bound_to 2456
    2.1301   -8.5997    6.0774 LP  0  0  0  0  0  0  0  0  0  0  0  0  # atno 4301 bound_to 2510
    2.3513   -7.4329    4.9567 LP  0  0  0  0  0  0  0  0  0  0  0  0  # atno 4302 bound_to 2510
   -2.8537  -17.9132   13.1458 LP  0  0  0  0  0  0  0  0  0  0  0  0  # atno 4306 bound_to 3712
   -2.8196  -17.7211   14.7671 LP  0  0  0  0  0  0  0  0  0  0  0  0  # atno 4307 bound_to 3712
    2.1007  -19.6461    8.2687 LP  0  0  0  0  0  0  0  0  0  0  0  0  # atno 4314 bound_to 3832
    3.0923  -20.8558    8.7378 LP  0  0  0  0  0  0  0  0  0  0  0  0  # atno 4315 bound_to 3832
   -4.0128  -22.6605   11.4916 LP  0  0  0  0  0  0  0  0  0  0  0  0  # atno 4318 bound_to 3762
   -4.7130  -23.2220   10.1274 LP  0  0  0  0  0  0  0  0  0  0  0  0  # atno 4319 bound_to 3762
   -4.5751   -4.8116    7.6595 LP  0  0  0  0  0  0  0  0  0  0  0  0  # atno 4320 bound_to 2467
   -3.7589   -5.2108    9.0164 LP  0  0  0  0  0  0  0  0  0  0  0  0  # atno 4321 bound_to 2467

> <Gold.Score>
     Score     S(PLP)   S(hbond)     S(cho)   S(metal)  DE(clash)   DE(tors)     intcor
     55.48     -51.64       1.00       0.98       0.00       0.00       1.05       0.00

> <Gold.PLP.Fitness>
55.4838

> <Gold.PLP.PLP>
-51.6358

> <Gold.PLP.part.hbond>
-1.0000

> <Gold.PLP.part.metal>
0.0000

> <Gold.PLP.part.buried>
-5.2548

> <Gold.PLP.part.nonpolar>
-47.8937

> <Gold.PLP.part.repulsive>
0.0892

> <Gold.PLP.ligand.clash>
0.0000

> <Gold.PLP.ligand.torsion>
1.0481

> <Gold.PLP.Chemscore.Hbond>
1.0000

> <Gold.PLP.Chemscore.CHOScore>
0.9812

> <Gold.PLP.Chemscore.Metal>
0.0000

> <Gold.Chemscore.Hbonds>
donor molecule, donor type, donor heavy atom, donor atom, acceptor molecule, acceptor atom, score
      L1  H    12    31       P1  2398  1.00
      L1  C     3    17       P1  1223  0.98

> <Gold.PLP.Chemscore.Internal.Correction>
0.0004

