#       Name:                EN300-98433_i002
#       Creating user name   fsindt
#       Creation time:       Tue Feb 28 15:20:57 2023


#       File generated by GOLD software.
#

@<TRIPOS>MOLECULE
EN300-98433_i002|amine_7|mol2|6375|dock1
    31    32     1
SMALL
USER_CHARGES


@<TRIPOS>ATOM
      1 C1          -0.4077  -9.6044  11.4080 C.3            1 <1>                0.0000
      2 N2          -1.5137 -10.2890  10.7339 N.pl3          1 <1>                0.0000
      3 C3          -2.7034  -9.7298  10.3525 C.2            1 <1>                0.0000
      4 C4          -3.4251 -10.7073   9.7719 C.2            1 <1>                0.0000
      5 N5          -2.6959 -11.8327   9.7979 N.2            1 <1>                0.0000
      6 C6          -1.5474 -11.5884  10.3675 C.2            1 <1>                0.0000
      7 C7          -0.4455 -12.5924  10.5889 C.3            1 <1>                0.0000
      8 C8          -0.3036 -13.4759   9.3479 C.3            1 <1>                0.0000
      9 C9           0.0899 -12.6111   8.1469 C.3            1 <1>                0.0000
     10 C10          0.3057 -13.5141   6.9290 C.3            1 <1>                0.0000
     11 C11          1.3685 -14.5637   7.2610 C.3            1 <1>                0.0000
     12 N12          0.9217 -15.3744   8.4000 N.4            1 <1>                1.0000
     13 C13          0.7818 -14.5269   9.5903 C.3            1 <1>                0.0000
     14 H14         -0.5394  -9.6771  12.4875 H              1 <1>                0.0000
     15 H15          0.5354 -10.0717  11.1248 H              1 <1>                0.0000
     16 H16         -0.3963  -8.5551  11.1132 H              1 <1>                0.0000
     17 H17         -3.0054  -8.7022  10.4912 H              1 <1>                0.0000
     18 H18         -4.4171 -10.6033   9.3578 H              1 <1>                0.0000
     19 H19          0.4925 -12.0681  10.7709 H              1 <1>                0.0000
     20 H20         -0.6879 -13.2134  11.4513 H              1 <1>                0.0000
     21 H21         -1.2525 -13.9719   9.1439 H              1 <1>                0.0000
     22 H22         -0.7063 -11.8974   7.9350 H              1 <1>                0.0000
     23 H23          1.0119 -12.0744   8.3707 H              1 <1>                0.0000
     24 H24         -0.6302 -14.0115   6.6744 H              1 <1>                0.0000
     25 H25          0.6401 -12.9119   6.0842 H              1 <1>                0.0000
     26 H26          1.5247 -15.2081   6.3959 H              1 <1>                0.0000
     27 H27          2.3039 -14.0651   7.5151 H              1 <1>                0.0000
     28 H28          1.7297 -14.0291   9.7948 H              1 <1>                0.0000
     29 H29          0.5048 -15.1442  10.4448 H              1 <1>                0.0000
     30 H30          0.0315 -15.7965   8.1825 H              1 <1>                0.0000
     31 H31          1.5997 -16.0991   8.5823 H              1 <1>                0.0000
@<TRIPOS>BOND
    1    1    2 1     
    2    1   14 1     
    3    1   15 1     
    4    1   16 1     
    5    2    3 1     
    6    2    6 1     
    7    3    4 2     
    8    3   17 1     
    9    4    5 1     
   10    4   18 1     
   11    5    6 2     
   12    6    7 1     
   13    7    8 1     
   14    7   19 1     
   15    7   20 1     
   16    8    9 1     
   17    8   13 1     
   18    8   21 1     
   19    9   10 1     
   20    9   22 1     
   21    9   23 1     
   22   10   11 1     
   23   10   24 1     
   24   10   25 1     
   25   11   12 1     
   26   11   26 1     
   27   11   27 1     
   28   12   13 1     
   29   12   30 1     
   30   12   31 1     
   31   13   28 1     
   32   13   29 1     
@<TRIPOS>SUBSTRUCTURE
      1 ****           1
@<TRIPOS>SET
DONOR_HYDROGENS      STATIC     ATOMS    <user>   **** ""
2 30 31
ATOM$RED        STATIC     ATOMS    COLORGROUP SYSTEM
2 30 31
@<TRIPOS>COMMENT
> <Gold.Version>
2022.2.0

> <Gold.Id.Protein>
3pbl|protein|mol2

> <Gold.Protein.RotatedTorsions>
[ 1303 1298 1297 1294 ] final  105.80 input  179.99 | X-H torsion
[ 2461 2456 2455 2452 ] final  -42.21 input   30.03 | X-H torsion
[ 2515 2510 2509 2506 ] final   85.28 input  -89.99 | X-H torsion
[ 3721 3712 3711 3710 ] final -143.86 input -179.91 | X-H torsion
[ 3841 3832 3831 3830 ] final  -56.67 input -179.91 | X-H torsion
[ 3767 3762 3761 3758 ] final  -93.32 input  -89.99 | X-H torsion
[ 2472 2467 2466 2463 ] final   41.70 input  -89.97 | X-H torsion

> <Gold.Protein.ActiveResidues>
 VAL82   VAL86   LEU89   PHE106  VAL107  ASP110  VAL111  MET112  CYS114  THR115 
 CYS181  SER182  ILE183  PHE188  VAL189  ILE190  SER192  SER193  SER196  TRP342 
 PHE345  PHE346  HIS349  VAL350  TYR365  THR369  GLY372  TYR373 

> <Gold.Protein.RotatedAtoms>
    4.6035   -9.9565    4.9259 H   0  0  0  0  0  0  0  0  0  0  0  0  # atno 1303 bound_to 1298
    0.4946   -8.3525    7.2039 H   0  0  0  0  0  0  0  0  0  0  0  0  # atno 2461 bound_to 2456
   -4.3459   -4.7994    7.6934 H   0  0  0  0  0  0  0  0  0  0  0  0  # atno 2472 bound_to 2467
    2.0540   -7.6780    5.7872 H   0  0  0  0  0  0  0  0  0  0  0  0  # atno 2515 bound_to 2510
   -3.3126  -16.5410   14.0798 H   0  0  0  0  0  0  0  0  0  0  0  0  # atno 3721 bound_to 3712
   -5.1885  -21.9158   11.2526 H   0  0  0  0  0  0  0  0  0  0  0  0  # atno 3767 bound_to 3762
    1.5982  -19.8425    9.0675 H   0  0  0  0  0  0  0  0  0  0  0  0  # atno 3841 bound_to 3832
    3.3365   -9.6742    3.9353 LP  0  0  0  0  0  0  0  0  0  0  0  0  # atno 4297 bound_to 1298
    4.4220   -8.4904    4.2302 LP  0  0  0  0  0  0  0  0  0  0  0  0  # atno 4298 bound_to 1298
    1.1684   -9.2809    8.3664 LP  0  0  0  0  0  0  0  0  0  0  0  0  # atno 4299 bound_to 2456
    2.0745   -8.1747    7.5777 LP  0  0  0  0  0  0  0  0  0  0  0  0  # atno 4300 bound_to 2456
    2.7429   -8.0957    4.3672 LP  0  0  0  0  0  0  0  0  0  0  0  0  # atno 4301 bound_to 2510
    2.5000   -9.2258    5.5206 LP  0  0  0  0  0  0  0  0  0  0  0  0  # atno 4302 bound_to 2510
   -2.9920  -17.6932   13.0087 LP  0  0  0  0  0  0  0  0  0  0  0  0  # atno 4306 bound_to 3712
   -2.7113  -17.9363   14.5989 LP  0  0  0  0  0  0  0  0  0  0  0  0  # atno 4307 bound_to 3712
    2.9162  -20.1315    8.1984 LP  0  0  0  0  0  0  0  0  0  0  0  0  # atno 4314 bound_to 3832
    2.4670  -21.1527    9.3909 LP  0  0  0  0  0  0  0  0  0  0  0  0  # atno 4315 bound_to 3832
   -3.9127  -22.9352   11.2548 LP  0  0  0  0  0  0  0  0  0  0  0  0  # atno 4318 bound_to 3762
   -5.0264  -23.0237   10.0638 LP  0  0  0  0  0  0  0  0  0  0  0  0  # atno 4319 bound_to 3762
   -3.8974   -5.2871    9.1859 LP  0  0  0  0  0  0  0  0  0  0  0  0  # atno 4320 bound_to 2467
   -5.4736   -5.3069    8.7597 LP  0  0  0  0  0  0  0  0  0  0  0  0  # atno 4321 bound_to 2467

> <Gold.Score>
     Score     S(PLP)   S(hbond)     S(cho)   S(metal)  DE(clash)   DE(tors)     intcor
     57.19     -48.71       2.00       1.00       0.00       0.00       0.26       0.00

> <Gold.PLP.Fitness>
57.1867

> <Gold.PLP.PLP>
-48.7101

> <Gold.PLP.part.hbond>
-1.0000

> <Gold.PLP.part.metal>
0.0000

> <Gold.PLP.part.buried>
-1.7462

> <Gold.PLP.part.nonpolar>
-46.9944

> <Gold.PLP.part.repulsive>
0.0319

> <Gold.PLP.ligand.clash>
0.0000

> <Gold.PLP.ligand.torsion>
0.2619

> <Gold.PLP.Chemscore.Hbond>
2.0000

> <Gold.PLP.Chemscore.CHOScore>
1.0000

> <Gold.PLP.Chemscore.Metal>
0.0000

> <Gold.Chemscore.Hbonds>
donor molecule, donor type, donor heavy atom, donor atom, acceptor molecule, acceptor atom, score
      L1  H    12    31       P1  1227  2.00
      L1  C     3    17       P1  2398  1.00

> <Gold.PLP.Chemscore.Internal.Correction>
0.0004

