#       Name:                EN300-98433_i002
#       Creating user name   fsindt
#       Creation time:       Tue Feb 28 15:20:56 2023


#       File generated by GOLD software.
#

@<TRIPOS>MOLECULE
EN300-98433_i002
    31    32     1
SMALL
USER_CHARGES


@<TRIPOS>ATOM
      1 C1           2.6852   1.8231   0.7267 C.3            1 <1>                0.0000
      2 N2           2.7377   0.4425   0.2393 N.pl3          1 <1>                0.0000
      3 C3           3.6984  -0.4869   0.5338 C.2            1 <1>                0.0000
      4 C4           3.3622  -1.6154  -0.1197 C.2            1 <1>                0.0000
      5 N5           2.2271  -1.3814  -0.7948 N.2            1 <1>                0.0000
      6 C6           1.8440  -0.1525  -0.5799 C.2            1 <1>                0.0000
      7 C7           0.6137   0.4979  -1.1582 C.3            1 <1>                0.0000
      8 C8          -0.5705   0.2787  -0.2145 C.3            1 <1>                0.0000
      9 C9          -1.7897   1.0434  -0.7378 C.3            1 <1>                0.0000
     10 C10         -2.9891   0.7548   0.1696 C.3            1 <1>                0.0000
     11 C11         -3.2303  -0.7554   0.2220 C.3            1 <1>                0.0000
     12 N12         -2.0388  -1.4266   0.7551 N.4            1 <1>                1.0000
     13 C13         -0.9013  -1.2138  -0.1479 C.3            1 <1>                0.0000
     14 H14          3.2191   2.4735   0.0339 H              1 <1>                0.0000
     15 H15          1.6460   2.1438   0.7985 H              1 <1>                0.0000
     16 H16          3.1516   1.8791   1.7103 H              1 <1>                0.0000
     17 H17          4.5607  -0.3427   1.1679 H              1 <1>                0.0000
     18 H18          3.9105  -2.5457  -0.1031 H              1 <1>                0.0000
     19 H19          0.7900   1.5668  -1.2778 H              1 <1>                0.0000
     20 H20          0.3913   0.0554  -2.1292 H              1 <1>                0.0000
     21 H21         -0.3140   0.6402   0.7813 H              1 <1>                0.0000
     22 H22         -1.5786   2.1128  -0.7338 H              1 <1>                0.0000
     23 H23         -2.0149   0.7190  -1.7538 H              1 <1>                0.0000
     24 H24         -2.7833   1.1256   1.1737 H              1 <1>                0.0000
     25 H25         -3.8742   1.2512  -0.2282 H              1 <1>                0.0000
     26 H26         -4.0837  -0.9643   0.8671 H              1 <1>                0.0000
     27 H27         -3.4362  -1.1250  -0.7825 H              1 <1>                0.0000
     28 H28         -1.1568  -1.5737  -1.1445 H              1 <1>                0.0000
     29 H29         -0.0353  -1.7612   0.2242 H              1 <1>                0.0000
     30 H30         -1.8200  -1.0490   1.6648 H              1 <1>                0.0000
     31 H31         -2.2202  -2.4157   0.8385 H              1 <1>                0.0000
@<TRIPOS>BOND
    1    1    2 1     
    2    1   14 1     
    3    1   15 1     
    4    1   16 1     
    5    2    3 1     
    6    2    6 1     
    7    3    4 2     
    8    3   17 1     
    9    4    5 1     
   10    4   18 1     
   11    5    6 2     
   12    6    7 1     
   13    7    8 1     
   14    7   19 1     
   15    7   20 1     
   16    8    9 1     
   17    8   13 1     
   18    8   21 1     
   19    9   10 1     
   20    9   22 1     
   21    9   23 1     
   22   10   11 1     
   23   10   24 1     
   24   10   25 1     
   25   11   12 1     
   26   11   26 1     
   27   11   27 1     
   28   12   13 1     
   29   12   30 1     
   30   12   31 1     
   31   13   28 1     
   32   13   29 1     
@<TRIPOS>SUBSTRUCTURE
      1 ****           1
@<TRIPOS>SET
DONOR_HYDROGENS      STATIC     ATOMS    <user>   **** ""
2 30 31
ATOM$RED        STATIC     ATOMS    COLORGROUP SYSTEM
2 30 31
