#       Name:                EN300-98433_i002
#       Creating user name   fsindt
#       Creation time:       Tue Feb 28 15:21:06 2023


#       File generated by GOLD software.
#

@<TRIPOS>MOLECULE
EN300-98433_i002|amine_7|mol2|6375|dock19
    31    32     1
SMALL
USER_CHARGES


@<TRIPOS>ATOM
      1 C1           0.7735 -10.0367  10.8468 C.3            1 <1>                0.0000
      2 N2          -0.6757 -10.2406  10.7787 N.pl3          1 <1>                0.0000
      3 C3          -1.6142  -9.2987  10.4539 C.2            1 <1>                0.0000
      4 C4          -2.8139  -9.9075  10.5125 C.2            1 <1>                0.0000
      5 N5          -2.6135 -11.1865  10.8634 N.2            1 <1>                0.0000
      6 C6          -1.3346 -11.3948  11.0189 C.2            1 <1>                0.0000
      7 C7          -0.6991 -12.7037  11.4114 C.3            1 <1>                0.0000
      8 C8          -0.5352 -13.5835  10.1704 C.3            1 <1>                0.0000
      9 C9          -0.0925 -12.7196   8.9861 C.3            1 <1>                0.0000
     10 C10          0.1442 -13.6202   7.7703 C.3            1 <1>                0.0000
     11 C11          1.1795 -14.6888   8.1278 C.3            1 <1>                0.0000
     12 N12          0.6862 -15.4974   9.2490 N.4            1 <1>                1.0000
     13 C13          0.5253 -14.6533  10.4391 C.3            1 <1>                0.0000
     14 H14          1.0499  -9.7276  11.8548 H              1 <1>                0.0000
     15 H15          1.2834 -10.9677  10.5996 H              1 <1>                0.0000
     16 H16          1.0652  -9.2628  10.1367 H              1 <1>                0.0000
     17 H17         -1.4282  -8.2655  10.2002 H              1 <1>                0.0000
     18 H18         -3.7699  -9.4468  10.3121 H              1 <1>                0.0000
     19 H19          0.2786 -12.5144  11.8544 H              1 <1>                0.0000
     20 H20         -1.3342 -13.2127  12.1365 H              1 <1>                0.0000
     21 H21         -1.4857 -14.0628   9.9361 H              1 <1>                0.0000
     22 H22         -0.8703 -11.9919   8.7547 H              1 <1>                0.0000
     23 H23          0.8312 -12.1993   9.2396 H              1 <1>                0.0000
     24 H24         -0.7918 -14.1009   7.4858 H              1 <1>                0.0000
     25 H25          0.5131 -13.0197   6.9388 H              1 <1>                0.0000
     26 H26          1.3505 -15.3316   7.2643 H              1 <1>                0.0000
     27 H27          2.1150 -14.2069   8.4118 H              1 <1>                0.0000
     28 H28          1.4747 -14.1723  10.6739 H              1 <1>                0.0000
     29 H29          0.2132 -15.2701  11.2818 H              1 <1>                0.0000
     30 H30         -0.2040 -15.9037   9.0032 H              1 <1>                0.0000
     31 H31          1.3466 -16.2341   9.4473 H              1 <1>                0.0000
@<TRIPOS>BOND
    1    1    2 1     
    2    1   14 1     
    3    1   15 1     
    4    1   16 1     
    5    2    3 1     
    6    2    6 1     
    7    3    4 2     
    8    3   17 1     
    9    4    5 1     
   10    4   18 1     
   11    5    6 2     
   12    6    7 1     
   13    7    8 1     
   14    7   19 1     
   15    7   20 1     
   16    8    9 1     
   17    8   13 1     
   18    8   21 1     
   19    9   10 1     
   20    9   22 1     
   21    9   23 1     
   22   10   11 1     
   23   10   24 1     
   24   10   25 1     
   25   11   12 1     
   26   11   26 1     
   27   11   27 1     
   28   12   13 1     
   29   12   30 1     
   30   12   31 1     
   31   13   28 1     
   32   13   29 1     
@<TRIPOS>SUBSTRUCTURE
      1 ****           1
@<TRIPOS>SET
DONOR_HYDROGENS      STATIC     ATOMS    <user>   **** ""
2 30 31
ATOM$RED        STATIC     ATOMS    COLORGROUP SYSTEM
2 30 31
@<TRIPOS>COMMENT
> <Gold.Version>
2022.2.0

> <Gold.Id.Protein>
3pbl|protein|mol2

> <Gold.Protein.RotatedTorsions>
[ 1303 1298 1297 1294 ] final  -17.83 input  179.99 | X-H torsion
[ 2461 2456 2455 2452 ] final   14.56 input   30.03 | X-H torsion
[ 2515 2510 2509 2506 ] final  -64.68 input  -89.99 | X-H torsion
[ 3721 3712 3711 3710 ] final   38.06 input -179.91 | X-H torsion
[ 3841 3832 3831 3830 ] final   50.72 input -179.91 | X-H torsion
[ 3767 3762 3761 3758 ] final  -57.65 input  -89.99 | X-H torsion
[ 2472 2467 2466 2463 ] final   29.56 input  -89.97 | X-H torsion

> <Gold.Protein.ActiveResidues>
 VAL82   VAL86   LEU89   PHE106  VAL107  ASP110  VAL111  MET112  CYS114  THR115 
 CYS181  SER182  ILE183  PHE188  VAL189  ILE190  SER192  SER193  SER196  TRP342 
 PHE345  PHE346  HIS349  VAL350  TYR365  THR369  GLY372  TYR373 

> <Gold.Protein.RotatedAtoms>
    3.3314   -9.6199    3.9113 H   0  0  0  0  0  0  0  0  0  0  0  0  # atno 1303 bound_to 1298
    1.2718   -7.9312    7.0543 H   0  0  0  0  0  0  0  0  0  0  0  0  # atno 2461 bound_to 2456
   -4.1595   -4.8044    7.7643 H   0  0  0  0  0  0  0  0  0  0  0  0  # atno 2472 bound_to 2467
    2.8301   -8.5735    4.4052 H   0  0  0  0  0  0  0  0  0  0  0  0  # atno 2515 bound_to 2510
   -2.5014  -18.0185   13.6811 H   0  0  0  0  0  0  0  0  0  0  0  0  # atno 3721 bound_to 3712
   -5.4735  -22.0786   10.7773 H   0  0  0  0  0  0  0  0  0  0  0  0  # atno 3767 bound_to 3762
    2.3439  -20.9123    9.5636 H   0  0  0  0  0  0  0  0  0  0  0  0  # atno 3841 bound_to 3832
    4.4677   -8.5025    4.2667 LP  0  0  0  0  0  0  0  0  0  0  0  0  # atno 4297 bound_to 1298
    4.5634   -9.9988    4.9138 LP  0  0  0  0  0  0  0  0  0  0  0  0  # atno 4298 bound_to 1298
    0.4406   -9.0603    7.8920 LP  0  0  0  0  0  0  0  0  0  0  0  0  # atno 4299 bound_to 2456
    2.0253   -8.8164    8.2016 LP  0  0  0  0  0  0  0  0  0  0  0  0  # atno 4300 bound_to 2456
    2.2922   -8.9860    5.8906 LP  0  0  0  0  0  0  0  0  0  0  0  0  # atno 4301 bound_to 2510
    2.1742   -7.4395    5.3798 LP  0  0  0  0  0  0  0  0  0  0  0  0  # atno 4302 bound_to 2510
   -3.1668  -17.1066   14.8228 LP  0  0  0  0  0  0  0  0  0  0  0  0  # atno 4306 bound_to 3712
   -3.4730  -16.8170   13.2452 LP  0  0  0  0  0  0  0  0  0  0  0  0  # atno 4307 bound_to 3712
    1.5195  -19.7935    8.7606 LP  0  0  0  0  0  0  0  0  0  0  0  0  # atno 4314 bound_to 3832
    3.0023  -20.2550    8.2557 LP  0  0  0  0  0  0  0  0  0  0  0  0  # atno 4315 bound_to 3832
   -4.1169  -22.5043   11.5805 LP  0  0  0  0  0  0  0  0  0  0  0  0  # atno 4318 bound_to 3762
   -4.5373  -23.2920   10.2132 LP  0  0  0  0  0  0  0  0  0  0  0  0  # atno 4319 bound_to 3762
   -4.0494   -5.3454    9.3010 LP  0  0  0  0  0  0  0  0  0  0  0  0  # atno 4320 bound_to 2467
   -5.5079   -5.2437    8.5737 LP  0  0  0  0  0  0  0  0  0  0  0  0  # atno 4321 bound_to 2467

> <Gold.Score>
     Score     S(PLP)   S(hbond)     S(cho)   S(metal)  DE(clash)   DE(tors)     intcor
     48.43     -41.78       2.00       0.85       0.00       0.87       0.51       0.00

> <Gold.PLP.Fitness>
48.4334

> <Gold.PLP.PLP>
-41.7819

> <Gold.PLP.part.hbond>
-1.0000

> <Gold.PLP.part.metal>
0.0000

> <Gold.PLP.part.buried>
-1.2360

> <Gold.PLP.part.nonpolar>
-40.2765

> <Gold.PLP.part.repulsive>
0.0477

> <Gold.PLP.ligand.clash>
0.8735

> <Gold.PLP.ligand.torsion>
0.5125

> <Gold.PLP.Chemscore.Hbond>
2.0000

> <Gold.PLP.Chemscore.CHOScore>
0.8500

> <Gold.PLP.Chemscore.Metal>
0.0000

> <Gold.Chemscore.Hbonds>
donor molecule, donor type, donor heavy atom, donor atom, acceptor molecule, acceptor atom, score
      L1  H    12    31       P1  1227  2.00
      L1  C     3    17       P1  2398  0.85

> <Gold.PLP.Chemscore.Internal.Correction>
0.0002

