#       Name:                EN300-98433_i002
#       Creating user name   fsindt
#       Creation time:       Tue Feb 28 15:21:03 2023


#       File generated by GOLD software.
#

@<TRIPOS>MOLECULE
EN300-98433_i002|amine_7|mol2|6375|dock14
    31    32     1
SMALL
USER_CHARGES


@<TRIPOS>ATOM
      1 C1          -3.5799 -11.2106   9.7716 C.3            1 <1>                0.0000
      2 N2          -2.2831 -10.8499  10.3501 N.pl3          1 <1>                0.0000
      3 C3          -1.9122  -9.6132  10.8045 C.2            1 <1>                0.0000
      4 C4          -0.6465  -9.7256  11.2508 C.2            1 <1>                0.0000
      5 N5          -0.2554 -10.9963  11.0737 N.2            1 <1>                0.0000
      6 C6          -1.2326 -11.6770  10.5399 C.2            1 <1>                0.0000
      7 C7          -1.1919 -13.1410  10.1849 C.3            1 <1>                0.0000
      8 C8          -0.1473 -13.8472  11.0515 C.3            1 <1>                0.0000
      9 C9          -0.8266 -14.4418  12.2885 C.3            1 <1>                0.0000
     10 C10          0.2122 -15.2123  13.1085 C.3            1 <1>                0.0000
     11 C11          0.8552 -16.2857  12.2275 C.3            1 <1>                0.0000
     12 N12          1.5100 -15.6519  11.0770 N.4            1 <1>                1.0000
     13 C13          0.5089 -14.9711  10.2468 C.3            1 <1>                0.0000
     14 H14         -3.5502 -11.0619   8.6922 H              1 <1>                0.0000
     15 H15         -3.7962 -12.2566   9.9885 H              1 <1>                0.0000
     16 H16         -4.3581 -10.5814  10.2037 H              1 <1>                0.0000
     17 H17         -2.5178  -8.7191  10.8046 H              1 <1>                0.0000
     18 H18         -0.0509  -8.9317  11.6765 H              1 <1>                0.0000
     19 H19         -2.1713 -13.5852  10.3620 H              1 <1>                0.0000
     20 H20         -0.9271 -13.2525   9.1334 H              1 <1>                0.0000
     21 H21          0.6123 -13.1300  11.3628 H              1 <1>                0.0000
     22 H22         -1.2471 -13.6393  12.8946 H              1 <1>                0.0000
     23 H23         -1.6213 -15.1199  11.9774 H              1 <1>                0.0000
     24 H24          0.9798 -14.5241  13.4624 H              1 <1>                0.0000
     25 H25         -0.2750 -15.6851  13.9612 H              1 <1>                0.0000
     26 H26          1.5952 -16.8363  12.8083 H              1 <1>                0.0000
     27 H27          0.0868 -16.9734  11.8744 H              1 <1>                0.0000
     28 H28         -0.2520 -15.6868   9.9359 H              1 <1>                0.0000
     29 H29          0.9934 -14.5512   9.3654 H              1 <1>                0.0000
     30 H30          2.1870 -14.9795  11.4049 H              1 <1>                0.0000
     31 H31          1.9781 -16.3567  10.5272 H              1 <1>                0.0000
@<TRIPOS>BOND
    1    1    2 1     
    2    1   14 1     
    3    1   15 1     
    4    1   16 1     
    5    2    3 1     
    6    2    6 1     
    7    3    4 2     
    8    3   17 1     
    9    4    5 1     
   10    4   18 1     
   11    5    6 2     
   12    6    7 1     
   13    7    8 1     
   14    7   19 1     
   15    7   20 1     
   16    8    9 1     
   17    8   13 1     
   18    8   21 1     
   19    9   10 1     
   20    9   22 1     
   21    9   23 1     
   22   10   11 1     
   23   10   24 1     
   24   10   25 1     
   25   11   12 1     
   26   11   26 1     
   27   11   27 1     
   28   12   13 1     
   29   12   30 1     
   30   12   31 1     
   31   13   28 1     
   32   13   29 1     
@<TRIPOS>SUBSTRUCTURE
      1 ****           1
@<TRIPOS>SET
DONOR_HYDROGENS      STATIC     ATOMS    <user>   **** ""
2 30 31
ATOM$RED        STATIC     ATOMS    COLORGROUP SYSTEM
2 30 31
@<TRIPOS>COMMENT
> <Gold.Version>
2022.2.0

> <Gold.Id.Protein>
3pbl|protein|mol2

> <Gold.Protein.RotatedTorsions>
[ 1303 1298 1297 1294 ] final -144.44 input  179.99 | X-H torsion
[ 2461 2456 2455 2452 ] final    2.10 input   30.03 | X-H torsion
[ 2515 2510 2509 2506 ] final   62.31 input  -89.99 | X-H torsion
[ 3721 3712 3711 3710 ] final -122.98 input -179.91 | X-H torsion
[ 3841 3832 3831 3830 ] final -145.46 input -179.91 | X-H torsion
[ 3767 3762 3761 3758 ] final  160.13 input  -89.99 | X-H torsion
[ 2472 2467 2466 2463 ] final -141.24 input  -89.97 | X-H torsion

> <Gold.Protein.ActiveResidues>
 VAL82   VAL86   LEU89   PHE106  VAL107  ASP110  VAL111  MET112  CYS114  THR115 
 CYS181  SER182  ILE183  PHE188  VAL189  ILE190  SER192  SER193  SER196  TRP342 
 PHE345  PHE346  HIS349  VAL350  TYR365  THR369  GLY372  TYR373 

> <Gold.Protein.RotatedAtoms>
    4.5469   -8.5335    4.3344 H   0  0  0  0  0  0  0  0  0  0  0  0  # atno 1303 bound_to 1298
    1.0738   -7.9774    7.0314 H   0  0  0  0  0  0  0  0  0  0  0  0  # atno 2461 bound_to 2456
   -4.8451   -5.4640    9.3852 H   0  0  0  0  0  0  0  0  0  0  0  0  # atno 2472 bound_to 2467
    2.1387   -7.4754    5.4829 H   0  0  0  0  0  0  0  0  0  0  0  0  # atno 2515 bound_to 2510
   -3.2327  -16.6355   14.3682 H   0  0  0  0  0  0  0  0  0  0  0  0  # atno 3721 bound_to 3712
   -3.9557  -22.7777   11.4032 H   0  0  0  0  0  0  0  0  0  0  0  0  # atno 3767 bound_to 3762
    2.5694  -19.7181    8.3547 H   0  0  0  0  0  0  0  0  0  0  0  0  # atno 3841 bound_to 3832
    4.4847  -10.0690    4.8864 LP  0  0  0  0  0  0  0  0  0  0  0  0  # atno 4297 bound_to 1298
    3.3303   -9.5190    3.8708 LP  0  0  0  0  0  0  0  0  0  0  0  0  # atno 4298 bound_to 1298
    0.5534   -9.1597    8.0307 LP  0  0  0  0  0  0  0  0  0  0  0  0  # atno 4299 bound_to 2456
    2.1105   -8.6708    8.0858 LP  0  0  0  0  0  0  0  0  0  0  0  0  # atno 4300 bound_to 2456
    2.8188   -8.4633    4.3751 LP  0  0  0  0  0  0  0  0  0  0  0  0  # atno 4301 bound_to 2510
    2.3393   -9.0609    5.8171 LP  0  0  0  0  0  0  0  0  0  0  0  0  # atno 4302 bound_to 2510
   -3.1660  -17.3977   12.9567 LP  0  0  0  0  0  0  0  0  0  0  0  0  # atno 4306 bound_to 3712
   -2.6295  -18.1226   14.3180 LP  0  0  0  0  0  0  0  0  0  0  0  0  # atno 4307 bound_to 3712
    2.8418  -21.1047    9.1158 LP  0  0  0  0  0  0  0  0  0  0  0  0  # atno 4314 bound_to 3832
    1.4195  -20.3232    9.2968 LP  0  0  0  0  0  0  0  0  0  0  0  0  # atno 4315 bound_to 3832
   -4.8463  -23.1496   10.0858 LP  0  0  0  0  0  0  0  0  0  0  0  0  # atno 4318 bound_to 3762
   -5.3251  -21.9478   11.0823 LP  0  0  0  0  0  0  0  0  0  0  0  0  # atno 4319 bound_to 3762
   -5.2130   -4.9599    7.8763 LP  0  0  0  0  0  0  0  0  0  0  0  0  # atno 4320 bound_to 2467
   -3.6589   -4.9697    8.3777 LP  0  0  0  0  0  0  0  0  0  0  0  0  # atno 4321 bound_to 2467

> <Gold.Score>
     Score     S(PLP)   S(hbond)     S(cho)   S(metal)  DE(clash)   DE(tors)     intcor
     47.63     -40.23       2.00       1.00       0.00       0.00       0.80       0.00

> <Gold.PLP.Fitness>
47.6289

> <Gold.PLP.PLP>
-40.2258

> <Gold.PLP.part.hbond>
-1.0000

> <Gold.PLP.part.metal>
0.0000

> <Gold.PLP.part.buried>
-2.7644

> <Gold.PLP.part.nonpolar>
-38.1073

> <Gold.PLP.part.repulsive>
0.0000

> <Gold.PLP.ligand.clash>
0.0000

> <Gold.PLP.ligand.torsion>
0.7986

> <Gold.PLP.Chemscore.Hbond>
2.0000

> <Gold.PLP.Chemscore.CHOScore>
1.0000

> <Gold.PLP.Chemscore.Metal>
0.0000

> <Gold.Chemscore.Hbonds>
donor molecule, donor type, donor heavy atom, donor atom, acceptor molecule, acceptor atom, score
      L1  H    12    31       P1  1227  2.00
      L1  C     3    17       P1  2398  1.00

> <Gold.PLP.Chemscore.Internal.Correction>
0.0002

