#       Name:                EN300-98433_i002
#       Creating user name   fsindt
#       Creation time:       Tue Feb 28 15:20:57 2023


#       File generated by GOLD software.
#

@<TRIPOS>MOLECULE
EN300-98433_i002|amine_7|mol2|6375|dock2
    31    32     1
SMALL
USER_CHARGES


@<TRIPOS>ATOM
      1 C1           0.5578 -14.4908   8.5394 C.3            1 <1>                0.0000
      2 N2           0.7352 -13.2118   7.8474 N.pl3          1 <1>                0.0000
      3 C3           1.2950 -13.0275   6.6120 C.2            1 <1>                0.0000
      4 C4           1.2596 -11.7047   6.3616 C.2            1 <1>                0.0000
      5 N5           0.6936 -11.0979   7.4153 N.2            1 <1>                0.0000
      6 C6           0.3717 -11.9950   8.3068 C.2            1 <1>                0.0000
      7 C7          -0.2873 -11.7180   9.6335 C.3            1 <1>                0.0000
      8 C8          -1.6598 -11.0840   9.3987 C.3            1 <1>                0.0000
      9 C9          -2.7564 -12.0890   9.7629 C.3            1 <1>                0.0000
     10 C10         -4.1238 -11.4193   9.5993 C.3            1 <1>                0.0000
     11 C11         -4.1772 -10.1618  10.4697 C.3            1 <1>                0.0000
     12 N12         -3.1216  -9.2301  10.0549 N.4            1 <1>                1.0000
     13 C13         -1.8045  -9.8390  10.2765 C.3            1 <1>                0.0000
     14 H14          1.4385 -14.7007   9.1464 H              1 <1>                0.0000
     15 H15         -0.3215 -14.4378   9.1812 H              1 <1>                0.0000
     16 H16          0.4247 -15.2856   7.8054 H              1 <1>                0.0000
     17 H17          1.6897 -13.7952   5.9630 H              1 <1>                0.0000
     18 H18          1.6233 -11.2179   5.4687 H              1 <1>                0.0000
     19 H19         -0.4076 -12.6524  10.1816 H              1 <1>                0.0000
     20 H20          0.3344 -11.0347  10.2122 H              1 <1>                0.0000
     21 H21         -1.7566 -10.8039   8.3498 H              1 <1>                0.0000
     22 H22         -2.6925 -12.9536   9.1022 H              1 <1>                0.0000
     23 H23         -2.6286 -12.4089  10.7971 H              1 <1>                0.0000
     24 H24         -4.2723 -11.1455   8.5547 H              1 <1>                0.0000
     25 H25         -4.9072 -12.1106   9.9100 H              1 <1>                0.0000
     26 H26         -5.1496  -9.6827  10.3556 H              1 <1>                0.0000
     27 H27         -4.0289 -10.4368  11.5139 H              1 <1>                0.0000
     28 H28         -1.7067 -10.1208  11.3249 H              1 <1>                0.0000
     29 H29         -1.0252  -9.1214  10.0199 H              1 <1>                0.0000
     30 H30         -3.2307  -9.0143   9.0754 H              1 <1>                0.0000
     31 H31         -3.1933  -8.3805  10.5945 H              1 <1>                0.0000
@<TRIPOS>BOND
    1    1    2 1     
    2    1   14 1     
    3    1   15 1     
    4    1   16 1     
    5    2    3 1     
    6    2    6 1     
    7    3    4 2     
    8    3   17 1     
    9    4    5 1     
   10    4   18 1     
   11    5    6 2     
   12    6    7 1     
   13    7    8 1     
   14    7   19 1     
   15    7   20 1     
   16    8    9 1     
   17    8   13 1     
   18    8   21 1     
   19    9   10 1     
   20    9   22 1     
   21    9   23 1     
   22   10   11 1     
   23   10   24 1     
   24   10   25 1     
   25   11   12 1     
   26   11   26 1     
   27   11   27 1     
   28   12   13 1     
   29   12   30 1     
   30   12   31 1     
   31   13   28 1     
   32   13   29 1     
@<TRIPOS>SUBSTRUCTURE
      1 ****           1
@<TRIPOS>SET
DONOR_HYDROGENS      STATIC     ATOMS    <user>   **** ""
2 30 31
ATOM$RED        STATIC     ATOMS    COLORGROUP SYSTEM
2 30 31
@<TRIPOS>COMMENT
> <Gold.Version>
2022.2.0

> <Gold.Id.Protein>
3pbl|protein|mol2

> <Gold.Protein.RotatedTorsions>
[ 1303 1298 1297 1294 ] final  137.91 input  179.99 | X-H torsion
[ 2461 2456 2455 2452 ] final -135.43 input   30.03 | X-H torsion
[ 2515 2510 2509 2506 ] final -137.72 input  -89.99 | X-H torsion
[ 3721 3712 3711 3710 ] final  109.65 input -179.91 | X-H torsion
[ 3841 3832 3831 3830 ] final   84.62 input -179.91 | X-H torsion
[ 3767 3762 3761 3758 ] final   66.08 input  -89.99 | X-H torsion
[ 2472 2467 2466 2463 ] final -178.77 input  -89.97 | X-H torsion

> <Gold.Protein.ActiveResidues>
 VAL82   VAL86   LEU89   PHE106  VAL107  ASP110  VAL111  MET112  CYS114  THR115 
 CYS181  SER182  ILE183  PHE188  VAL189  ILE190  SER192  SER193  SER196  TRP342 
 PHE345  PHE346  HIS349  VAL350  TYR365  THR369  GLY372  TYR373 

> <Gold.Protein.RotatedAtoms>
    4.8627   -9.5041    4.9304 H   0  0  0  0  0  0  0  0  0  0  0  0  # atno 1303 bound_to 1298
    0.7657   -9.2546    8.1997 H   0  0  0  0  0  0  0  0  0  0  0  0  # atno 2461 bound_to 2456
   -5.3351   -5.3918    9.0353 H   0  0  0  0  0  0  0  0  0  0  0  0  # atno 2472 bound_to 2467
    2.6135   -9.2569    5.2680 H   0  0  0  0  0  0  0  0  0  0  0  0  # atno 2515 bound_to 2510
   -2.9312  -17.3689   13.0331 H   0  0  0  0  0  0  0  0  0  0  0  0  # atno 3721 bound_to 3712
   -4.4862  -23.3062   10.2443 H   0  0  0  0  0  0  0  0  0  0  0  0  # atno 3767 bound_to 3762
    2.7830  -20.9392    9.3159 H   0  0  0  0  0  0  0  0  0  0  0  0  # atno 3841 bound_to 3832
    3.5123  -10.0783    4.2142 LP  0  0  0  0  0  0  0  0  0  0  0  0  # atno 4297 bound_to 1298
    3.9869   -8.5389    3.9467 LP  0  0  0  0  0  0  0  0  0  0  0  0  # atno 4298 bound_to 1298
    2.1609   -8.4620    7.8949 LP  0  0  0  0  0  0  0  0  0  0  0  0  # atno 4299 bound_to 2456
    0.8110   -8.0917    7.0538 LP  0  0  0  0  0  0  0  0  0  0  0  0  # atno 4300 bound_to 2456
    2.0292   -7.8972    5.9575 LP  0  0  0  0  0  0  0  0  0  0  0  0  # atno 4301 bound_to 2510
    2.6540   -7.8446    4.4497 LP  0  0  0  0  0  0  0  0  0  0  0  0  # atno 4302 bound_to 2510
   -2.6630  -18.0412   14.4663 LP  0  0  0  0  0  0  0  0  0  0  0  0  # atno 4306 bound_to 3712
   -3.4805  -16.6324   14.3498 LP  0  0  0  0  0  0  0  0  0  0  0  0  # atno 4307 bound_to 3712
    1.3902  -20.1559    9.1652 LP  0  0  0  0  0  0  0  0  0  0  0  0  # atno 4314 bound_to 3832
    2.6244  -19.8614    8.1372 LP  0  0  0  0  0  0  0  0  0  0  0  0  # atno 4315 bound_to 3832
   -5.4879  -22.1100   10.7264 LP  0  0  0  0  0  0  0  0  0  0  0  0  # atno 4318 bound_to 3762
   -4.1532  -22.4591   11.6001 LP  0  0  0  0  0  0  0  0  0  0  0  0  # atno 4319 bound_to 3762
   -4.6633   -4.8217    7.6605 LP  0  0  0  0  0  0  0  0  0  0  0  0  # atno 4320 bound_to 2467
   -3.7186   -5.1801    8.9434 LP  0  0  0  0  0  0  0  0  0  0  0  0  # atno 4321 bound_to 2467

> <Gold.Score>
     Score     S(PLP)   S(hbond)     S(cho)   S(metal)  DE(clash)   DE(tors)     intcor
     58.66     -54.86       1.73       0.00       0.00       0.00       0.69       0.00

> <Gold.PLP.Fitness>
58.6583

> <Gold.PLP.PLP>
-54.8575

> <Gold.PLP.part.hbond>
-2.0000

> <Gold.PLP.part.metal>
0.0000

> <Gold.PLP.part.buried>
-6.0739

> <Gold.PLP.part.nonpolar>
-48.2515

> <Gold.PLP.part.repulsive>
0.0882

> <Gold.PLP.ligand.clash>
0.0000

> <Gold.PLP.ligand.torsion>
0.6918

> <Gold.PLP.Chemscore.Hbond>
1.7280

> <Gold.PLP.Chemscore.CHOScore>
0.0000

> <Gold.PLP.Chemscore.Metal>
0.0000

> <Gold.Chemscore.Hbonds>
donor molecule, donor type, donor heavy atom, donor atom, acceptor molecule, acceptor atom, score
      L1  H    12    31       P1  2398  0.99
      P1  H  2456  2461       L1     5  0.74

> <Gold.PLP.Chemscore.Internal.Correction>
0.0004

