#       Name:                EN300-98433_i002
#       Creating user name   fsindt
#       Creation time:       Tue Feb 28 15:21:01 2023


#       File generated by GOLD software.
#

@<TRIPOS>MOLECULE
EN300-98433_i002|amine_7|mol2|6375|dock10
    31    32     1
SMALL
USER_CHARGES


@<TRIPOS>ATOM
      1 C1          -1.2402 -11.1136  11.4954 C.3            1 <1>                0.0000
      2 N2          -0.5671 -11.9461  10.4952 N.pl3          1 <1>                0.0000
      3 C3          -0.0225 -11.5172   9.3150 C.2            1 <1>                0.0000
      4 C4           0.4902 -12.6030   8.7051 C.2            1 <1>                0.0000
      5 N5           0.2647 -13.6658   9.4916 N.2            1 <1>                0.0000
      6 C6          -0.3631 -13.2791  10.5684 C.2            1 <1>                0.0000
      7 C7          -0.7974 -14.1734  11.7009 C.3            1 <1>                0.0000
      8 C8           0.2609 -15.2538  11.9323 C.3            1 <1>                0.0000
      9 C9           0.6278 -15.3002  13.4183 C.3            1 <1>                0.0000
     10 C10          1.6285 -16.4358  13.6517 C.3            1 <1>                0.0000
     11 C11          1.0206 -17.7523  13.1630 C.3            1 <1>                0.0000
     12 N12          0.7164 -17.6529  11.7305 N.4            1 <1>                1.0000
     13 C13         -0.2963 -16.6141  11.5073 C.3            1 <1>                0.0000
     14 H14         -2.3058 -11.0665  11.2712 H              1 <1>                0.0000
     15 H15         -1.0960 -11.5467  12.4852 H              1 <1>                0.0000
     16 H16         -0.8196 -10.1083  11.4739 H              1 <1>                0.0000
     17 H17         -0.0074 -10.5031   8.9439 H              1 <1>                0.0000
     18 H18          0.9944 -12.6156   7.7502 H              1 <1>                0.0000
     19 H19         -0.9153 -13.5801  12.6076 H              1 <1>                0.0000
     20 H20         -1.7477 -14.6437  11.4483 H              1 <1>                0.0000
     21 H21          1.1499 -15.0241  11.3449 H              1 <1>                0.0000
     22 H22          1.0775 -14.3519  13.7126 H              1 <1>                0.0000
     23 H23         -0.2701 -15.4783  14.0101 H              1 <1>                0.0000
     24 H24          2.5460 -16.2314  13.0999 H              1 <1>                0.0000
     25 H25          1.8519 -16.5109  14.7159 H              1 <1>                0.0000
     26 H26          1.7305 -18.5629  13.3279 H              1 <1>                0.0000
     27 H27          0.1034 -17.9557  13.7156 H              1 <1>                0.0000
     28 H28         -1.1854 -16.8418  12.0951 H              1 <1>                0.0000
     29 H29         -0.5586 -16.5844  10.4497 H              1 <1>                0.0000
     30 H30          1.5568 -17.4162  11.2249 H              1 <1>                0.0000
     31 H31          0.3659 -18.5395  11.3999 H              1 <1>                0.0000
@<TRIPOS>BOND
    1    1    2 1     
    2    1   14 1     
    3    1   15 1     
    4    1   16 1     
    5    2    3 1     
    6    2    6 1     
    7    3    4 2     
    8    3   17 1     
    9    4    5 1     
   10    4   18 1     
   11    5    6 2     
   12    6    7 1     
   13    7    8 1     
   14    7   19 1     
   15    7   20 1     
   16    8    9 1     
   17    8   13 1     
   18    8   21 1     
   19    9   10 1     
   20    9   22 1     
   21    9   23 1     
   22   10   11 1     
   23   10   24 1     
   24   10   25 1     
   25   11   12 1     
   26   11   26 1     
   27   11   27 1     
   28   12   13 1     
   29   12   30 1     
   30   12   31 1     
   31   13   28 1     
   32   13   29 1     
@<TRIPOS>SUBSTRUCTURE
      1 ****           1
@<TRIPOS>SET
DONOR_HYDROGENS      STATIC     ATOMS    <user>   **** ""
2 30 31
ATOM$RED        STATIC     ATOMS    COLORGROUP SYSTEM
2 30 31
@<TRIPOS>COMMENT
> <Gold.Version>
2022.2.0

> <Gold.Id.Protein>
3pbl|protein|mol2

> <Gold.Protein.RotatedTorsions>
[ 1303 1298 1297 1294 ] final  134.31 input  179.99 | X-H torsion
[ 2461 2456 2455 2452 ] final   -8.92 input   30.03 | X-H torsion
[ 2515 2510 2509 2506 ] final  -22.67 input  -89.99 | X-H torsion
[ 3721 3712 3711 3710 ] final   59.10 input -179.91 | X-H torsion
[ 3841 3832 3831 3830 ] final  -32.27 input -179.91 | X-H torsion
[ 3767 3762 3761 3758 ] final  110.37 input  -89.99 | X-H torsion
[ 2472 2467 2466 2463 ] final -155.36 input  -89.97 | X-H torsion

> <Gold.Protein.ActiveResidues>
 VAL82   VAL86   LEU89   PHE106  VAL107  ASP110  VAL111  MET112  CYS114  THR115 
 CYS181  SER182  ILE183  PHE188  VAL189  ILE190  SER192  SER193  SER196  TRP342 
 PHE345  PHE346  HIS349  VAL350  TYR365  THR369  GLY372  TYR373 

> <Gold.Protein.RotatedAtoms>
    4.8440   -9.5597    4.9390 H   0  0  0  0  0  0  0  0  0  0  0  0  # atno 1303 bound_to 1298
    0.9050   -8.0430    7.0379 H   0  0  0  0  0  0  0  0  0  0  0  0  # atno 2461 bound_to 2456
   -5.0557   -5.4526    9.2892 H   0  0  0  0  0  0  0  0  0  0  0  0  # atno 2472 bound_to 2467
    2.6823   -7.9143    4.4186 H   0  0  0  0  0  0  0  0  0  0  0  0  # atno 2515 bound_to 2510
   -2.5866  -17.9143   13.3949 H   0  0  0  0  0  0  0  0  0  0  0  0  # atno 3721 bound_to 3712
   -4.0113  -23.2533   10.7705 H   0  0  0  0  0  0  0  0  0  0  0  0  # atno 3767 bound_to 3762
    1.5667  -20.1043    9.3213 H   0  0  0  0  0  0  0  0  0  0  0  0  # atno 3841 bound_to 3832
    3.4817  -10.0419    4.1788 LP  0  0  0  0  0  0  0  0  0  0  0  0  # atno 4297 bound_to 1298
    4.0362   -8.5197    3.9735 LP  0  0  0  0  0  0  0  0  0  0  0  0  # atno 4298 bound_to 1298
    0.6806   -9.2260    8.1413 LP  0  0  0  0  0  0  0  0  0  0  0  0  # atno 4299 bound_to 2456
    2.1520   -8.5390    7.9687 LP  0  0  0  0  0  0  0  0  0  0  0  0  # atno 4300 bound_to 2456
    2.5816   -9.2565    5.3429 LP  0  0  0  0  0  0  0  0  0  0  0  0  # atno 4301 bound_to 2510
    2.0327   -7.8285    5.9141 LP  0  0  0  0  0  0  0  0  0  0  0  0  # atno 4302 bound_to 2510
   -2.9914  -17.4064   14.8632 LP  0  0  0  0  0  0  0  0  0  0  0  0  # atno 4306 bound_to 3712
   -3.5500  -16.6376   13.5352 LP  0  0  0  0  0  0  0  0  0  0  0  0  # atno 4307 bound_to 3712
    2.6223  -19.8600    8.1372 LP  0  0  0  0  0  0  0  0  0  0  0  0  # atno 4314 bound_to 3832
    2.7972  -21.1219    9.1588 LP  0  0  0  0  0  0  0  0  0  0  0  0  # atno 4315 bound_to 3832
   -5.4010  -22.5981   10.2172 LP  0  0  0  0  0  0  0  0  0  0  0  0  # atno 4318 bound_to 3762
   -4.7148  -22.0239   11.5833 LP  0  0  0  0  0  0  0  0  0  0  0  0  # atno 4319 bound_to 3762
   -5.0265   -4.8955    7.7546 LP  0  0  0  0  0  0  0  0  0  0  0  0  # atno 4320 bound_to 2467
   -3.6347   -5.0454    8.5954 LP  0  0  0  0  0  0  0  0  0  0  0  0  # atno 4321 bound_to 2467

> <Gold.Score>
     Score     S(PLP)   S(hbond)     S(cho)   S(metal)  DE(clash)   DE(tors)     intcor
     45.08     -38.36       2.00       0.93       0.00       0.00       1.03       0.00

> <Gold.PLP.Fitness>
45.0808

> <Gold.PLP.PLP>
-38.3576

> <Gold.PLP.part.hbond>
-1.0000

> <Gold.PLP.part.metal>
0.0000

> <Gold.PLP.part.buried>
-3.7790

> <Gold.PLP.part.nonpolar>
-34.0724

> <Gold.PLP.part.repulsive>
0.0228

> <Gold.PLP.ligand.clash>
0.0000

> <Gold.PLP.ligand.torsion>
1.0328

> <Gold.PLP.Chemscore.Hbond>
2.0000

> <Gold.PLP.Chemscore.CHOScore>
0.9294

> <Gold.PLP.Chemscore.Metal>
0.0000

> <Gold.Chemscore.Hbonds>
donor molecule, donor type, donor heavy atom, donor atom, acceptor molecule, acceptor atom, score
      L1  H    12    30       P1  1227  2.00
      L1  C     3    17       P1  2456  0.93

> <Gold.PLP.Chemscore.Internal.Correction>
0.0004

