#       Name:                EN300-98433_i002
#       Creating user name   fsindt
#       Creation time:       Tue Feb 28 15:21:01 2023


#       File generated by GOLD software.
#

@<TRIPOS>MOLECULE
EN300-98433_i002|amine_7|mol2|6375|dock9
    31    32     1
SMALL
USER_CHARGES


@<TRIPOS>ATOM
      1 C1           0.1898  -9.6104  11.3468 C.3            1 <1>                0.0000
      2 N2          -0.8724 -10.1941  10.5237 N.pl3          1 <1>                0.0000
      3 C3          -2.1954  -9.8435  10.5365 C.2            1 <1>                0.0000
      4 C4          -2.8145 -10.6253   9.6315 C.2            1 <1>                0.0000
      5 N5          -1.8945 -11.4313   9.0810 N.2            1 <1>                0.0000
      6 C6          -0.7278 -11.1747   9.6065 C.2            1 <1>                0.0000
      7 C7           0.5648 -11.8653   9.2552 C.3            1 <1>                0.0000
      8 C8           0.2659 -13.2716   8.7317 C.3            1 <1>                0.0000
      9 C9           0.2061 -13.2456   7.2017 C.3            1 <1>                0.0000
     10 C10         -0.0155 -14.6701   6.6851 C.3            1 <1>                0.0000
     11 C11          1.1025 -15.5756   7.2066 C.3            1 <1>                0.0000
     12 N12          1.0902 -15.5783   8.6743 N.4            1 <1>                1.0000
     13 C13          1.3733 -14.2288   9.1773 C.3            1 <1>                0.0000
     14 H14          0.2745 -10.1680  12.2796 H              1 <1>                0.0000
     15 H15          1.1356  -9.6589  10.8074 H              1 <1>                0.0000
     16 H16         -0.0507  -8.5701  11.5659 H              1 <1>                0.0000
     17 H17         -2.6546  -9.0859  11.1542 H              1 <1>                0.0000
     18 H18         -3.8672 -10.6066   9.3911 H              1 <1>                0.0000
     19 H19          1.0844 -11.2941   8.4860 H              1 <1>                0.0000
     20 H20          1.1929 -11.9341  10.1433 H              1 <1>                0.0000
     21 H21         -0.6911 -13.6114   9.1276 H              1 <1>                0.0000
     22 H22         -0.6180 -12.6089   6.8798 H              1 <1>                0.0000
     23 H23          1.1446 -12.8565   6.8068 H              1 <1>                0.0000
     24 H24         -0.9780 -15.0398   7.0385 H              1 <1>                0.0000
     25 H25         -0.0035 -14.6680   5.5952 H              1 <1>                0.0000
     26 H26          0.9478 -16.5905   6.8404 H              1 <1>                0.0000
     27 H27          2.0644 -15.2051   6.8524 H              1 <1>                0.0000
     28 H28          2.3295 -13.8870   8.7812 H              1 <1>                0.0000
     29 H29          1.4187 -14.2495  10.2662 H              1 <1>                0.0000
     30 H30          0.1829 -15.8747   9.0015 H              1 <1>                0.0000
     31 H31          1.7932 -16.2173   9.0143 H              1 <1>                0.0000
@<TRIPOS>BOND
    1    1    2 1     
    2    1   14 1     
    3    1   15 1     
    4    1   16 1     
    5    2    3 1     
    6    2    6 1     
    7    3    4 2     
    8    3   17 1     
    9    4    5 1     
   10    4   18 1     
   11    5    6 2     
   12    6    7 1     
   13    7    8 1     
   14    7   19 1     
   15    7   20 1     
   16    8    9 1     
   17    8   13 1     
   18    8   21 1     
   19    9   10 1     
   20    9   22 1     
   21    9   23 1     
   22   10   11 1     
   23   10   24 1     
   24   10   25 1     
   25   11   12 1     
   26   11   26 1     
   27   11   27 1     
   28   12   13 1     
   29   12   30 1     
   30   12   31 1     
   31   13   28 1     
   32   13   29 1     
@<TRIPOS>SUBSTRUCTURE
      1 ****           1
@<TRIPOS>SET
DONOR_HYDROGENS      STATIC     ATOMS    <user>   **** ""
2 30 31
ATOM$RED        STATIC     ATOMS    COLORGROUP SYSTEM
2 30 31
@<TRIPOS>COMMENT
> <Gold.Version>
2022.2.0

> <Gold.Id.Protein>
3pbl|protein|mol2

> <Gold.Protein.RotatedTorsions>
[ 1303 1298 1297 1294 ] final   14.97 input  179.99 | X-H torsion
[ 2461 2456 2455 2452 ] final  -37.68 input   30.03 | X-H torsion
[ 2515 2510 2509 2506 ] final   82.06 input  -89.99 | X-H torsion
[ 3721 3712 3711 3710 ] final  -27.91 input -179.91 | X-H torsion
[ 3841 3832 3831 3830 ] final  -30.03 input -179.91 | X-H torsion
[ 3767 3762 3761 3758 ] final -160.65 input  -89.99 | X-H torsion
[ 2472 2467 2466 2463 ] final   61.17 input  -89.97 | X-H torsion

> <Gold.Protein.ActiveResidues>
 VAL82   VAL86   LEU89   PHE106  VAL107  ASP110  VAL111  MET112  CYS114  THR115 
 CYS181  SER182  ILE183  PHE188  VAL189  ILE190  SER192  SER193  SER196  TRP342 
 PHE345  PHE346  HIS349  VAL350  TYR365  THR369  GLY372  TYR373 

> <Gold.Protein.RotatedAtoms>
    3.4870  -10.0485    4.1858 H   0  0  0  0  0  0  0  0  0  0  0  0  # atno 1303 bound_to 1298
    0.5383   -8.3028    7.1695 H   0  0  0  0  0  0  0  0  0  0  0  0  # atno 2461 bound_to 2456
   -4.6621   -4.8222    7.6602 H   0  0  0  0  0  0  0  0  0  0  0  0  # atno 2472 bound_to 2467
    2.0624   -7.6424    5.7490 H   0  0  0  0  0  0  0  0  0  0  0  0  # atno 2515 bound_to 2510
   -2.5919  -17.7224   14.5719 H   0  0  0  0  0  0  0  0  0  0  0  0  # atno 3721 bound_to 3712
   -4.3003  -22.3043   11.6439 H   0  0  0  0  0  0  0  0  0  0  0  0  # atno 3767 bound_to 3762
    1.5709  -20.1305    9.3422 H   0  0  0  0  0  0  0  0  0  0  0  0  # atno 3841 bound_to 3832
    4.0272   -8.5229    3.9685 LP  0  0  0  0  0  0  0  0  0  0  0  0  # atno 4297 bound_to 1298
    4.8481   -9.5496    4.9374 LP  0  0  0  0  0  0  0  0  0  0  0  0  # atno 4298 bound_to 1298
    1.0966   -9.2869    8.3473 LP  0  0  0  0  0  0  0  0  0  0  0  0  # atno 4299 bound_to 2456
    2.1026   -8.2184    7.6311 LP  0  0  0  0  0  0  0  0  0  0  0  0  # atno 4300 bound_to 2456
    2.7569   -8.1462    4.3599 LP  0  0  0  0  0  0  0  0  0  0  0  0  # atno 4301 bound_to 2510
    2.4776   -9.2108    5.5662 LP  0  0  0  0  0  0  0  0  0  0  0  0  # atno 4302 bound_to 2510
   -3.5522  -16.5578   14.0248 LP  0  0  0  0  0  0  0  0  0  0  0  0  # atno 4306 bound_to 3712
   -2.9831  -17.7078   13.0148 LP  0  0  0  0  0  0  0  0  0  0  0  0  # atno 4307 bound_to 3712
    2.5913  -19.8393    8.1380 LP  0  0  0  0  0  0  0  0  0  0  0  0  # atno 4314 bound_to 3832
    2.8234  -21.1123    9.1340 LP  0  0  0  0  0  0  0  0  0  0  0  0  # atno 4315 bound_to 3832
   -4.3156  -23.3346   10.3770 LP  0  0  0  0  0  0  0  0  0  0  0  0  # atno 4318 bound_to 3762
   -5.5113  -22.2360   10.5505 LP  0  0  0  0  0  0  0  0  0  0  0  0  # atno 4319 bound_to 3762
   -3.7190   -5.1804    8.9442 LP  0  0  0  0  0  0  0  0  0  0  0  0  # atno 4320 bound_to 2467
   -5.3358   -5.3909    9.0346 LP  0  0  0  0  0  0  0  0  0  0  0  0  # atno 4321 bound_to 2467

> <Gold.Score>
     Score     S(PLP)   S(hbond)     S(cho)   S(metal)  DE(clash)   DE(tors)     intcor
     56.87     -49.55       2.00       1.00       0.00       0.00       0.84       0.00

> <Gold.PLP.Fitness>
56.8726

> <Gold.PLP.PLP>
-49.5494

> <Gold.PLP.part.hbond>
-1.0000

> <Gold.PLP.part.metal>
0.0000

> <Gold.PLP.part.buried>
-3.3621

> <Gold.PLP.part.nonpolar>
-46.4030

> <Gold.PLP.part.repulsive>
0.0242

> <Gold.PLP.ligand.clash>
0.0000

> <Gold.PLP.ligand.torsion>
0.8353

> <Gold.PLP.Chemscore.Hbond>
2.0000

> <Gold.PLP.Chemscore.CHOScore>
0.9978

> <Gold.PLP.Chemscore.Metal>
0.0000

> <Gold.Chemscore.Hbonds>
donor molecule, donor type, donor heavy atom, donor atom, acceptor molecule, acceptor atom, score
      L1  H    12    31       P1  1227  2.00
      L1  C     3    17       P1  2398  1.00

> <Gold.PLP.Chemscore.Internal.Correction>
0.0004

