#       Name:                EN300-98433_i002
#       Creating user name   fsindt
#       Creation time:       Tue Feb 28 15:21:02 2023


#       File generated by GOLD software.
#

@<TRIPOS>MOLECULE
EN300-98433_i002|amine_7|mol2|6375|dock11
    31    32     1
SMALL
USER_CHARGES


@<TRIPOS>ATOM
      1 C1          -0.5583  -9.9042  11.3717 C.3            1 <1>                0.0000
      2 N2          -1.7433 -10.4386  10.6960 N.pl3          1 <1>                0.0000
      3 C3          -3.0307 -10.3955  11.1587 C.2            1 <1>                0.0000
      4 C4          -3.7987 -10.9974  10.2305 C.2            1 <1>                0.0000
      5 N5          -3.0019 -11.3971   9.2284 N.2            1 <1>                0.0000
      6 C6          -1.7700 -11.0607   9.4976 C.2            1 <1>                0.0000
      7 C7          -0.5741 -11.3306   8.6212 C.3            1 <1>                0.0000
      8 C8          -0.3838 -12.8411   8.4692 C.3            1 <1>                0.0000
      9 C9           0.1967 -13.1466   7.0854 C.3            1 <1>                0.0000
     10 C10          0.4564 -14.6516   6.9725 C.3            1 <1>                0.0000
     11 C11          1.3908 -15.0886   8.1029 C.3            1 <1>                0.0000
     12 N12          0.7680 -14.7938   9.3989 N.4            1 <1>                1.0000
     13 C13          0.5817 -13.3451   9.5440 C.3            1 <1>                0.0000
     14 H14         -0.1253 -10.6747  12.0095 H              1 <1>                0.0000
     15 H15          0.1753  -9.5939  10.6276 H              1 <1>                0.0000
     16 H16         -0.8433  -9.0463  11.9807 H              1 <1>                0.0000
     17 H17         -3.3661  -9.9626  12.0895 H              1 <1>                0.0000
     18 H18         -4.8687 -11.1343  10.2838 H              1 <1>                0.0000
     19 H19         -0.7347 -10.8840   7.6400 H              1 <1>                0.0000
     20 H20          0.3156 -10.8962   9.0770 H              1 <1>                0.0000
     21 H21         -1.3456 -13.3420   8.5791 H              1 <1>                0.0000
     22 H22         -0.5129 -12.8405   6.3167 H              1 <1>                0.0000
     23 H23          1.1333 -12.6043   6.9553 H              1 <1>                0.0000
     24 H24         -0.4876 -15.1907   7.0517 H              1 <1>                0.0000
     25 H25          0.9214 -14.8696   6.0111 H              1 <1>                0.0000
     26 H26          1.5778 -16.1596   8.0253 H              1 <1>                0.0000
     27 H27          2.3344 -14.5491   8.0226 H              1 <1>                0.0000
     28 H28          1.5426 -12.8427   9.4331 H              1 <1>                0.0000
     29 H29          0.1714 -13.1291  10.5305 H              1 <1>                0.0000
     30 H30         -0.1282 -15.2542   9.4527 H              1 <1>                0.0000
     31 H31          1.3623 -15.1315  10.1411 H              1 <1>                0.0000
@<TRIPOS>BOND
    1    1    2 1     
    2    1   14 1     
    3    1   15 1     
    4    1   16 1     
    5    2    3 1     
    6    2    6 1     
    7    3    4 2     
    8    3   17 1     
    9    4    5 1     
   10    4   18 1     
   11    5    6 2     
   12    6    7 1     
   13    7    8 1     
   14    7   19 1     
   15    7   20 1     
   16    8    9 1     
   17    8   13 1     
   18    8   21 1     
   19    9   10 1     
   20    9   22 1     
   21    9   23 1     
   22   10   11 1     
   23   10   24 1     
   24   10   25 1     
   25   11   12 1     
   26   11   26 1     
   27   11   27 1     
   28   12   13 1     
   29   12   30 1     
   30   12   31 1     
   31   13   28 1     
   32   13   29 1     
@<TRIPOS>SUBSTRUCTURE
      1 ****           1
@<TRIPOS>SET
DONOR_HYDROGENS      STATIC     ATOMS    <user>   **** ""
2 30 31
ATOM$RED        STATIC     ATOMS    COLORGROUP SYSTEM
2 30 31
@<TRIPOS>COMMENT
> <Gold.Version>
2022.2.0

> <Gold.Id.Protein>
3pbl|protein|mol2

> <Gold.Protein.RotatedTorsions>
[ 1303 1298 1297 1294 ] final   53.00 input  179.99 | X-H torsion
[ 2461 2456 2455 2452 ] final  -69.31 input   30.03 | X-H torsion
[ 2515 2510 2509 2506 ] final -138.43 input  -89.99 | X-H torsion
[ 3721 3712 3711 3710 ] final  149.25 input -179.91 | X-H torsion
[ 3841 3832 3831 3830 ] final -129.23 input -179.91 | X-H torsion
[ 3767 3762 3761 3758 ] final  -56.72 input  -89.99 | X-H torsion
[ 2472 2467 2466 2463 ] final   82.45 input  -89.97 | X-H torsion

> <Gold.Protein.ActiveResidues>
 VAL82   VAL86   LEU89   PHE106  VAL107  ASP110  VAL111  MET112  CYS114  THR115 
 CYS181  SER182  ILE183  PHE188  VAL189  ILE190  SER192  SER193  SER196  TRP342 
 PHE345  PHE346  HIS349  VAL350  TYR365  THR369  GLY372  TYR373 

> <Gold.Protein.RotatedAtoms>
    3.9135  -10.2703    4.5682 H   0  0  0  0  0  0  0  0  0  0  0  0  # atno 1303 bound_to 1298
    0.3387   -8.6710    7.4676 H   0  0  0  0  0  0  0  0  0  0  0  0  # atno 2461 bound_to 2456
   -4.9948   -4.8874    7.7396 H   0  0  0  0  0  0  0  0  0  0  0  0  # atno 2472 bound_to 2467
    2.6090   -9.2572    5.2788 H   0  0  0  0  0  0  0  0  0  0  0  0  # atno 2515 bound_to 2510
   -3.2015  -16.8727   13.1914 H   0  0  0  0  0  0  0  0  0  0  0  0  # atno 3721 bound_to 3712
   -5.4773  -22.0860   10.7646 H   0  0  0  0  0  0  0  0  0  0  0  0  # atno 3767 bound_to 3762
    2.3499  -19.6243    8.4067 H   0  0  0  0  0  0  0  0  0  0  0  0  # atno 3841 bound_to 3832
    3.5630   -8.8812    3.7849 LP  0  0  0  0  0  0  0  0  0  0  0  0  # atno 4297 bound_to 1298
    4.8857   -8.9695    4.7384 LP  0  0  0  0  0  0  0  0  0  0  0  0  # atno 4298 bound_to 1298
    1.5924   -9.1596    8.3933 LP  0  0  0  0  0  0  0  0  0  0  0  0  # atno 4299 bound_to 2456
    1.8064   -7.9776    7.2872 LP  0  0  0  0  0  0  0  0  0  0  0  0  # atno 4300 bound_to 2456
    2.0295   -7.8870    5.9516 LP  0  0  0  0  0  0  0  0  0  0  0  0  # atno 4301 bound_to 2510
    2.6582   -7.8544    4.4448 LP  0  0  0  0  0  0  0  0  0  0  0  0  # atno 4302 bound_to 2510
   -2.6169  -18.2182   13.8440 LP  0  0  0  0  0  0  0  0  0  0  0  0  # atno 4306 bound_to 3712
   -3.2146  -17.0283   14.7893 LP  0  0  0  0  0  0  0  0  0  0  0  0  # atno 4307 bound_to 3712
    2.9989  -20.9983    8.9233 LP  0  0  0  0  0  0  0  0  0  0  0  0  # atno 4314 bound_to 3832
    1.5161  -20.5380    9.4294 LP  0  0  0  0  0  0  0  0  0  0  0  0  # atno 4315 bound_to 3832
   -4.1256  -22.4930   11.5857 LP  0  0  0  0  0  0  0  0  0  0  0  0  # atno 4318 bound_to 3762
   -4.5247  -23.2958   10.2208 LP  0  0  0  0  0  0  0  0  0  0  0  0  # atno 4319 bound_to 3762
   -3.6361   -5.0577    8.6290 LP  0  0  0  0  0  0  0  0  0  0  0  0  # atno 4320 bound_to 2467
   -5.0861   -5.4484    9.2704 LP  0  0  0  0  0  0  0  0  0  0  0  0  # atno 4321 bound_to 2467

> <Gold.Score>
     Score     S(PLP)   S(hbond)     S(cho)   S(metal)  DE(clash)   DE(tors)     intcor
     46.68     -47.55       0.00       0.00       0.00       0.00       0.43       0.00

> <Gold.PLP.Fitness>
46.6848

> <Gold.PLP.PLP>
-47.5458

> <Gold.PLP.part.hbond>
-0.0842

> <Gold.PLP.part.metal>
0.0000

> <Gold.PLP.part.buried>
-1.9792

> <Gold.PLP.part.nonpolar>
-46.1586

> <Gold.PLP.part.repulsive>
0.0076

> <Gold.PLP.ligand.clash>
0.0000

> <Gold.PLP.ligand.torsion>
0.4307

> <Gold.PLP.Chemscore.Hbond>
0.0000

> <Gold.PLP.Chemscore.CHOScore>
0.0000

> <Gold.PLP.Chemscore.Metal>
0.0000

> <Gold.PLP.Chemscore.Internal.Correction>
0.0004

