#       Name:                EN300-98433_i002
#       Creating user name   fsindt
#       Creation time:       Tue Feb 28 15:21:00 2023


#       File generated by GOLD software.
#

@<TRIPOS>MOLECULE
EN300-98433_i002|amine_7|mol2|6375|dock7
    31    32     1
SMALL
USER_CHARGES


@<TRIPOS>ATOM
      1 C1          -0.4598  -9.8434  11.0823 C.3            1 <1>                0.0000
      2 N2          -1.7417 -10.4079  10.6525 N.pl3          1 <1>                0.0000
      3 C3          -2.8544  -9.7042  10.2781 C.2            1 <1>                0.0000
      4 C4          -3.7998 -10.6096   9.9617 C.2            1 <1>                0.0000
      5 N5          -3.2785 -11.8328  10.1382 N.2            1 <1>                0.0000
      6 C6          -2.0441 -11.7198  10.5464 C.2            1 <1>                0.0000
      7 C7          -1.1137 -12.8637  10.8575 C.3            1 <1>                0.0000
      8 C8          -0.0172 -12.9334   9.7927 C.3            1 <1>                0.0000
      9 C9           0.6584 -14.3067   9.8435 C.3            1 <1>                0.0000
     10 C10          1.6996 -14.3943   8.7240 C.3            1 <1>                0.0000
     11 C11          1.0179 -14.1327   7.3793 C.3            1 <1>                0.0000
     12 N12          0.4143 -12.7947   7.3847 N.4            1 <1>                1.0000
     13 C13         -0.6354 -12.7259   8.4084 C.3            1 <1>                0.0000
     14 H14         -0.4689  -9.7027  12.1631 H              1 <1>                0.0000
     15 H15          0.3464 -10.5250  10.8114 H              1 <1>                0.0000
     16 H16         -0.3034  -8.8825  10.5921 H              1 <1>                0.0000
     17 H17         -2.9550  -8.6295  10.2435 H              1 <1>                0.0000
     18 H18         -4.8020 -10.3894   9.6250 H              1 <1>                0.0000
     19 H19         -0.6603 -12.7074  11.8363 H              1 <1>                0.0000
     20 H20         -1.6754 -13.7978  10.8623 H              1 <1>                0.0000
     21 H21          0.7234 -12.1562   9.9816 H              1 <1>                0.0000
     22 H22          1.1488 -14.4363  10.8084 H              1 <1>                0.0000
     23 H23         -0.0907 -15.0867   9.7065 H              1 <1>                0.0000
     24 H24          2.4760 -13.6474   8.8899 H              1 <1>                0.0000
     25 H25          2.1456 -15.3888   8.7187 H              1 <1>                0.0000
     26 H26          1.7564 -14.1944   6.5800 H              1 <1>                0.0000
     27 H27          0.2420 -14.8802   7.2144 H              1 <1>                0.0000
     28 H28         -1.3761 -13.5034   8.2216 H              1 <1>                0.0000
     29 H29         -1.1173 -11.7491   8.3689 H              1 <1>                0.0000
     30 H30          1.1247 -12.1072   7.5861 H              1 <1>                0.0000
     31 H31          0.0122 -12.6045   6.4790 H              1 <1>                0.0000
@<TRIPOS>BOND
    1    1    2 1     
    2    1   14 1     
    3    1   15 1     
    4    1   16 1     
    5    2    3 1     
    6    2    6 1     
    7    3    4 2     
    8    3   17 1     
    9    4    5 1     
   10    4   18 1     
   11    5    6 2     
   12    6    7 1     
   13    7    8 1     
   14    7   19 1     
   15    7   20 1     
   16    8    9 1     
   17    8   13 1     
   18    8   21 1     
   19    9   10 1     
   20    9   22 1     
   21    9   23 1     
   22   10   11 1     
   23   10   24 1     
   24   10   25 1     
   25   11   12 1     
   26   11   26 1     
   27   11   27 1     
   28   12   13 1     
   29   12   30 1     
   30   12   31 1     
   31   13   28 1     
   32   13   29 1     
@<TRIPOS>SUBSTRUCTURE
      1 ****           1
@<TRIPOS>SET
DONOR_HYDROGENS      STATIC     ATOMS    <user>   **** ""
2 30 31
ATOM$RED        STATIC     ATOMS    COLORGROUP SYSTEM
2 30 31
@<TRIPOS>COMMENT
> <Gold.Version>
2022.2.0

> <Gold.Id.Protein>
3pbl|protein|mol2

> <Gold.Protein.RotatedTorsions>
[ 1303 1298 1297 1294 ] final   83.45 input  179.99 | X-H torsion
[ 2461 2456 2455 2452 ] final  133.83 input   30.03 | X-H torsion
[ 2515 2510 2509 2506 ] final   47.39 input  -89.99 | X-H torsion
[ 3721 3712 3711 3710 ] final   59.32 input -179.91 | X-H torsion
[ 3841 3832 3831 3830 ] final  -24.04 input -179.91 | X-H torsion
[ 3767 3762 3761 3758 ] final  -74.41 input  -89.99 | X-H torsion
[ 2472 2467 2466 2463 ] final -122.96 input  -89.97 | X-H torsion

> <Gold.Protein.ActiveResidues>
 VAL82   VAL86   LEU89   PHE106  VAL107  ASP110  VAL111  MET112  CYS114  THR115 
 CYS181  SER182  ILE183  PHE188  VAL189  ILE190  SER192  SER193  SER196  TRP342 
 PHE345  PHE346  HIS349  VAL350  TYR365  THR369  GLY372  TYR373 

> <Gold.Protein.RotatedAtoms>
    4.3289  -10.1726    4.8189 H   0  0  0  0  0  0  0  0  0  0  0  0  # atno 1303 bound_to 1298
    2.0316   -8.8082    8.1956 H   0  0  0  0  0  0  0  0  0  0  0  0  # atno 2461 bound_to 2456
   -4.5499   -5.4490    9.4337 H   0  0  0  0  0  0  0  0  0  0  0  0  # atno 2472 bound_to 2467
    2.2198   -7.4155    5.2599 H   0  0  0  0  0  0  0  0  0  0  0  0  # atno 2515 bound_to 2510
   -2.5877  -17.9127   13.3922 H   0  0  0  0  0  0  0  0  0  0  0  0  # atno 3721 bound_to 3712
   -5.3710  -21.9706   11.0084 H   0  0  0  0  0  0  0  0  0  0  0  0  # atno 3767 bound_to 3762
    1.5880  -20.2016    9.3954 H   0  0  0  0  0  0  0  0  0  0  0  0  # atno 3841 bound_to 3832
    3.3555   -9.3297    3.8148 LP  0  0  0  0  0  0  0  0  0  0  0  0  # atno 4297 bound_to 1298
    4.6776   -8.6188    4.4577 LP  0  0  0  0  0  0  0  0  0  0  0  0  # atno 4298 bound_to 1298
    1.2603   -7.9333    7.0523 LP  0  0  0  0  0  0  0  0  0  0  0  0  # atno 4299 bound_to 2456
    0.4462   -9.0667    7.9004 LP  0  0  0  0  0  0  0  0  0  0  0  0  # atno 4300 bound_to 2456
    2.8357   -8.6946    4.4535 LP  0  0  0  0  0  0  0  0  0  0  0  0  # atno 4301 bound_to 2510
    2.2413   -8.8894    5.9619 LP  0  0  0  0  0  0  0  0  0  0  0  0  # atno 4302 bound_to 2510
   -2.9896  -17.4096   14.8630 LP  0  0  0  0  0  0  0  0  0  0  0  0  # atno 4306 bound_to 3712
   -3.5505  -16.6362   13.5386 LP  0  0  0  0  0  0  0  0  0  0  0  0  # atno 4307 bound_to 3712
    2.5056  -19.7881    8.1451 LP  0  0  0  0  0  0  0  0  0  0  0  0  # atno 4314 bound_to 3832
    2.8893  -21.0813    9.0654 LP  0  0  0  0  0  0  0  0  0  0  0  0  # atno 4315 bound_to 3832
   -3.9860  -22.7114   11.4558 LP  0  0  0  0  0  0  0  0  0  0  0  0  # atno 4318 bound_to 3762
   -4.7706  -23.1928   10.1069 LP  0  0  0  0  0  0  0  0  0  0  0  0  # atno 4319 bound_to 3762
   -5.3955   -5.0580    8.0927 LP  0  0  0  0  0  0  0  0  0  0  0  0  # atno 4320 bound_to 2467
   -3.7716   -4.8866    8.1129 LP  0  0  0  0  0  0  0  0  0  0  0  0  # atno 4321 bound_to 2467

> <Gold.Score>
     Score     S(PLP)   S(hbond)     S(cho)   S(metal)  DE(clash)   DE(tors)     intcor
     52.30     -49.77       0.00       1.00       0.00       0.00       0.24       0.00

> <Gold.PLP.Fitness>
52.2974

> <Gold.PLP.PLP>
-49.7742

> <Gold.PLP.part.hbond>
0.0000

> <Gold.PLP.part.metal>
0.0000

> <Gold.PLP.part.buried>
-2.3228

> <Gold.PLP.part.nonpolar>
-47.9060

> <Gold.PLP.part.repulsive>
0.0345

> <Gold.PLP.ligand.clash>
0.0000

> <Gold.PLP.ligand.torsion>
0.2386

> <Gold.PLP.Chemscore.Hbond>
0.0000

> <Gold.PLP.Chemscore.CHOScore>
1.0000

> <Gold.PLP.Chemscore.Metal>
0.0000

> <Gold.Chemscore.Hbonds>
donor molecule, donor type, donor heavy atom, donor atom, acceptor molecule, acceptor atom, score
      L1  C     3    17       P1  2398  1.00

> <Gold.PLP.Chemscore.Internal.Correction>
0.0004

