#       Name:                EN300-98433_i002
#       Creating user name   fsindt
#       Creation time:       Tue Feb 28 15:21:05 2023


#       File generated by GOLD software.
#

@<TRIPOS>MOLECULE
EN300-98433_i002|amine_7|mol2|6375|dock18
    31    32     1
SMALL
USER_CHARGES


@<TRIPOS>ATOM
      1 C1           0.4968 -14.9705  10.7400 C.3            1 <1>                0.0000
      2 N2           0.6619 -14.4277   9.3893 N.pl3          1 <1>                0.0000
      3 C3           0.8776 -15.1476   8.2453 C.2            1 <1>                0.0000
      4 C4           0.9697 -14.2592   7.2374 C.2            1 <1>                0.0000
      5 N5           0.8144 -13.0304   7.7519 N.2            1 <1>                0.0000
      6 C6           0.6238 -13.1238   9.0396 C.2            1 <1>                0.0000
      7 C7           0.4073 -11.9676   9.9816 C.3            1 <1>                0.0000
      8 C8          -0.8685 -11.2207   9.5876 C.3            1 <1>                0.0000
      9 C9          -2.0898 -12.0781   9.9315 C.3            1 <1>                0.0000
     10 C10         -3.3622 -11.2904   9.6060 C.3            1 <1>                0.0000
     11 C11         -3.3472  -9.9675  10.3749 C.3            1 <1>                0.0000
     12 N12         -2.1704  -9.1828   9.9827 N.4            1 <1>                1.0000
     13 C13         -0.9459  -9.9004  10.3572 C.3            1 <1>                0.0000
     14 H14          1.4704 -15.0394  11.2253 H              1 <1>                0.0000
     15 H15         -0.1520 -14.3133  11.3189 H              1 <1>                0.0000
     16 H16          0.0494 -15.9627  10.6806 H              1 <1>                0.0000
     17 H17          0.9590 -16.2216   8.1663 H              1 <1>                0.0000
     18 H18          1.1390 -14.4950   6.1971 H              1 <1>                0.0000
     19 H19          0.3090 -12.3426  11.0003 H              1 <1>                0.0000
     20 H20          1.2582 -11.2887   9.9249 H              1 <1>                0.0000
     21 H21         -0.8557 -11.0184   8.5166 H              1 <1>                0.0000
     22 H22         -2.0686 -12.9955   9.3432 H              1 <1>                0.0000
     23 H23         -2.0751 -12.3242  10.9933 H              1 <1>                0.0000
     24 H24         -3.4016 -11.0889   8.5355 H              1 <1>                0.0000
     25 H25         -4.2357 -11.8724   9.8999 H              1 <1>                0.0000
     26 H26         -4.2518  -9.4043  10.1455 H              1 <1>                0.0000
     27 H27         -3.3081 -10.1702  11.4451 H              1 <1>                0.0000
     28 H28         -0.9579 -10.1045  11.4278 H              1 <1>                0.0000
     29 H29         -0.0777  -9.2876  10.1147 H              1 <1>                0.0000
     30 H30         -2.1818  -9.0373   8.9843 H              1 <1>                0.0000
     31 H31         -2.1919  -8.2893  10.4510 H              1 <1>                0.0000
@<TRIPOS>BOND
    1    1    2 1     
    2    1   14 1     
    3    1   15 1     
    4    1   16 1     
    5    2    3 1     
    6    2    6 1     
    7    3    4 2     
    8    3   17 1     
    9    4    5 1     
   10    4   18 1     
   11    5    6 2     
   12    6    7 1     
   13    7    8 1     
   14    7   19 1     
   15    7   20 1     
   16    8    9 1     
   17    8   13 1     
   18    8   21 1     
   19    9   10 1     
   20    9   22 1     
   21    9   23 1     
   22   10   11 1     
   23   10   24 1     
   24   10   25 1     
   25   11   12 1     
   26   11   26 1     
   27   11   27 1     
   28   12   13 1     
   29   12   30 1     
   30   12   31 1     
   31   13   28 1     
   32   13   29 1     
@<TRIPOS>SUBSTRUCTURE
      1 ****           1
@<TRIPOS>SET
DONOR_HYDROGENS      STATIC     ATOMS    <user>   **** ""
2 30 31
ATOM$RED        STATIC     ATOMS    COLORGROUP SYSTEM
2 30 31
@<TRIPOS>COMMENT
> <Gold.Version>
2022.2.0

> <Gold.Id.Protein>
3pbl|protein|mol2

> <Gold.Protein.RotatedTorsions>
[ 1303 1298 1297 1294 ] final  -67.85 input  179.99 | X-H torsion
[ 2461 2456 2455 2452 ] final -140.80 input   30.03 | X-H torsion
[ 2515 2510 2509 2506 ] final   -6.33 input  -89.99 | X-H torsion
[ 3721 3712 3711 3710 ] final   85.08 input -179.91 | X-H torsion
[ 3841 3832 3831 3830 ] final -177.50 input -179.91 | X-H torsion
[ 3767 3762 3761 3758 ] final   52.62 input  -89.99 | X-H torsion
[ 2472 2467 2466 2463 ] final -150.22 input  -89.97 | X-H torsion

> <Gold.Protein.ActiveResidues>
 VAL82   VAL86   LEU89   PHE106  VAL107  ASP110  VAL111  MET112  CYS114  THR115 
 CYS181  SER182  ILE183  PHE188  VAL189  ILE190  SER192  SER193  SER196  TRP342 
 PHE345  PHE346  HIS349  VAL350  TYR365  THR369  GLY372  TYR373 

> <Gold.Protein.RotatedAtoms>
    3.5712   -8.8700    3.7870 H   0  0  0  0  0  0  0  0  0  0  0  0  # atno 1303 bound_to 1298
    0.8407   -9.2717    8.2430 H   0  0  0  0  0  0  0  0  0  0  0  0  # atno 2461 bound_to 2456
   -4.9818   -5.4591    9.3298 H   0  0  0  0  0  0  0  0  0  0  0  0  # atno 2472 bound_to 2467
    2.5831   -7.6995    4.5439 H   0  0  0  0  0  0  0  0  0  0  0  0  # atno 2515 bound_to 2510
   -2.7485  -17.6718   13.1368 H   0  0  0  0  0  0  0  0  0  0  0  0  # atno 3721 bound_to 3712
   -4.6717  -23.2405   10.1436 H   0  0  0  0  0  0  0  0  0  0  0  0  # atno 3767 bound_to 3762
    2.9356  -20.0218    8.3999 H   0  0  0  0  0  0  0  0  0  0  0  0  # atno 3841 bound_to 3832
    4.8887   -8.9816    4.7451 LP  0  0  0  0  0  0  0  0  0  0  0  0  # atno 4297 bound_to 1298
    3.9025  -10.2699    4.5597 LP  0  0  0  0  0  0  0  0  0  0  0  0  # atno 4298 bound_to 1298
    2.1593   -8.3999    7.8322 LP  0  0  0  0  0  0  0  0  0  0  0  0  # atno 4299 bound_to 2456
    0.7376   -8.1368    7.0731 LP  0  0  0  0  0  0  0  0  0  0  0  0  # atno 4300 bound_to 2456
    2.6810   -9.2331    5.0953 LP  0  0  0  0  0  0  0  0  0  0  0  0  # atno 4301 bound_to 2510
    2.0325   -8.0668    6.0364 LP  0  0  0  0  0  0  0  0  0  0  0  0  # atno 4302 bound_to 2510
   -2.7950  -17.7686   14.7388 LP  0  0  0  0  0  0  0  0  0  0  0  0  # atno 4306 bound_to 3712
   -3.5596  -16.5554   13.9576 LP  0  0  0  0  0  0  0  0  0  0  0  0  # atno 4307 bound_to 3712
    2.4108  -21.1452    9.4190 LP  0  0  0  0  0  0  0  0  0  0  0  0  # atno 4314 bound_to 3832
    1.4275  -19.9320    8.9416 LP  0  0  0  0  0  0  0  0  0  0  0  0  # atno 4315 bound_to 3832
   -5.4217  -22.0102   10.9122 LP  0  0  0  0  0  0  0  0  0  0  0  0  # atno 4318 bound_to 3762
   -4.0339  -22.6245   11.5149 LP  0  0  0  0  0  0  0  0  0  0  0  0  # atno 4319 bound_to 3762
   -5.0982   -4.9175    7.7937 LP  0  0  0  0  0  0  0  0  0  0  0  0  # atno 4320 bound_to 2467
   -3.6370   -5.0170    8.5159 LP  0  0  0  0  0  0  0  0  0  0  0  0  # atno 4321 bound_to 2467

> <Gold.Score>
     Score     S(PLP)   S(hbond)     S(cho)   S(metal)  DE(clash)   DE(tors)     intcor
     50.54     -45.19       1.00       0.83       0.00       0.00       0.07       0.00

> <Gold.PLP.Fitness>
50.5438

> <Gold.PLP.PLP>
-45.1878

> <Gold.PLP.part.hbond>
-1.0000

> <Gold.PLP.part.metal>
0.0000

> <Gold.PLP.part.buried>
-4.4222

> <Gold.PLP.part.nonpolar>
-41.6270

> <Gold.PLP.part.repulsive>
0.1368

> <Gold.PLP.ligand.clash>
0.0000

> <Gold.PLP.ligand.torsion>
0.0653

> <Gold.PLP.Chemscore.Hbond>
1.0000

> <Gold.PLP.Chemscore.CHOScore>
0.8288

> <Gold.PLP.Chemscore.Metal>
0.0000

> <Gold.Chemscore.Hbonds>
donor molecule, donor type, donor heavy atom, donor atom, acceptor molecule, acceptor atom, score
      L1  H    12    31       P1  2398  1.00
      L1  C     3    17       P1  1227  0.83

> <Gold.PLP.Chemscore.Internal.Correction>
0.0002

