#       Name:                EN300-98433_i002
#       Creating user name   fsindt
#       Creation time:       Tue Feb 28 15:21:02 2023


#       File generated by GOLD software.
#

@<TRIPOS>MOLECULE
EN300-98433_i002|amine_7|mol2|6375|dock12
    31    32     1
SMALL
USER_CHARGES


@<TRIPOS>ATOM
      1 C1          -3.4141 -11.9813   9.8894 C.3            1 <1>                0.0000
      2 N2          -2.3303 -11.0873  10.3048 N.pl3          1 <1>                0.0000
      3 C3          -2.3341  -9.7203  10.2373 C.2            1 <1>                0.0000
      4 C4          -1.1478  -9.3031  10.7191 C.2            1 <1>                0.0000
      5 N5          -0.4390 -10.3859  11.0713 N.2            1 <1>                0.0000
      6 C6          -1.1433 -11.4581  10.8314 C.2            1 <1>                0.0000
      7 C7          -0.7012 -12.8755  11.0896 C.3            1 <1>                0.0000
      8 C8          -0.4553 -13.5840   9.7560 C.3            1 <1>                0.0000
      9 C9           0.3140 -12.6517   8.8158 C.3            1 <1>                0.0000
     10 C10          0.6230 -13.3969   7.5141 C.3            1 <1>                0.0000
     11 C11          1.4065 -14.6713   7.8362 C.3            1 <1>                0.0000
     12 N12          0.6074 -15.5319   8.7166 N.4            1 <1>                1.0000
     13 C13          0.3681 -14.8514   9.9950 C.3            1 <1>                0.0000
     14 H14         -3.2826 -12.2490   8.8410 H              1 <1>                0.0000
     15 H15         -3.3948 -12.8840  10.5000 H              1 <1>                0.0000
     16 H16         -4.3713 -11.4760  10.0180 H              1 <1>                0.0000
     17 H17         -3.1344  -9.0962   9.8680 H              1 <1>                0.0000
     18 H18         -0.8239  -8.2765  10.8066 H              1 <1>                0.0000
     19 H19          0.2198 -12.8683  11.6724 H              1 <1>                0.0000
     20 H20         -1.4777 -13.4029  11.6436 H              1 <1>                0.0000
     21 H21         -1.4108 -13.8497   9.3036 H              1 <1>                0.0000
     22 H22         -0.2925 -11.7727   8.5974 H              1 <1>                0.0000
     23 H23          1.2461 -12.3441   9.2899 H              1 <1>                0.0000
     24 H24         -0.3096 -13.6594   7.0148 H              1 <1>                0.0000
     25 H25          1.2188 -12.7584   6.8618 H              1 <1>                0.0000
     26 H26          1.6283 -15.2042   6.9115 H              1 <1>                0.0000
     27 H27          2.3390 -14.4076   8.3352 H              1 <1>                0.0000
     28 H28          1.3227 -14.5839  10.4480 H              1 <1>                0.0000
     29 H29         -0.1768 -15.5174  10.6641 H              1 <1>                0.0000
     30 H30         -0.2764 -15.7355   8.2745 H              1 <1>                0.0000
     31 H31          1.1041 -16.3942   8.8836 H              1 <1>                0.0000
@<TRIPOS>BOND
    1    1    2 1     
    2    1   14 1     
    3    1   15 1     
    4    1   16 1     
    5    2    3 1     
    6    2    6 1     
    7    3    4 2     
    8    3   17 1     
    9    4    5 1     
   10    4   18 1     
   11    5    6 2     
   12    6    7 1     
   13    7    8 1     
   14    7   19 1     
   15    7   20 1     
   16    8    9 1     
   17    8   13 1     
   18    8   21 1     
   19    9   10 1     
   20    9   22 1     
   21    9   23 1     
   22   10   11 1     
   23   10   24 1     
   24   10   25 1     
   25   11   12 1     
   26   11   26 1     
   27   11   27 1     
   28   12   13 1     
   29   12   30 1     
   30   12   31 1     
   31   13   28 1     
   32   13   29 1     
@<TRIPOS>SUBSTRUCTURE
      1 ****           1
@<TRIPOS>SET
DONOR_HYDROGENS      STATIC     ATOMS    <user>   **** ""
2 30 31
ATOM$RED        STATIC     ATOMS    COLORGROUP SYSTEM
2 30 31
@<TRIPOS>COMMENT
> <Gold.Version>
2022.2.0

> <Gold.Id.Protein>
3pbl|protein|mol2

> <Gold.Protein.RotatedTorsions>
[ 1303 1298 1297 1294 ] final -148.69 input  179.99 | X-H torsion
[ 2461 2456 2455 2452 ] final  158.13 input   30.03 | X-H torsion
[ 2515 2510 2509 2506 ] final  114.83 input  -89.99 | X-H torsion
[ 3721 3712 3711 3710 ] final   -4.72 input -179.91 | X-H torsion
[ 3841 3832 3831 3830 ] final -132.26 input -179.91 | X-H torsion
[ 3767 3762 3761 3758 ] final -129.22 input  -89.99 | X-H torsion
[ 2472 2467 2466 2463 ] final -157.27 input  -89.97 | X-H torsion

> <Gold.Protein.ActiveResidues>
 VAL82   VAL86   LEU89   PHE106  VAL107  ASP110  VAL111  MET112  CYS114  THR115 
 CYS181  SER182  ILE183  PHE188  VAL189  ILE190  SER192  SER193  SER196  TRP342 
 PHE345  PHE346  HIS349  VAL350  TYR365  THR369  GLY372  TYR373 

> <Gold.Protein.RotatedAtoms>
    4.5952   -8.5594    4.3780 H   0  0  0  0  0  0  0  0  0  0  0  0  # atno 1303 bound_to 1298
    1.7685   -9.0593    8.3547 H   0  0  0  0  0  0  0  0  0  0  0  0  # atno 2461 bound_to 2456
   -5.0821   -5.4496    9.2727 H   0  0  0  0  0  0  0  0  0  0  0  0  # atno 2472 bound_to 2467
    2.0340   -8.0849    6.0424 H   0  0  0  0  0  0  0  0  0  0  0  0  # atno 2515 bound_to 2510
   -2.4983  -17.9270   14.3062 H   0  0  0  0  0  0  0  0  0  0  0  0  # atno 3721 bound_to 3712
   -4.7202  -22.0206   11.5807 H   0  0  0  0  0  0  0  0  0  0  0  0  # atno 3767 bound_to 3762
    2.3914  -19.6381    8.3933 H   0  0  0  0  0  0  0  0  0  0  0  0  # atno 3841 bound_to 3832
    4.4317  -10.1093    4.8651 LP  0  0  0  0  0  0  0  0  0  0  0  0  # atno 4297 bound_to 1298
    3.3352   -9.4529    3.8485 LP  0  0  0  0  0  0  0  0  0  0  0  0  # atno 4298 bound_to 1298
    1.6356   -7.9312    7.1812 LP  0  0  0  0  0  0  0  0  0  0  0  0  # atno 4299 bound_to 2456
    0.3338   -8.8178    7.6125 LP  0  0  0  0  0  0  0  0  0  0  0  0  # atno 4300 bound_to 2456
    2.5754   -7.6857    4.5547 LP  0  0  0  0  0  0  0  0  0  0  0  0  # atno 4301 bound_to 2510
    2.6875   -9.2286    5.0777 LP  0  0  0  0  0  0  0  0  0  0  0  0  # atno 4302 bound_to 2510
   -3.4673  -16.6495   14.3887 LP  0  0  0  0  0  0  0  0  0  0  0  0  # atno 4306 bound_to 3712
   -3.1761  -17.3798   12.9575 LP  0  0  0  0  0  0  0  0  0  0  0  0  # atno 4307 bound_to 3712
    2.9737  -21.0221    8.9602 LP  0  0  0  0  0  0  0  0  0  0  0  0  # atno 4314 bound_to 3832
    1.4932  -20.4982    9.4079 LP  0  0  0  0  0  0  0  0  0  0  0  0  # atno 4315 bound_to 3832
   -4.0090  -23.2512   10.7767 LP  0  0  0  0  0  0  0  0  0  0  0  0  # atno 4318 bound_to 3762
   -5.3982  -22.6030   10.2140 LP  0  0  0  0  0  0  0  0  0  0  0  0  # atno 4319 bound_to 3762
   -4.9990   -4.8879    7.7417 LP  0  0  0  0  0  0  0  0  0  0  0  0  # atno 4320 bound_to 2467
   -3.6358   -5.0562    8.6248 LP  0  0  0  0  0  0  0  0  0  0  0  0  # atno 4321 bound_to 2467

> <Gold.Score>
     Score     S(PLP)   S(hbond)     S(cho)   S(metal)  DE(clash)   DE(tors)     intcor
     52.17     -43.95       2.00       0.89       0.00       0.00       0.22       0.00

> <Gold.PLP.Fitness>
52.1712

> <Gold.PLP.PLP>
-43.9533

> <Gold.PLP.part.hbond>
-1.0000

> <Gold.PLP.part.metal>
0.0000

> <Gold.PLP.part.buried>
-2.9257

> <Gold.PLP.part.nonpolar>
-40.5412

> <Gold.PLP.part.repulsive>
0.0268

> <Gold.PLP.ligand.clash>
0.0000

> <Gold.PLP.ligand.torsion>
0.2229

> <Gold.PLP.Chemscore.Hbond>
2.0000

> <Gold.PLP.Chemscore.CHOScore>
0.8878

> <Gold.PLP.Chemscore.Metal>
0.0000

> <Gold.Chemscore.Hbonds>
donor molecule, donor type, donor heavy atom, donor atom, acceptor molecule, acceptor atom, score
      L1  H    12    31       P1  1227  2.00
      L1  C     3    17       P1  2398  0.48
      L1  C     4    18       P1  2398  0.41

> <Gold.PLP.Chemscore.Internal.Correction>
0.0004

