#       Name:                EN300-156996_i001
#       Creating user name   aseyller
#       Creation time:       Fri Apr 21 16:33:03 2023


#       File generated by GOLD software.
#

@<TRIPOS>MOLECULE
EN300-156996_i001|Sulfonylchlorides|mol2|33|dock1
    23    22     1
SMALL
USER_CHARGES


@<TRIPOS>ATOM
      1 C1          25.4993  37.1076  41.1933 C.3            1 <1>                0.0000
      2 O2          26.7557  36.3817  41.2480 O.3            1 <1>                0.0000
      3 C3          27.3611  36.1222  40.0784 C.2            1 <1>                0.0000
      4 O4          26.8064  36.3894  39.0388 O.2            1 <1>                0.0000
      5 C5          28.7325  35.4978  40.0621 C.3            1 <1>                0.0000
      6 C6          29.7582  36.5322  39.5943 C.3            1 <1>                0.0000
      7 C7          29.6811  36.6751  38.0730 C.3            1 <1>                0.0000
      8 C8          30.9589  37.3405  37.5577 C.3            1 <1>                0.0000
      9 S9          32.2472  36.0833  37.3336 S.o2           1 <1>                0.0000
     10 O10         33.4725  36.5170  37.9080 O.2            1 <1>                0.0000
     11 O11         31.7309  34.7868  37.6017 O.2            1 <1>                0.0000
     12 Cl12        32.6041  36.0761  35.3454 Cl             1 <1>                0.0000
     13 H13         24.7761  36.5385  40.6090 H              1 <1>                0.0000
     14 H14         25.1178  37.2504  42.2043 H              1 <1>                0.0000
     15 H15         25.6609  38.0787  40.7254 H              1 <1>                0.0000
     16 H16         28.9897  35.1592  41.0657 H              1 <1>                0.0000
     17 H17         28.7366  34.6478  39.3797 H              1 <1>                0.0000
     18 H18         29.5437  37.4935  40.0609 H              1 <1>                0.0000
     19 H19         30.7587  36.2057  39.8782 H              1 <1>                0.0000
     20 H20         29.5769  35.6892  37.6202 H              1 <1>                0.0000
     21 H21         28.8200  37.2890  37.8090 H              1 <1>                0.0000
     22 H22         30.7560  37.8268  36.6036 H              1 <1>                0.0000
     23 H23         31.2980  38.0836  38.2795 H              1 <1>                0.0000
@<TRIPOS>BOND
    1    1    2 1     
    2    1   13 1     
    3    1   14 1     
    4    1   15 1     
    5    2    3 1     
    6    3    4 2     
    7    3    5 1     
    8    5    6 1     
    9    5   16 1     
   10    5   17 1     
   11    6    7 1     
   12    6   18 1     
   13    6   19 1     
   14    7    8 1     
   15    7   20 1     
   16    7   21 1     
   17    8    9 1     
   18    8   22 1     
   19    8   23 1     
   20    9   10 2     
   21    9   11 2     
   22    9   12 1     
@<TRIPOS>SUBSTRUCTURE
      1 ****           1
@<TRIPOS>COMMENT
> <Gold.Version>
2022.2.0

> <Gold.Id.Protein>
1qkm|1qkm_protein|mol2

> <Gold.Protein.RotatedTorsions>
[  496  491  490  487 ] final   24.71 input  -89.99 | X-H torsion

> <Gold.Protein.ActiveResidues>
 MET295  LEU298  THR299  LEU301  ALA302  GLU305  TRP335  MET336  LEU339  MET340 
 GLY342  LEU343  ARG346  PHE356  ILE373  ILE376  PHE377  LEU380  LYS471  GLY472 
 MET473  HIS475  LEU476  LEU477  ASN478  MET479  VAL484  VAL487 

> <Gold.Protein.RotatedAtoms>
   36.3213   33.8383   42.3709 H   0  0  0  0  0  0  0  0  0  0  0  0  # atno 496  bound_to 491 

> <Gold.Score>
     Score     S(PLP)   S(hbond)     S(cho)   S(metal)  DE(clash)   DE(tors)     intcor
     33.20     -34.02       0.00       0.00       0.00       0.00       0.52       0.21

> <Gold.PLP.Fitness>
33.2010

> <Gold.PLP.PLP>
-34.0228

> <Gold.PLP.part.hbond>
0.0000

> <Gold.PLP.part.metal>
0.0000

> <Gold.PLP.part.buried>
-3.9953

> <Gold.PLP.part.nonpolar>
-30.9443

> <Gold.PLP.part.repulsive>
0.2345

> <Gold.PLP.ligand.clash>
0.0000

> <Gold.PLP.ligand.torsion>
0.5165

> <Gold.PLP.Chemscore.Hbond>
0.0000

> <Gold.PLP.Chemscore.CHOScore>
0.0000

> <Gold.PLP.Chemscore.Metal>
0.0000

> <Gold.PLP.Chemscore.Internal.Correction>
0.2111

