#       Name:                EN300-156996_i001
#       Creating user name   aseyller
#       Creation time:       Fri Apr 21 16:33:22 2023


#       File generated by GOLD software.
#

@<TRIPOS>MOLECULE
EN300-156996_i001|Sulfonylchlorides|mol2|33|dock15
    23    22     1
SMALL
USER_CHARGES


@<TRIPOS>ATOM
      1 C1          26.0761  36.7004  39.0973 C.3            1 <1>                0.0000
      2 O2          27.4876  37.0250  38.9942 O.3            1 <1>                0.0000
      3 C3          28.3312  36.3306  39.7739 C.2            1 <1>                0.0000
      4 O4          27.9014  35.5005  40.5395 O.2            1 <1>                0.0000
      5 C5          29.8141  36.5862  39.6942 C.3            1 <1>                0.0000
      6 C6          30.2999  36.3293  38.2663 C.3            1 <1>                0.0000
      7 C7          29.6772  37.3599  37.3225 C.3            1 <1>                0.0000
      8 C8          30.0322  37.0074  35.8766 C.3            1 <1>                0.0000
      9 S9          31.8322  37.0759  35.6620 S.o2           1 <1>                0.0000
     10 O10         32.4304  37.8325  36.7056 O.2            1 <1>                0.0000
     11 O11         32.3400  35.7993  35.2989 O.2            1 <1>                0.0000
     12 Cl12        32.1002  38.2070  34.0100 Cl             1 <1>                0.0000
     13 H13         25.7378  36.8707  40.1194 H              1 <1>                0.0000
     14 H14         25.5071  37.3329  38.4160 H              1 <1>                0.0000
     15 H15         25.9239  35.6537  38.8339 H              1 <1>                0.0000
     16 H16         30.0198  37.6211  39.9673 H              1 <1>                0.0000
     17 H17         30.3353  35.9189  40.3808 H              1 <1>                0.0000
     18 H18         31.3860  36.4140  38.2312 H              1 <1>                0.0000
     19 H19         30.0035  35.3271  37.9565 H              1 <1>                0.0000
     20 H20         28.5939  37.3544  37.4423 H              1 <1>                0.0000
     21 H21         30.0640  38.3508  37.5604 H              1 <1>                0.0000
     22 H22         29.6773  36.0020  35.6500 H              1 <1>                0.0000
     23 H23         29.5585  37.7206  35.2019 H              1 <1>                0.0000
@<TRIPOS>BOND
    1    1    2 1     
    2    1   13 1     
    3    1   14 1     
    4    1   15 1     
    5    2    3 1     
    6    3    4 2     
    7    3    5 1     
    8    5    6 1     
    9    5   16 1     
   10    5   17 1     
   11    6    7 1     
   12    6   18 1     
   13    6   19 1     
   14    7    8 1     
   15    7   20 1     
   16    7   21 1     
   17    8    9 1     
   18    8   22 1     
   19    8   23 1     
   20    9   10 2     
   21    9   11 2     
   22    9   12 1     
@<TRIPOS>SUBSTRUCTURE
      1 ****           1
@<TRIPOS>COMMENT
> <Gold.Version>
2022.2.0

> <Gold.Id.Protein>
1qkm|1qkm_protein|mol2

> <Gold.Protein.RotatedTorsions>
[  496  491  490  487 ] final  -66.82 input  -89.99 | X-H torsion

> <Gold.Protein.ActiveResidues>
 MET295  LEU298  THR299  LEU301  ALA302  GLU305  TRP335  MET336  LEU339  MET340 
 GLY342  LEU343  ARG346  PHE356  ILE373  ILE376  PHE377  LEU380  LYS471  GLY472 
 MET473  HIS475  LEU476  LEU477  ASN478  MET479  VAL484  VAL487 

> <Gold.Protein.RotatedAtoms>
   36.5516   34.7355   41.3868 H   0  0  0  0  0  0  0  0  0  0  0  0  # atno 496  bound_to 491 

> <Gold.Score>
     Score     S(PLP)   S(hbond)     S(cho)   S(metal)  DE(clash)   DE(tors)     intcor
     32.48     -32.73       0.00       0.00       0.00       0.00       0.21       0.17

> <Gold.PLP.Fitness>
32.4847

> <Gold.PLP.PLP>
-32.7302

> <Gold.PLP.part.hbond>
0.0000

> <Gold.PLP.part.metal>
0.0000

> <Gold.PLP.part.buried>
-4.6199

> <Gold.PLP.part.nonpolar>
-28.5824

> <Gold.PLP.part.repulsive>
0.1917

> <Gold.PLP.ligand.clash>
0.0000

> <Gold.PLP.ligand.torsion>
0.2066

> <Gold.PLP.Chemscore.Hbond>
0.0000

> <Gold.PLP.Chemscore.CHOScore>
0.0000

> <Gold.PLP.Chemscore.Metal>
0.0000

> <Gold.PLP.Chemscore.Internal.Correction>
0.1676

