#       Name:                EN300-156996_i001
#       Creating user name   aseyller
#       Creation time:       Fri Apr 21 16:33:21 2023


#       File generated by GOLD software.
#

@<TRIPOS>MOLECULE
EN300-156996_i001|Sulfonylchlorides|mol2|33|dock14
    23    22     1
SMALL
USER_CHARGES


@<TRIPOS>ATOM
      1 C1          32.4006  38.0519  34.2597 C.3            1 <1>                0.0000
      2 O2          32.9845  36.8658  34.8601 O.3            1 <1>                0.0000
      3 C3          32.7874  36.6889  36.1761 C.2            1 <1>                0.0000
      4 O4          32.2068  37.5316  36.8186 O.2            1 <1>                0.0000
      5 C5          33.2900  35.4394  36.8519 C.3            1 <1>                0.0000
      6 C6          32.1157  34.7014  37.4979 C.3            1 <1>                0.0000
      7 C7          31.5825  35.5218  38.6740 C.3            1 <1>                0.0000
      8 C8          30.2158  34.9791  39.0965 C.3            1 <1>                0.0000
      9 S9          29.0741  36.3621  39.3698 S.o2           1 <1>                0.0000
     10 O10         29.7137  37.5996  39.0891 O.2            1 <1>                0.0000
     11 O11         27.7915  36.0628  38.8364 O.2            1 <1>                0.0000
     12 Cl12        28.7877  36.3916  41.3691 Cl             1 <1>                0.0000
     13 H13         32.8100  38.9410  34.7393 H              1 <1>                0.0000
     14 H14         32.6344  38.0730  33.1952 H              1 <1>                0.0000
     15 H15         31.3190  38.0321  34.3937 H              1 <1>                0.0000
     16 H16         33.7639  34.7924  36.1138 H              1 <1>                0.0000
     17 H17         34.0163  35.7082  37.6190 H              1 <1>                0.0000
     18 H18         31.3236  34.5641  36.7619 H              1 <1>                0.0000
     19 H19         32.4512  33.7282  37.8564 H              1 <1>                0.0000
     20 H20         32.2765  35.4502  39.5114 H              1 <1>                0.0000
     21 H21         31.4822  36.5648  38.3735 H              1 <1>                0.0000
     22 H22         29.8227  34.3333  38.3113 H              1 <1>                0.0000
     23 H23         30.3211  34.4073  40.0185 H              1 <1>                0.0000
@<TRIPOS>BOND
    1    1    2 1     
    2    1   13 1     
    3    1   14 1     
    4    1   15 1     
    5    2    3 1     
    6    3    4 2     
    7    3    5 1     
    8    5    6 1     
    9    5   16 1     
   10    5   17 1     
   11    6    7 1     
   12    6   18 1     
   13    6   19 1     
   14    7    8 1     
   15    7   20 1     
   16    7   21 1     
   17    8    9 1     
   18    8   22 1     
   19    8   23 1     
   20    9   10 2     
   21    9   11 2     
   22    9   12 1     
@<TRIPOS>SUBSTRUCTURE
      1 ****           1
@<TRIPOS>COMMENT
> <Gold.Version>
2022.2.0

> <Gold.Id.Protein>
1qkm|1qkm_protein|mol2

> <Gold.Protein.RotatedTorsions>
[  496  491  490  487 ] final  -87.42 input  -89.99 | X-H torsion

> <Gold.Protein.ActiveResidues>
 MET295  LEU298  THR299  LEU301  ALA302  GLU305  TRP335  MET336  LEU339  MET340 
 GLY342  LEU343  ARG346  PHE356  ILE373  ILE376  PHE377  LEU380  LYS471  GLY472 
 MET473  HIS475  LEU476  LEU477  ASN478  MET479  VAL484  VAL487 

> <Gold.Protein.RotatedAtoms>
   36.7336   34.6694   41.1105 H   0  0  0  0  0  0  0  0  0  0  0  0  # atno 496  bound_to 491 

> <Gold.Score>
     Score     S(PLP)   S(hbond)     S(cho)   S(metal)  DE(clash)   DE(tors)     intcor
     36.97     -37.95       0.00       0.00       0.00       0.00       0.57       0.17

> <Gold.PLP.Fitness>
36.9720

> <Gold.PLP.PLP>
-37.9497

> <Gold.PLP.part.hbond>
0.0000

> <Gold.PLP.part.metal>
0.0000

> <Gold.PLP.part.buried>
-4.4249

> <Gold.PLP.part.nonpolar>
-33.6369

> <Gold.PLP.part.repulsive>
0.1812

> <Gold.PLP.ligand.clash>
0.0000

> <Gold.PLP.ligand.torsion>
0.5726

> <Gold.PLP.Chemscore.Hbond>
0.0000

> <Gold.PLP.Chemscore.CHOScore>
0.0000

> <Gold.PLP.Chemscore.Metal>
0.0000

> <Gold.PLP.Chemscore.Internal.Correction>
0.1676

