#       Name:                EN300-156996_i001
#       Creating user name   aseyller
#       Creation time:       Fri Apr 21 16:33:10 2023


#       File generated by GOLD software.
#

@<TRIPOS>MOLECULE
EN300-156996_i001|Sulfonylchlorides|mol2|33|dock6
    23    22     1
SMALL
USER_CHARGES


@<TRIPOS>ATOM
      1 C1          32.7813  37.1519  34.8993 C.3            1 <1>                0.0000
      2 O2          32.0064  36.3828  35.8566 O.3            1 <1>                0.0000
      3 C3          32.6925  35.6416  36.7407 C.2            1 <1>                0.0000
      4 O4          33.9007  35.6527  36.7296 O.2            1 <1>                0.0000
      5 C5          31.9559  34.7958  37.7471 C.3            1 <1>                0.0000
      6 C6          31.2164  35.7034  38.7322 C.3            1 <1>                0.0000
      7 C7          30.2089  36.5678  37.9717 C.3            1 <1>                0.0000
      8 C8          29.3315  37.3261  38.9697 C.3            1 <1>                0.0000
      9 S9          28.1308  36.1846  39.7085 S.o2           1 <1>                0.0000
     10 O10         28.2317  34.8993  39.1108 O.2            1 <1>                0.0000
     11 O11         28.1031  36.3355  41.1212 O.2            1 <1>                0.0000
     12 Cl12        26.3344  36.8781  39.0981 Cl             1 <1>                0.0000
     13 H13         33.3945  36.4769  34.3022 H              1 <1>                0.0000
     14 H14         32.1062  37.7039  34.2453 H              1 <1>                0.0000
     15 H15         33.4247  37.8523  35.4317 H              1 <1>                0.0000
     16 H16         31.2379  34.1589  37.2306 H              1 <1>                0.0000
     17 H17         32.6680  34.1744  38.2901 H              1 <1>                0.0000
     18 H18         30.6902  35.0918  39.4651 H              1 <1>                0.0000
     19 H19         31.9337  36.3458  39.2430 H              1 <1>                0.0000
     20 H20         30.7429  37.2802  37.3429 H              1 <1>                0.0000
     21 H21         29.5820  35.9310  37.3475 H              1 <1>                0.0000
     22 H22         29.9578  37.7520  39.7537 H              1 <1>                0.0000
     23 H23         28.8017  38.1264  38.4530 H              1 <1>                0.0000
@<TRIPOS>BOND
    1    1    2 1     
    2    1   13 1     
    3    1   14 1     
    4    1   15 1     
    5    2    3 1     
    6    3    4 2     
    7    3    5 1     
    8    5    6 1     
    9    5   16 1     
   10    5   17 1     
   11    6    7 1     
   12    6   18 1     
   13    6   19 1     
   14    7    8 1     
   15    7   20 1     
   16    7   21 1     
   17    8    9 1     
   18    8   22 1     
   19    8   23 1     
   20    9   10 2     
   21    9   11 2     
   22    9   12 1     
@<TRIPOS>SUBSTRUCTURE
      1 ****           1
@<TRIPOS>COMMENT
> <Gold.Version>
2022.2.0

> <Gold.Id.Protein>
1qkm|1qkm_protein|mol2

> <Gold.Protein.RotatedTorsions>
[  496  491  490  487 ] final  -63.67 input  -89.99 | X-H torsion

> <Gold.Protein.ActiveResidues>
 MET295  LEU298  THR299  LEU301  ALA302  GLU305  TRP335  MET336  LEU339  MET340 
 GLY342  LEU343  ARG346  PHE356  ILE373  ILE376  PHE377  LEU380  LYS471  GLY472 
 MET473  HIS475  LEU476  LEU477  ASN478  MET479  VAL484  VAL487 

> <Gold.Protein.RotatedAtoms>
   36.5259   34.7355   41.4317 H   0  0  0  0  0  0  0  0  0  0  0  0  # atno 496  bound_to 491 

> <Gold.Score>
     Score     S(PLP)   S(hbond)     S(cho)   S(metal)  DE(clash)   DE(tors)     intcor
     34.75     -35.00       0.00       0.00       0.00       0.00       0.21       0.17

> <Gold.PLP.Fitness>
34.7492

> <Gold.PLP.PLP>
-34.9966

> <Gold.PLP.part.hbond>
0.0000

> <Gold.PLP.part.metal>
0.0000

> <Gold.PLP.part.buried>
-4.3391

> <Gold.PLP.part.nonpolar>
-31.4102

> <Gold.PLP.part.repulsive>
0.1774

> <Gold.PLP.ligand.clash>
0.0000

> <Gold.PLP.ligand.torsion>
0.2075

> <Gold.PLP.Chemscore.Hbond>
0.0000

> <Gold.PLP.Chemscore.CHOScore>
0.0000

> <Gold.PLP.Chemscore.Metal>
0.0000

> <Gold.PLP.Chemscore.Internal.Correction>
0.1676

