#       Name:                EN300-156996_i001
#       Creating user name   aseyller
#       Creation time:       Fri Apr 21 16:33:19 2023


#       File generated by GOLD software.
#

@<TRIPOS>MOLECULE
EN300-156996_i001|Sulfonylchlorides|mol2|33|dock13
    23    22     1
SMALL
USER_CHARGES


@<TRIPOS>ATOM
      1 C1          25.8069  37.2086  40.2012 C.3            1 <1>                0.0000
      2 O2          27.0082  36.6984  39.5649 O.3            1 <1>                0.0000
      3 C3          27.9935  36.2762  40.3728 C.2            1 <1>                0.0000
      4 O4          27.8864  36.3972  41.5703 O.2            1 <1>                0.0000
      5 C5          29.2331  35.6513  39.7865 C.3            1 <1>                0.0000
      6 C6          29.9823  36.6915  38.9513 C.3            1 <1>                0.0000
      7 C7          31.1336  36.0137  38.2055 C.3            1 <1>                0.0000
      8 C8          32.0473  37.0809  37.5997 C.3            1 <1>                0.0000
      9 S9          31.2692  37.7701  36.1131 S.o2           1 <1>                0.0000
     10 O10         30.1322  37.0020  35.7436 O.2            1 <1>                0.0000
     11 O11         31.2002  39.1869  36.1975 O.2            1 <1>                0.0000
     12 Cl12        32.6052  37.4235  34.6381 Cl             1 <1>                0.0000
     13 H13         26.0620  38.0656  40.8246 H              1 <1>                0.0000
     14 H14         25.0929  37.5151  39.4367 H              1 <1>                0.0000
     15 H15         25.3641  36.4282  40.8199 H              1 <1>                0.0000
     16 H16         29.8779  35.2987  40.5913 H              1 <1>                0.0000
     17 H17         28.9511  34.8109  39.1522 H              1 <1>                0.0000
     18 H18         29.2981  37.1412  38.2318 H              1 <1>                0.0000
     19 H19         30.3803  37.4658  39.6071 H              1 <1>                0.0000
     20 H20         31.7046  35.3985  38.9008 H              1 <1>                0.0000
     21 H21         30.7315  35.3857  37.4105 H              1 <1>                0.0000
     22 H22         32.2090  37.8764  38.3272 H              1 <1>                0.0000
     23 H23         33.0042  36.6316  37.3339 H              1 <1>                0.0000
@<TRIPOS>BOND
    1    1    2 1     
    2    1   13 1     
    3    1   14 1     
    4    1   15 1     
    5    2    3 1     
    6    3    4 2     
    7    3    5 1     
    8    5    6 1     
    9    5   16 1     
   10    5   17 1     
   11    6    7 1     
   12    6   18 1     
   13    6   19 1     
   14    7    8 1     
   15    7   20 1     
   16    7   21 1     
   17    8    9 1     
   18    8   22 1     
   19    8   23 1     
   20    9   10 2     
   21    9   11 2     
   22    9   12 1     
@<TRIPOS>SUBSTRUCTURE
      1 ****           1
@<TRIPOS>COMMENT
> <Gold.Version>
2022.2.0

> <Gold.Id.Protein>
1qkm|1qkm_protein|mol2

> <Gold.Protein.RotatedTorsions>
[  496  491  490  487 ] final -129.94 input  -89.99 | X-H torsion

> <Gold.Protein.ActiveResidues>
 MET295  LEU298  THR299  LEU301  ALA302  GLU305  TRP335  MET336  LEU339  MET340 
 GLY342  LEU343  ARG346  PHE356  ILE373  ILE376  PHE377  LEU380  LYS471  GLY472 
 MET473  HIS475  LEU476  LEU477  ASN478  MET479  VAL484  VAL487 

> <Gold.Protein.RotatedAtoms>
   37.1043   34.2217   40.7502 H   0  0  0  0  0  0  0  0  0  0  0  0  # atno 496  bound_to 491 

> <Gold.Score>
     Score     S(PLP)   S(hbond)     S(cho)   S(metal)  DE(clash)   DE(tors)     intcor
     34.64     -34.92       0.00       0.00       0.00       0.00       0.22       0.17

> <Gold.PLP.Fitness>
34.6403

> <Gold.PLP.PLP>
-34.9211

> <Gold.PLP.part.hbond>
0.0000

> <Gold.PLP.part.metal>
0.0000

> <Gold.PLP.part.buried>
-5.2481

> <Gold.PLP.part.nonpolar>
-30.0393

> <Gold.PLP.part.repulsive>
0.1781

> <Gold.PLP.ligand.clash>
0.0000

> <Gold.PLP.ligand.torsion>
0.2242

> <Gold.PLP.Chemscore.Hbond>
0.0000

> <Gold.PLP.Chemscore.CHOScore>
0.0000

> <Gold.PLP.Chemscore.Metal>
0.0000

> <Gold.PLP.Chemscore.Internal.Correction>
0.1676

