#       Name:                EN300-156996_i001
#       Creating user name   aseyller
#       Creation time:       Fri Apr 21 16:33:01 2023


#       File generated by GOLD software.
#

@<TRIPOS>MOLECULE
EN300-156996_i001
    23    22     1
SMALL
USER_CHARGES


@<TRIPOS>ATOM
      1 C1           4.7219   0.2025  -0.0001 C.3            1 <1>                0.0000
      2 O2           3.5053  -0.5901   0.0003 O.3            1 <1>                0.0000
      3 C3           2.3418   0.0793  -0.0000 C.2            1 <1>                0.0000
      4 O4           2.3401   1.2876  -0.0006 O.2            1 <1>                0.0000
      5 C5           1.0379  -0.6761   0.0003 C.3            1 <1>                0.0000
      6 C6          -0.1265   0.3164  -0.0001 C.3            1 <1>                0.0000
      7 C7          -1.4504  -0.4505   0.0002 C.3            1 <1>                0.0000
      8 C8          -2.6148   0.5420  -0.0003 C.3            1 <1>                0.0000
      9 S9          -4.1844  -0.3673   0.0002 S.o2           1 <1>                0.0000
     10 O10         -4.3701  -1.0422  -1.2365 O.2            1 <1>                0.0000
     11 O11         -4.3701  -1.0410   1.2375 O.2            1 <1>                0.0000
     12 Cl12        -5.6011   1.0726  -0.0005 Cl             1 <1>                0.0000
     13 H13          4.7458   0.8318   0.8896 H              1 <1>                0.0000
     14 H14          5.5873  -0.4602   0.0002 H              1 <1>                0.0000
     15 H15          4.7458   0.8309  -0.8904 H              1 <1>                0.0000
     16 H16          0.9810  -1.3033  -0.8893 H              1 <1>                0.0000
     17 H17          0.9810  -1.3024   0.8906 H              1 <1>                0.0000
     18 H18         -0.0697   0.9436   0.8895 H              1 <1>                0.0000
     19 H19         -0.0697   0.9427  -0.8904 H              1 <1>                0.0000
     20 H20         -1.5072  -1.0777  -0.8894 H              1 <1>                0.0000
     21 H21         -1.5072  -1.0768   0.8905 H              1 <1>                0.0000
     22 H22         -2.5580   1.1692   0.8894 H              1 <1>                0.0000
     23 H23         -2.5580   1.1683  -0.8906 H              1 <1>                0.0000
@<TRIPOS>BOND
    1    1    2 1     
    2    1   13 1     
    3    1   14 1     
    4    1   15 1     
    5    2    3 1     
    6    3    4 2     
    7    3    5 1     
    8    5    6 1     
    9    5   16 1     
   10    5   17 1     
   11    6    7 1     
   12    6   18 1     
   13    6   19 1     
   14    7    8 1     
   15    7   20 1     
   16    7   21 1     
   17    8    9 1     
   18    8   22 1     
   19    8   23 1     
   20    9   10 2     
   21    9   11 2     
   22    9   12 1     
@<TRIPOS>SUBSTRUCTURE
      1 ****           1
