#       Name:                EN300-156996_i001
#       Creating user name   aseyller
#       Creation time:       Fri Apr 21 16:33:07 2023


#       File generated by GOLD software.
#

@<TRIPOS>MOLECULE
EN300-156996_i001|Sulfonylchlorides|mol2|33|dock4
    23    22     1
SMALL
USER_CHARGES


@<TRIPOS>ATOM
      1 C1          33.1479  36.4828  35.3371 C.3            1 <1>                0.0000
      2 O2          33.0391  35.6629  36.5306 O.3            1 <1>                0.0000
      3 C3          31.8891  35.7381  37.2189 C.2            1 <1>                0.0000
      4 O4          30.9919  36.4427  36.8209 O.2            1 <1>                0.0000
      5 C5          31.7171  34.9436  38.4877 C.3            1 <1>                0.0000
      6 C6          30.2992  35.1438  39.0266 C.3            1 <1>                0.0000
      7 C7          30.1057  36.6092  39.4214 C.3            1 <1>                0.0000
      8 C8          28.8013  36.7578  40.2071 C.3            1 <1>                0.0000
      9 S9          27.3932  36.6331  39.0704 S.o2           1 <1>                0.0000
     10 O10         27.5190  37.5767  38.0153 O.2            1 <1>                0.0000
     11 O11         27.0873  35.2715  38.8028 O.2            1 <1>                0.0000
     12 Cl12        25.8170  37.2957  40.1459 Cl             1 <1>                0.0000
     13 H13         33.0357  37.5330  35.6064 H              1 <1>                0.0000
     14 H14         34.1240  36.3277  34.8775 H              1 <1>                0.0000
     15 H15         32.3655  36.2029  34.6316 H              1 <1>                0.0000
     16 H16         31.8808  33.8863  38.2796 H              1 <1>                0.0000
     17 H17         32.4392  35.2837  39.2301 H              1 <1>                0.0000
     18 H18         29.5764  34.8767  38.2557 H              1 <1>                0.0000
     19 H19         30.1496  34.5094  39.9002 H              1 <1>                0.0000
     20 H20         30.9421  36.9319  40.0413 H              1 <1>                0.0000
     21 H21         30.0608  37.2246  38.5229 H              1 <1>                0.0000
     22 H22         28.7356  35.9676  40.9550 H              1 <1>                0.0000
     23 H23         28.7839  37.7289  40.7020 H              1 <1>                0.0000
@<TRIPOS>BOND
    1    1    2 1     
    2    1   13 1     
    3    1   14 1     
    4    1   15 1     
    5    2    3 1     
    6    3    4 2     
    7    3    5 1     
    8    5    6 1     
    9    5   16 1     
   10    5   17 1     
   11    6    7 1     
   12    6   18 1     
   13    6   19 1     
   14    7    8 1     
   15    7   20 1     
   16    7   21 1     
   17    8    9 1     
   18    8   22 1     
   19    8   23 1     
   20    9   10 2     
   21    9   11 2     
   22    9   12 1     
@<TRIPOS>SUBSTRUCTURE
      1 ****           1
@<TRIPOS>COMMENT
> <Gold.Version>
2022.2.0

> <Gold.Id.Protein>
1qkm|1qkm_protein|mol2

> <Gold.Protein.RotatedTorsions>
[  496  491  490  487 ] final  178.32 input  -89.99 | X-H torsion

> <Gold.Protein.ActiveResidues>
 MET295  LEU298  THR299  LEU301  ALA302  GLU305  TRP335  MET336  LEU339  MET340 
 GLY342  LEU343  ARG346  PHE356  ILE373  ILE376  PHE377  LEU380  LYS471  GLY472 
 MET473  HIS475  LEU476  LEU477  ASN478  MET479  VAL484  VAL487 

> <Gold.Protein.RotatedAtoms>
   37.3186   33.4379   40.8816 H   0  0  0  0  0  0  0  0  0  0  0  0  # atno 496  bound_to 491 

> <Gold.Score>
     Score     S(PLP)   S(hbond)     S(cho)   S(metal)  DE(clash)   DE(tors)     intcor
     34.81     -35.34       0.00       0.00       0.00       0.00       0.35       0.17

> <Gold.PLP.Fitness>
34.8121

> <Gold.PLP.PLP>
-35.3431

> <Gold.PLP.part.hbond>
0.0000

> <Gold.PLP.part.metal>
0.0000

> <Gold.PLP.part.buried>
-4.4170

> <Gold.PLP.part.nonpolar>
-31.7518

> <Gold.PLP.part.repulsive>
0.0420

> <Gold.PLP.ligand.clash>
0.0000

> <Gold.PLP.ligand.torsion>
0.3493

> <Gold.PLP.Chemscore.Hbond>
0.0000

> <Gold.PLP.Chemscore.CHOScore>
0.0000

> <Gold.PLP.Chemscore.Metal>
0.0000

> <Gold.PLP.Chemscore.Internal.Correction>
0.1676

