#       Name:                EN300-156996_i001
#       Creating user name   aseyller
#       Creation time:       Fri Apr 21 16:33:13 2023


#       File generated by GOLD software.
#

@<TRIPOS>MOLECULE
EN300-156996_i001|Sulfonylchlorides|mol2|33|dock8
    23    22     1
SMALL
USER_CHARGES


@<TRIPOS>ATOM
      1 C1          28.0934  35.5008  41.1862 C.3            1 <1>                0.0000
      2 O2          28.2164  36.3269  39.9985 O.3            1 <1>                0.0000
      3 C3          27.0766  36.7480  39.4282 C.2            1 <1>                0.0000
      4 O4          26.0111  36.4296  39.9009 O.2            1 <1>                0.0000
      5 C5          27.1258  37.6179  38.1987 C.3            1 <1>                0.0000
      6 C6          28.5841  37.8741  37.8132 C.3            1 <1>                0.0000
      7 C7          28.6632  39.1027  36.9048 C.3            1 <1>                0.0000
      8 C8          30.1297  39.4299  36.6160 C.3            1 <1>                0.0000
      9 S9          30.9783  37.9374  36.0305 S.o2           1 <1>                0.0000
     10 O10         32.0673  37.6154  36.8848 O.2            1 <1>                0.0000
     11 O11         30.0356  36.9482  35.6407 O.2            1 <1>                0.0000
     12 Cl12        31.8531  38.5014  34.2994 Cl             1 <1>                0.0000
     13 H13         27.5357  34.5962  40.9434 H              1 <1>                0.0000
     14 H14         29.0864  35.2302  41.5451 H              1 <1>                0.0000
     15 H15         27.5655  36.0558  41.9617 H              1 <1>                0.0000
     16 H16         26.6158  37.1151  37.3771 H              1 <1>                0.0000
     17 H17         26.6325  38.5676  38.4055 H              1 <1>                0.0000
     18 H18         29.1725  38.0496  38.7138 H              1 <1>                0.0000
     19 H19         28.9782  37.0059  37.2852 H              1 <1>                0.0000
     20 H20         28.1458  38.8958  35.9680 H              1 <1>                0.0000
     21 H21         28.1922  39.9517  37.4001 H              1 <1>                0.0000
     22 H22         30.1853  40.2036  35.8502 H              1 <1>                0.0000
     23 H23         30.6088  39.7862  37.5280 H              1 <1>                0.0000
@<TRIPOS>BOND
    1    1    2 1     
    2    1   13 1     
    3    1   14 1     
    4    1   15 1     
    5    2    3 1     
    6    3    4 2     
    7    3    5 1     
    8    5    6 1     
    9    5   16 1     
   10    5   17 1     
   11    6    7 1     
   12    6   18 1     
   13    6   19 1     
   14    7    8 1     
   15    7   20 1     
   16    7   21 1     
   17    8    9 1     
   18    8   22 1     
   19    8   23 1     
   20    9   10 2     
   21    9   11 2     
   22    9   12 1     
@<TRIPOS>SUBSTRUCTURE
      1 ****           1
@<TRIPOS>COMMENT
> <Gold.Version>
2022.2.0

> <Gold.Id.Protein>
1qkm|1qkm_protein|mol2

> <Gold.Protein.RotatedTorsions>
[  496  491  490  487 ] final   73.21 input  -89.99 | X-H torsion

> <Gold.Protein.ActiveResidues>
 MET295  LEU298  THR299  LEU301  ALA302  GLU305  TRP335  MET336  LEU339  MET340 
 GLY342  LEU343  ARG346  PHE356  ILE373  ILE376  PHE377  LEU380  LYS471  GLY472 
 MET473  HIS475  LEU476  LEU477  ASN478  MET479  VAL484  VAL487 

> <Gold.Protein.RotatedAtoms>
   36.6661   33.1653   42.2017 H   0  0  0  0  0  0  0  0  0  0  0  0  # atno 496  bound_to 491 

> <Gold.Score>
     Score     S(PLP)   S(hbond)     S(cho)   S(metal)  DE(clash)   DE(tors)     intcor
     34.49     -34.81       0.00       0.00       0.00       0.00       0.24       0.17

> <Gold.PLP.Fitness>
34.4934

> <Gold.PLP.PLP>
-34.8085

> <Gold.PLP.part.hbond>
0.0000

> <Gold.PLP.part.metal>
0.0000

> <Gold.PLP.part.buried>
-4.1473

> <Gold.PLP.part.nonpolar>
-30.9031

> <Gold.PLP.part.repulsive>
0.1863

> <Gold.PLP.ligand.clash>
0.0000

> <Gold.PLP.ligand.torsion>
0.2413

> <Gold.PLP.Chemscore.Hbond>
0.0000

> <Gold.PLP.Chemscore.CHOScore>
0.0000

> <Gold.PLP.Chemscore.Metal>
0.0000

> <Gold.PLP.Chemscore.Internal.Correction>
0.1676

