#       Name:                EN300-156996_i001
#       Creating user name   aseyller
#       Creation time:       Fri Apr 21 16:33:08 2023


#       File generated by GOLD software.
#

@<TRIPOS>MOLECULE
EN300-156996_i001|Sulfonylchlorides|mol2|33|dock5
    23    22     1
SMALL
USER_CHARGES


@<TRIPOS>ATOM
      1 C1          30.7422  37.8377  35.0057 C.3            1 <1>                0.0000
      2 O2          31.3002  36.7772  35.8257 O.3            1 <1>                0.0000
      3 C3          32.6247  36.5758  35.7432 C.2            1 <1>                0.0000
      4 O4          33.2944  37.2574  35.0038 O.2            1 <1>                0.0000
      5 C5          33.2763  35.4997  36.5727 C.3            1 <1>                0.0000
      6 C6          32.2087  34.7679  37.3885 C.3            1 <1>                0.0000
      7 C7          31.6463  35.7103  38.4546 C.3            1 <1>                0.0000
      8 C8          30.4303  35.0615  39.1188 C.3            1 <1>                0.0000
      9 S9          29.1240  36.3019  39.3318 S.o2           1 <1>                0.0000
     10 O10         29.6116  37.5989  39.0166 O.2            1 <1>                0.0000
     11 O11         27.8960  35.8303  38.7942 O.2            1 <1>                0.0000
     12 Cl12        28.8049  36.3606  41.3256 Cl             1 <1>                0.0000
     13 H13         30.9416  37.6275  33.9549 H              1 <1>                0.0000
     14 H14         29.6657  37.8937  35.1672 H              1 <1>                0.0000
     15 H15         31.2006  38.7880  35.2795 H              1 <1>                0.0000
     16 H16         33.7815  34.7909  35.9167 H              1 <1>                0.0000
     17 H17         34.0031  35.9514  37.2479 H              1 <1>                0.0000
     18 H18         31.4041  34.4453  36.7278 H              1 <1>                0.0000
     19 H19         32.6534  33.8976  37.8712 H              1 <1>                0.0000
     20 H20         32.4105  35.9052  39.2069 H              1 <1>                0.0000
     21 H21         31.3478  36.6493  37.9883 H              1 <1>                0.0000
     22 H22         30.0624  34.2506  38.4901 H              1 <1>                0.0000
     23 H23         30.7169  34.6647  40.0927 H              1 <1>                0.0000
@<TRIPOS>BOND
    1    1    2 1     
    2    1   13 1     
    3    1   14 1     
    4    1   15 1     
    5    2    3 1     
    6    3    4 2     
    7    3    5 1     
    8    5    6 1     
    9    5   16 1     
   10    5   17 1     
   11    6    7 1     
   12    6   18 1     
   13    6   19 1     
   14    7    8 1     
   15    7   20 1     
   16    7   21 1     
   17    8    9 1     
   18    8   22 1     
   19    8   23 1     
   20    9   10 2     
   21    9   11 2     
   22    9   12 1     
@<TRIPOS>SUBSTRUCTURE
      1 ****           1
@<TRIPOS>COMMENT
> <Gold.Version>
2022.2.0

> <Gold.Id.Protein>
1qkm|1qkm_protein|mol2

> <Gold.Protein.RotatedTorsions>
[  496  491  490  487 ] final -164.60 input  -89.99 | X-H torsion

> <Gold.Protein.ActiveResidues>
 MET295  LEU298  THR299  LEU301  ALA302  GLU305  TRP335  MET336  LEU339  MET340 
 GLY342  LEU343  ARG346  PHE356  ILE373  ILE376  PHE377  LEU380  LYS471  GLY472 
 MET473  HIS475  LEU476  LEU477  ASN478  MET479  VAL484  VAL487 

> <Gold.Protein.RotatedAtoms>
   37.2905   33.6918   40.7665 H   0  0  0  0  0  0  0  0  0  0  0  0  # atno 496  bound_to 491 

> <Gold.Score>
     Score     S(PLP)   S(hbond)     S(cho)   S(metal)  DE(clash)   DE(tors)     intcor
     35.26     -35.91       0.00       0.00       0.00       0.00       0.41       0.17

> <Gold.PLP.Fitness>
35.2647

> <Gold.PLP.PLP>
-35.9145

> <Gold.PLP.part.hbond>
0.0000

> <Gold.PLP.part.metal>
0.0000

> <Gold.PLP.part.buried>
-3.7226

> <Gold.PLP.part.nonpolar>
-32.3704

> <Gold.PLP.part.repulsive>
0.2083

> <Gold.PLP.ligand.clash>
0.0000

> <Gold.PLP.ligand.torsion>
0.4087

> <Gold.PLP.Chemscore.Hbond>
0.0000

> <Gold.PLP.Chemscore.CHOScore>
0.0000

> <Gold.PLP.Chemscore.Metal>
0.0000

> <Gold.PLP.Chemscore.Internal.Correction>
0.1676

