#       Name:                EN300-156996_i001
#       Creating user name   aseyller
#       Creation time:       Fri Apr 21 16:33:30 2023


#       File generated by GOLD software.
#

@<TRIPOS>MOLECULE
EN300-156996_i001|Sulfonylchlorides|mol2|33|dock20
    23    22     1
SMALL
USER_CHARGES


@<TRIPOS>ATOM
      1 C1          25.7479  37.2998  41.7937 C.3            1 <1>                0.0000
      2 O2          25.8302  37.1789  40.3490 O.3            1 <1>                0.0000
      3 C3          26.9457  36.6269  39.8462 C.2            1 <1>                0.0000
      4 O4          27.8587  36.3334  40.5812 O.2            1 <1>                0.0000
      5 C5          27.0592  36.3733  38.3651 C.3            1 <1>                0.0000
      6 C6          28.2518  37.1507  37.8045 C.3            1 <1>                0.0000
      7 C7          29.5458  36.3990  38.1227 C.3            1 <1>                0.0000
      8 C8          30.7311  37.1358  37.4958 C.3            1 <1>                0.0000
      9 S9          32.0907  35.9676  37.2176 S.o2           1 <1>                0.0000
     10 O10         32.1410  35.5770  35.8522 O.2            1 <1>                0.0000
     11 O11         33.2614  36.3929  37.9015 O.2            1 <1>                0.0000
     12 Cl12        31.5240  34.2928  38.1943 Cl             1 <1>                0.0000
     13 H13         26.5693  37.9193  42.1537 H              1 <1>                0.0000
     14 H14         24.7985  37.7607  42.0662 H              1 <1>                0.0000
     15 H15         25.8142  36.3100  42.2454 H              1 <1>                0.0000
     16 H16         27.2050  35.3076  38.1890 H              1 <1>                0.0000
     17 H17         26.1459  36.7019  37.8691 H              1 <1>                0.0000
     18 H18         28.1455  37.2500  36.7243 H              1 <1>                0.0000
     19 H19         28.2858  38.1410  38.2587 H              1 <1>                0.0000
     20 H20         29.6800  36.3479  39.2032 H              1 <1>                0.0000
     21 H21         29.4890  35.3895  37.7155 H              1 <1>                0.0000
     22 H22         30.4260  37.5715  36.5443 H              1 <1>                0.0000
     23 H23         31.0636  37.9271  38.1677 H              1 <1>                0.0000
@<TRIPOS>BOND
    1    1    2 1     
    2    1   13 1     
    3    1   14 1     
    4    1   15 1     
    5    2    3 1     
    6    3    4 2     
    7    3    5 1     
    8    5    6 1     
    9    5   16 1     
   10    5   17 1     
   11    6    7 1     
   12    6   18 1     
   13    6   19 1     
   14    7    8 1     
   15    7   20 1     
   16    7   21 1     
   17    8    9 1     
   18    8   22 1     
   19    8   23 1     
   20    9   10 2     
   21    9   11 2     
   22    9   12 1     
@<TRIPOS>SUBSTRUCTURE
      1 ****           1
@<TRIPOS>COMMENT
> <Gold.Version>
2022.2.0

> <Gold.Id.Protein>
1qkm|1qkm_protein|mol2

> <Gold.Protein.RotatedTorsions>
[  496  491  490  487 ] final  -36.23 input  -89.99 | X-H torsion

> <Gold.Protein.ActiveResidues>
 MET295  LEU298  THR299  LEU301  ALA302  GLU305  TRP335  MET336  LEU339  MET340 
 GLY342  LEU343  ARG346  PHE356  ILE373  ILE376  PHE377  LEU380  LYS471  GLY472 
 MET473  HIS475  LEU476  LEU477  ASN478  MET479  VAL484  VAL487 

> <Gold.Protein.RotatedAtoms>
   36.3434   34.6230   41.8244 H   0  0  0  0  0  0  0  0  0  0  0  0  # atno 496  bound_to 491 

> <Gold.Score>
     Score     S(PLP)   S(hbond)     S(cho)   S(metal)  DE(clash)   DE(tors)     intcor
     33.04     -33.74       0.00       0.00       0.00       0.00       0.43       0.17

> <Gold.PLP.Fitness>
33.0418

> <Gold.PLP.PLP>
-33.7355

> <Gold.PLP.part.hbond>
0.0000

> <Gold.PLP.part.metal>
0.0000

> <Gold.PLP.part.buried>
-3.1042

> <Gold.PLP.part.nonpolar>
-30.8859

> <Gold.PLP.part.repulsive>
0.2833

> <Gold.PLP.ligand.clash>
0.0000

> <Gold.PLP.ligand.torsion>
0.4306

> <Gold.PLP.Chemscore.Hbond>
0.0000

> <Gold.PLP.Chemscore.CHOScore>
0.0000

> <Gold.PLP.Chemscore.Metal>
0.0000

> <Gold.PLP.Chemscore.Internal.Correction>
0.1676

