#       Name:                EN300-156996_i001
#       Creating user name   aseyller
#       Creation time:       Fri Apr 21 16:33:27 2023


#       File generated by GOLD software.
#

@<TRIPOS>MOLECULE
EN300-156996_i001|Sulfonylchlorides|mol2|33|dock18
    23    22     1
SMALL
USER_CHARGES


@<TRIPOS>ATOM
      1 C1          25.8544  37.0012  41.2868 C.3            1 <1>                0.0000
      2 O2          26.9950  36.8690  40.3980 O.3            1 <1>                0.0000
      3 C3          28.1467  36.4466  40.9431 C.2            1 <1>                0.0000
      4 O4          28.1743  36.0928  42.0981 O.2            1 <1>                0.0000
      5 C5          29.4049  36.4135  40.1146 C.3            1 <1>                0.0000
      6 C6          29.1262  37.0233  38.7393 C.3            1 <1>                0.0000
      7 C7          30.3899  36.9437  37.8804 C.3            1 <1>                0.0000
      8 C8          30.1135  37.5611  36.5081 C.3            1 <1>                0.0000
      9 S9          31.6767  37.7637  35.6103 S.o2           1 <1>                0.0000
     10 O10         31.4320  38.1288  34.2590 O.2            1 <1>                0.0000
     11 O11         32.6181  38.4749  36.4023 O.2            1 <1>                0.0000
     12 Cl12        32.4358  35.8955  35.4920 Cl             1 <1>                0.0000
     13 H13         26.0875  37.7199  42.0725 H              1 <1>                0.0000
     14 H14         24.9908  37.3495  40.7203 H              1 <1>                0.0000
     15 H15         25.6288  36.0335  41.7347 H              1 <1>                0.0000
     16 H16         30.1849  36.9872  40.6151 H              1 <1>                0.0000
     17 H17         29.7337  35.3812  39.9942 H              1 <1>                0.0000
     18 H18         28.3213  36.4718  38.2536 H              1 <1>                0.0000
     19 H19         28.8323  38.0663  38.8573 H              1 <1>                0.0000
     20 H20         31.1963  37.4904  38.3690 H              1 <1>                0.0000
     21 H21         30.6805  35.9004  37.7576 H              1 <1>                0.0000
     22 H22         29.4515  36.9061  35.9416 H              1 <1>                0.0000
     23 H23         29.6394  38.5341  36.6362 H              1 <1>                0.0000
@<TRIPOS>BOND
    1    1    2 1     
    2    1   13 1     
    3    1   14 1     
    4    1   15 1     
    5    2    3 1     
    6    3    4 2     
    7    3    5 1     
    8    5    6 1     
    9    5   16 1     
   10    5   17 1     
   11    6    7 1     
   12    6   18 1     
   13    6   19 1     
   14    7    8 1     
   15    7   20 1     
   16    7   21 1     
   17    8    9 1     
   18    8   22 1     
   19    8   23 1     
   20    9   10 2     
   21    9   11 2     
   22    9   12 1     
@<TRIPOS>SUBSTRUCTURE
      1 ****           1
@<TRIPOS>COMMENT
> <Gold.Version>
2022.2.0

> <Gold.Id.Protein>
1qkm|1qkm_protein|mol2

> <Gold.Protein.RotatedTorsions>
[  496  491  490  487 ] final -122.29 input  -89.99 | X-H torsion

> <Gold.Protein.ActiveResidues>
 MET295  LEU298  THR299  LEU301  ALA302  GLU305  TRP335  MET336  LEU339  MET340 
 GLY342  LEU343  ARG346  PHE356  ILE373  ILE376  PHE377  LEU380  LYS471  GLY472 
 MET473  HIS475  LEU476  LEU477  ASN478  MET479  VAL484  VAL487 

> <Gold.Protein.RotatedAtoms>
   37.0448   34.3264   40.7868 H   0  0  0  0  0  0  0  0  0  0  0  0  # atno 496  bound_to 491 

> <Gold.Score>
     Score     S(PLP)   S(hbond)     S(cho)   S(metal)  DE(clash)   DE(tors)     intcor
     33.31     -33.47       0.00       0.00       0.00       0.00       0.16       0.17

> <Gold.PLP.Fitness>
33.3135

> <Gold.PLP.PLP>
-33.4691

> <Gold.PLP.part.hbond>
0.0000

> <Gold.PLP.part.metal>
0.0000

> <Gold.PLP.part.buried>
-3.1650

> <Gold.PLP.part.nonpolar>
-30.5586

> <Gold.PLP.part.repulsive>
0.5539

> <Gold.PLP.ligand.clash>
0.0000

> <Gold.PLP.ligand.torsion>
0.1616

> <Gold.PLP.Chemscore.Hbond>
0.0000

> <Gold.PLP.Chemscore.CHOScore>
0.0000

> <Gold.PLP.Chemscore.Metal>
0.0000

> <Gold.PLP.Chemscore.Internal.Correction>
0.1676

