#       Name:                EN300-156996_i001
#       Creating user name   aseyller
#       Creation time:       Fri Apr 21 16:33:15 2023


#       File generated by GOLD software.
#

@<TRIPOS>MOLECULE
EN300-156996_i001|Sulfonylchlorides|mol2|33|dock10
    23    22     1
SMALL
USER_CHARGES


@<TRIPOS>ATOM
      1 C1          25.5815  37.0030  41.3287 C.3            1 <1>                0.0000
      2 O2          25.8053  37.4217  39.9565 O.3            1 <1>                0.0000
      3 C3          26.7825  36.7974  39.2805 C.2            1 <1>                0.0000
      4 O4          27.3630  35.8640  39.7823 O.2            1 <1>                0.0000
      5 C5          27.1555  37.2604  37.8958 C.3            1 <1>                0.0000
      6 C6          28.6059  37.7473  37.8943 C.3            1 <1>                0.0000
      7 C7          29.5413  36.5645  38.1527 C.3            1 <1>                0.0000
      8 C8          30.9903  37.0017  37.9289 C.3            1 <1>                0.0000
      9 S9          31.1883  37.5889  36.2240 S.o2           1 <1>                0.0000
     10 O10         30.1622  37.0632  35.3932 O.2            1 <1>                0.0000
     11 O11         31.5069  38.9736  36.2073 O.2            1 <1>                0.0000
     12 Cl12        32.8712  36.6825  35.5709 Cl             1 <1>                0.0000
     13 H13         26.4892  37.1642  41.9104 H              1 <1>                0.0000
     14 H14         24.7665  37.5857  41.7581 H              1 <1>                0.0000
     15 H15         25.3208  35.9448  41.3478 H              1 <1>                0.0000
     16 H16         27.0494  36.4325  37.1949 H              1 <1>                0.0000
     17 H17         26.4980  38.0766  37.5963 H              1 <1>                0.0000
     18 H18         28.8394  38.1905  36.9263 H              1 <1>                0.0000
     19 H19         28.7394  38.4938  38.6773 H              1 <1>                0.0000
     20 H20         29.4196  36.2227  39.1805 H              1 <1>                0.0000
     21 H21         29.2971  35.7520  37.4684 H              1 <1>                0.0000
     22 H22         31.2382  37.8062  38.6213 H              1 <1>                0.0000
     23 H23         31.6558  36.1558  38.1014 H              1 <1>                0.0000
@<TRIPOS>BOND
    1    1    2 1     
    2    1   13 1     
    3    1   14 1     
    4    1   15 1     
    5    2    3 1     
    6    3    4 2     
    7    3    5 1     
    8    5    6 1     
    9    5   16 1     
   10    5   17 1     
   11    6    7 1     
   12    6   18 1     
   13    6   19 1     
   14    7    8 1     
   15    7   20 1     
   16    7   21 1     
   17    8    9 1     
   18    8   22 1     
   19    8   23 1     
   20    9   10 2     
   21    9   11 2     
   22    9   12 1     
@<TRIPOS>SUBSTRUCTURE
      1 ****           1
@<TRIPOS>COMMENT
> <Gold.Version>
2022.2.0

> <Gold.Id.Protein>
1qkm|1qkm_protein|mol2

> <Gold.Protein.RotatedTorsions>
[  496  491  490  487 ] final    5.63 input  -89.99 | X-H torsion

> <Gold.Protein.ActiveResidues>
 MET295  LEU298  THR299  LEU301  ALA302  GLU305  TRP335  MET336  LEU339  MET340 
 GLY342  LEU343  ARG346  PHE356  ILE373  ILE376  PHE377  LEU380  LYS471  GLY472 
 MET473  HIS475  LEU476  LEU477  ASN478  MET479  VAL484  VAL487 

> <Gold.Protein.RotatedAtoms>
   36.2654   34.1318   42.2791 H   0  0  0  0  0  0  0  0  0  0  0  0  # atno 496  bound_to 491 

> <Gold.Score>
     Score     S(PLP)   S(hbond)     S(cho)   S(metal)  DE(clash)   DE(tors)     intcor
     33.89     -34.35       0.00       0.00       0.00       0.00       0.31       0.17

> <Gold.PLP.Fitness>
33.8936

> <Gold.PLP.PLP>
-34.3466

> <Gold.PLP.part.hbond>
0.0000

> <Gold.PLP.part.metal>
0.0000

> <Gold.PLP.part.buried>
-4.3466

> <Gold.PLP.part.nonpolar>
-30.8531

> <Gold.PLP.part.repulsive>
0.1551

> <Gold.PLP.ligand.clash>
0.0000

> <Gold.PLP.ligand.torsion>
0.3103

> <Gold.PLP.Chemscore.Hbond>
0.0000

> <Gold.PLP.Chemscore.CHOScore>
0.0000

> <Gold.PLP.Chemscore.Metal>
0.0000

> <Gold.PLP.Chemscore.Internal.Correction>
0.1676

