#       Name:                EN300-156996_i001
#       Creating user name   aseyller
#       Creation time:       Fri Apr 21 16:33:18 2023


#       File generated by GOLD software.
#

@<TRIPOS>MOLECULE
EN300-156996_i001|Sulfonylchlorides|mol2|33|dock12
    23    22     1
SMALL
USER_CHARGES


@<TRIPOS>ATOM
      1 C1          25.5087  37.0087  41.1949 C.3            1 <1>                0.0000
      2 O2          25.7984  37.4859  39.8545 O.3            1 <1>                0.0000
      3 C3          26.8881  36.9852  39.2515 C.2            1 <1>                0.0000
      4 O4          27.5636  36.1571  39.8153 O.2            1 <1>                0.0000
      5 C5          27.2689  37.4559  37.8716 C.3            1 <1>                0.0000
      6 C6          28.6907  38.0203  37.8995 C.3            1 <1>                0.0000
      7 C7          28.8305  39.1040  36.8286 C.3            1 <1>                0.0000
      8 C8          30.3131  39.3954  36.5882 C.3            1 <1>                0.0000
      9 S9          31.1311  37.8987  35.9708 S.o2           1 <1>                0.0000
     10 O10         32.1786  37.5055  36.8468 O.2            1 <1>                0.0000
     11 O11         30.1699  36.9590  35.5100 O.2            1 <1>                0.0000
     12 Cl12        32.0834  38.5001  34.2939 Cl             1 <1>                0.0000
     13 H13         26.3437  37.2472  41.8538 H              1 <1>                0.0000
     14 H14         24.6043  37.4916  41.5650 H              1 <1>                0.0000
     15 H15         25.3607  35.9290  41.1721 H              1 <1>                0.0000
     16 H16         27.2244  36.6176  37.1764 H              1 <1>                0.0000
     17 H17         26.5760  38.2329  37.5485 H              1 <1>                0.0000
     18 H18         28.8916  38.4508  38.8805 H              1 <1>                0.0000
     19 H19         29.4034  37.2197  37.7013 H              1 <1>                0.0000
     20 H20         28.3728  38.7597  35.9013 H              1 <1>                0.0000
     21 H21         28.3313  40.0130  37.1644 H              1 <1>                0.0000
     22 H22         30.4119  40.1934  35.8522 H              1 <1>                0.0000
     23 H23         30.7790  39.7044  37.5239 H              1 <1>                0.0000
@<TRIPOS>BOND
    1    1    2 1     
    2    1   13 1     
    3    1   14 1     
    4    1   15 1     
    5    2    3 1     
    6    3    4 2     
    7    3    5 1     
    8    5    6 1     
    9    5   16 1     
   10    5   17 1     
   11    6    7 1     
   12    6   18 1     
   13    6   19 1     
   14    7    8 1     
   15    7   20 1     
   16    7   21 1     
   17    8    9 1     
   18    8   22 1     
   19    8   23 1     
   20    9   10 2     
   21    9   11 2     
   22    9   12 1     
@<TRIPOS>SUBSTRUCTURE
      1 ****           1
@<TRIPOS>COMMENT
> <Gold.Version>
2022.2.0

> <Gold.Id.Protein>
1qkm|1qkm_protein|mol2

> <Gold.Protein.RotatedTorsions>
[  496  491  490  487 ] final  115.37 input  -89.99 | X-H torsion

> <Gold.Protein.ActiveResidues>
 MET295  LEU298  THR299  LEU301  ALA302  GLU305  TRP335  MET336  LEU339  MET340 
 GLY342  LEU343  ARG346  PHE356  ILE373  ILE376  PHE377  LEU380  LYS471  GLY472 
 MET473  HIS475  LEU476  LEU477  ASN478  MET479  VAL484  VAL487 

> <Gold.Protein.RotatedAtoms>
   37.0439   32.9395   41.6855 H   0  0  0  0  0  0  0  0  0  0  0  0  # atno 496  bound_to 491 

> <Gold.Score>
     Score     S(PLP)   S(hbond)     S(cho)   S(metal)  DE(clash)   DE(tors)     intcor
     35.67     -36.27       0.00       0.00       0.00       0.00       0.39       0.17

> <Gold.PLP.Fitness>
35.6658

> <Gold.PLP.PLP>
-36.2709

> <Gold.PLP.part.hbond>
0.0000

> <Gold.PLP.part.metal>
0.0000

> <Gold.PLP.part.buried>
-4.1884

> <Gold.PLP.part.nonpolar>
-31.7308

> <Gold.PLP.part.repulsive>
0.1311

> <Gold.PLP.ligand.clash>
0.0000

> <Gold.PLP.ligand.torsion>
0.3863

> <Gold.PLP.Chemscore.Hbond>
0.0000

> <Gold.PLP.Chemscore.CHOScore>
0.0000

> <Gold.PLP.Chemscore.Metal>
0.0000

> <Gold.PLP.Chemscore.Internal.Correction>
0.1676

