#       Name:                EN300-156996_i001
#       Creating user name   aseyller
#       Creation time:       Fri Apr 21 16:33:16 2023


#       File generated by GOLD software.
#

@<TRIPOS>MOLECULE
EN300-156996_i001|Sulfonylchlorides|mol2|33|dock11
    23    22     1
SMALL
USER_CHARGES


@<TRIPOS>ATOM
      1 C1          25.7144  37.3808  39.0743 C.3            1 <1>                0.0000
      2 O2          27.0849  36.9542  39.2934 O.3            1 <1>                0.0000
      3 C3          27.4178  36.5904  40.5418 C.2            1 <1>                0.0000
      4 O4          26.5955  36.6422  41.4256 O.2            1 <1>                0.0000
      5 C5          28.8169  36.1174  40.8410 C.3            1 <1>                0.0000
      6 C6          29.4920  35.6687  39.5434 C.3            1 <1>                0.0000
      7 C7          30.0846  36.8853  38.8297 C.3            1 <1>                0.0000
      8 C8          30.4634  36.5022  37.3976 C.3            1 <1>                0.0000
      9 S9          32.0724  35.6647  37.4012 S.o2           1 <1>                0.0000
     10 O10         32.3930  35.1949  36.0990 O.2            1 <1>                0.0000
     11 O11         33.0161  36.4008  38.1673 O.2            1 <1>                0.0000
     12 Cl12        31.7627  33.9823  38.4755 Cl             1 <1>                0.0000
     13 H13         25.4994  38.2477  39.6991 H              1 <1>                0.0000
     14 H14         25.5796  37.6463  38.0257 H              1 <1>                0.0000
     15 H15         25.0352  36.5686  39.3336 H              1 <1>                0.0000
     16 H16         29.3888  36.9320  41.2853 H              1 <1>                0.0000
     17 H17         28.7762  35.2800  41.5376 H              1 <1>                0.0000
     18 H18         30.2871  34.9596  39.7738 H              1 <1>                0.0000
     19 H19         28.7556  35.1913  38.8970 H              1 <1>                0.0000
     20 H20         29.3480  37.6884  38.8082 H              1 <1>                0.0000
     21 H21         30.9737  37.2219  39.3629 H              1 <1>                0.0000
     22 H22         29.7065  35.8331  36.9883 H              1 <1>                0.0000
     23 H23         30.5232  37.4015  36.7846 H              1 <1>                0.0000
@<TRIPOS>BOND
    1    1    2 1     
    2    1   13 1     
    3    1   14 1     
    4    1   15 1     
    5    2    3 1     
    6    3    4 2     
    7    3    5 1     
    8    5    6 1     
    9    5   16 1     
   10    5   17 1     
   11    6    7 1     
   12    6   18 1     
   13    6   19 1     
   14    7    8 1     
   15    7   20 1     
   16    7   21 1     
   17    8    9 1     
   18    8   22 1     
   19    8   23 1     
   20    9   10 2     
   21    9   11 2     
   22    9   12 1     
@<TRIPOS>SUBSTRUCTURE
      1 ****           1
@<TRIPOS>COMMENT
> <Gold.Version>
2022.2.0

> <Gold.Id.Protein>
1qkm|1qkm_protein|mol2

> <Gold.Protein.RotatedTorsions>
[  496  491  490  487 ] final  167.75 input  -89.99 | X-H torsion

> <Gold.Protein.ActiveResidues>
 MET295  LEU298  THR299  LEU301  ALA302  GLU305  TRP335  MET336  LEU339  MET340 
 GLY342  LEU343  ARG346  PHE356  ILE373  ILE376  PHE377  LEU380  LYS471  GLY472 
 MET473  HIS475  LEU476  LEU477  ASN478  MET479  VAL484  VAL487 

> <Gold.Protein.RotatedAtoms>
   37.3125   33.2972   40.9832 H   0  0  0  0  0  0  0  0  0  0  0  0  # atno 496  bound_to 491 

> <Gold.Score>
     Score     S(PLP)   S(hbond)     S(cho)   S(metal)  DE(clash)   DE(tors)     intcor
     34.70     -35.82       0.00       0.00       0.00       0.00       0.64       0.17

> <Gold.PLP.Fitness>
34.7019

> <Gold.PLP.PLP>
-35.8158

> <Gold.PLP.part.hbond>
0.0000

> <Gold.PLP.part.metal>
0.0000

> <Gold.PLP.part.buried>
-3.5646

> <Gold.PLP.part.nonpolar>
-32.8596

> <Gold.PLP.part.repulsive>
0.2655

> <Gold.PLP.ligand.clash>
0.0000

> <Gold.PLP.ligand.torsion>
0.6407

> <Gold.PLP.Chemscore.Hbond>
0.0000

> <Gold.PLP.Chemscore.CHOScore>
0.0000

> <Gold.PLP.Chemscore.Metal>
0.0000

> <Gold.PLP.Chemscore.Internal.Correction>
0.1676

