#       Name:                EN300-156996_i001
#       Creating user name   aseyller
#       Creation time:       Fri Apr 21 16:33:29 2023


#       File generated by GOLD software.
#

@<TRIPOS>MOLECULE
EN300-156996_i001|Sulfonylchlorides|mol2|33|dock19
    23    22     1
SMALL
USER_CHARGES


@<TRIPOS>ATOM
      1 C1          25.7938  36.9966  41.0090 C.3            1 <1>                0.0000
      2 O2          27.0736  36.3600  40.7535 O.3            1 <1>                0.0000
      3 C3          27.3457  36.0272  39.4819 C.2            1 <1>                0.0000
      4 O4          26.5599  36.2986  38.6051 O.2            1 <1>                0.0000
      5 C5          28.6311  35.3151  39.1480 C.3            1 <1>                0.0000
      6 C6          29.8188  36.2018  39.5276 C.3            1 <1>                0.0000
      7 C7          29.8696  37.4134  38.5947 C.3            1 <1>                0.0000
      8 C8          30.0501  36.9386  37.1514 C.3            1 <1>                0.0000
      9 S9          30.7786  38.2734  36.1625 S.o2           1 <1>                0.0000
     10 O10         32.1727  38.3788  36.4170 O.2            1 <1>                0.0000
     11 O11         30.2771  38.2401  34.8333 O.2            1 <1>                0.0000
     12 Cl12        29.9999  39.9644  36.9465 Cl             1 <1>                0.0000
     13 H13         24.9885  36.3292  40.7021 H              1 <1>                0.0000
     14 H14         25.7013  37.2123  42.0734 H              1 <1>                0.0000
     15 H15         25.7310  37.9261  40.4431 H              1 <1>                0.0000
     16 H16         28.6836  34.3795  39.7047 H              1 <1>                0.0000
     17 H17         28.6625  35.1040  38.0790 H              1 <1>                0.0000
     18 H18         29.7049  36.5406  40.5573 H              1 <1>                0.0000
     19 H19         30.7429  35.6314  39.4329 H              1 <1>                0.0000
     20 H20         28.9397  37.9758  38.6786 H              1 <1>                0.0000
     21 H21         30.7071  38.0524  38.8744 H              1 <1>                0.0000
     22 H22         30.7105  36.0716  37.1341 H              1 <1>                0.0000
     23 H23         29.0806  36.6654  36.7349 H              1 <1>                0.0000
@<TRIPOS>BOND
    1    1    2 1     
    2    1   13 1     
    3    1   14 1     
    4    1   15 1     
    5    2    3 1     
    6    3    4 2     
    7    3    5 1     
    8    5    6 1     
    9    5   16 1     
   10    5   17 1     
   11    6    7 1     
   12    6   18 1     
   13    6   19 1     
   14    7    8 1     
   15    7   20 1     
   16    7   21 1     
   17    8    9 1     
   18    8   22 1     
   19    8   23 1     
   20    9   10 2     
   21    9   11 2     
   22    9   12 1     
@<TRIPOS>SUBSTRUCTURE
      1 ****           1
@<TRIPOS>COMMENT
> <Gold.Version>
2022.2.0

> <Gold.Id.Protein>
1qkm|1qkm_protein|mol2

> <Gold.Protein.RotatedTorsions>
[  496  491  490  487 ] final  161.13 input  -89.99 | X-H torsion

> <Gold.Protein.ActiveResidues>
 MET295  LEU298  THR299  LEU301  ALA302  GLU305  TRP335  MET336  LEU339  MET340 
 GLY342  LEU343  ARG346  PHE356  ILE373  ILE376  PHE377  LEU380  LYS471  GLY472 
 MET473  HIS475  LEU476  LEU477  ASN478  MET479  VAL484  VAL487 

> <Gold.Protein.RotatedAtoms>
   37.2996   33.2180   41.0570 H   0  0  0  0  0  0  0  0  0  0  0  0  # atno 496  bound_to 491 

> <Gold.Score>
     Score     S(PLP)   S(hbond)     S(cho)   S(metal)  DE(clash)   DE(tors)     intcor
     32.74     -33.82       0.00       0.00       0.00       0.00       0.62       0.17

> <Gold.PLP.Fitness>
32.7410

> <Gold.PLP.PLP>
-33.8188

> <Gold.PLP.part.hbond>
0.0000

> <Gold.PLP.part.metal>
0.0000

> <Gold.PLP.part.buried>
-4.7676

> <Gold.PLP.part.nonpolar>
-29.8174

> <Gold.PLP.part.repulsive>
0.1664

> <Gold.PLP.ligand.clash>
0.0000

> <Gold.PLP.ligand.torsion>
0.6227

> <Gold.PLP.Chemscore.Hbond>
0.0000

> <Gold.PLP.Chemscore.CHOScore>
0.0000

> <Gold.PLP.Chemscore.Metal>
0.0000

> <Gold.PLP.Chemscore.Internal.Correction>
0.1676

