#       Name:                EN300-156996_i001
#       Creating user name   aseyller
#       Creation time:       Fri Apr 21 16:33:05 2023


#       File generated by GOLD software.
#

@<TRIPOS>MOLECULE
EN300-156996_i001|Sulfonylchlorides|mol2|33|dock3
    23    22     1
SMALL
USER_CHARGES


@<TRIPOS>ATOM
      1 C1          25.7758  37.2428  39.0943 C.3            1 <1>                0.0000
      2 O2          27.0903  36.6726  39.3296 O.3            1 <1>                0.0000
      3 C3          27.4711  36.5262  40.6084 C.2            1 <1>                0.0000
      4 O4          26.6723  36.6937  41.4995 O.2            1 <1>                0.0000
      5 C5          28.8945  36.1529  40.9327 C.3            1 <1>                0.0000
      6 C6          29.5679  35.5779  39.6850 C.3            1 <1>                0.0000
      7 C7          29.8210  36.7018  38.6782 C.3            1 <1>                0.0000
      8 C8          31.0135  36.3344  37.7928 C.3            1 <1>                0.0000
      9 S9          31.0246  37.3965  36.3222 S.o2           1 <1>                0.0000
     10 O10         30.0012  37.0056  35.4171 O.2            1 <1>                0.0000
     11 O11         31.1951  38.7580  36.6916 O.2            1 <1>                0.0000
     12 Cl12        32.7408  36.9201  35.3694 Cl             1 <1>                0.0000
     13 H13         25.7295  38.2410  39.5297 H              1 <1>                0.0000
     14 H14         25.5937  37.3056  38.0214 H              1 <1>                0.0000
     15 H15         25.0174  36.6098  39.5550 H              1 <1>                0.0000
     16 H16         29.4366  37.0391  41.2624 H              1 <1>                0.0000
     17 H17         28.9024  35.4060  41.7266 H              1 <1>                0.0000
     18 H18         30.5165  35.1186  39.9629 H              1 <1>                0.0000
     19 H19         28.9186  34.8267  39.2353 H              1 <1>                0.0000
     20 H20         28.9359  36.8393  38.0570 H              1 <1>                0.0000
     21 H21         30.0367  37.6267  39.2129 H              1 <1>                0.0000
     22 H22         31.9385  36.4777  38.3513 H              1 <1>                0.0000
     23 H23         30.9314  35.2914  37.4871 H              1 <1>                0.0000
@<TRIPOS>BOND
    1    1    2 1     
    2    1   13 1     
    3    1   14 1     
    4    1   15 1     
    5    2    3 1     
    6    3    4 2     
    7    3    5 1     
    8    5    6 1     
    9    5   16 1     
   10    5   17 1     
   11    6    7 1     
   12    6   18 1     
   13    6   19 1     
   14    7    8 1     
   15    7   20 1     
   16    7   21 1     
   17    8    9 1     
   18    8   22 1     
   19    8   23 1     
   20    9   10 2     
   21    9   11 2     
   22    9   12 1     
@<TRIPOS>SUBSTRUCTURE
      1 ****           1
@<TRIPOS>COMMENT
> <Gold.Version>
2022.2.0

> <Gold.Id.Protein>
1qkm|1qkm_protein|mol2

> <Gold.Protein.RotatedTorsions>
[  496  491  490  487 ] final -152.45 input  -89.99 | X-H torsion

> <Gold.Protein.ActiveResidues>
 MET295  LEU298  THR299  LEU301  ALA302  GLU305  TRP335  MET336  LEU339  MET340 
 GLY342  LEU343  ARG346  PHE356  ILE373  ILE376  PHE377  LEU380  LYS471  GLY472 
 MET473  HIS475  LEU476  LEU477  ASN478  MET479  VAL484  VAL487 

> <Gold.Protein.RotatedAtoms>
   37.2433   33.8815   40.7265 H   0  0  0  0  0  0  0  0  0  0  0  0  # atno 496  bound_to 491 

> <Gold.Score>
     Score     S(PLP)   S(hbond)     S(cho)   S(metal)  DE(clash)   DE(tors)     intcor
     33.36     -34.57       0.00       0.00       0.00       0.00       0.69       0.17

> <Gold.PLP.Fitness>
33.3590

> <Gold.PLP.PLP>
-34.5745

> <Gold.PLP.part.hbond>
0.0000

> <Gold.PLP.part.metal>
0.0000

> <Gold.PLP.part.buried>
-3.7721

> <Gold.PLP.part.nonpolar>
-31.3421

> <Gold.PLP.part.repulsive>
0.1994

> <Gold.PLP.ligand.clash>
0.0000

> <Gold.PLP.ligand.torsion>
0.6916

> <Gold.PLP.Chemscore.Hbond>
0.0000

> <Gold.PLP.Chemscore.CHOScore>
0.0000

> <Gold.PLP.Chemscore.Metal>
0.0000

> <Gold.PLP.Chemscore.Internal.Correction>
0.1676

