#       Name:                EN300-156996_i001
#       Creating user name   aseyller
#       Creation time:       Fri Apr 21 16:33:14 2023


#       File generated by GOLD software.
#

@<TRIPOS>MOLECULE
EN300-156996_i001|Sulfonylchlorides|mol2|33|dock9
    23    22     1
SMALL
USER_CHARGES


@<TRIPOS>ATOM
      1 C1          32.8726  36.9374  34.9007 C.3            1 <1>                0.0000
      2 O2          31.9293  36.2776  35.7857 O.3            1 <1>                0.0000
      3 C3          32.4104  35.8052  36.9464 C.2            1 <1>                0.0000
      4 O4          33.5991  35.8294  37.1620 O.2            1 <1>                0.0000
      5 C5          31.4682  35.2451  37.9804 C.3            1 <1>                0.0000
      6 C6          30.3820  36.2764  38.2925 C.3            1 <1>                0.0000
      7 C7          29.6402  35.8663  39.5663 C.3            1 <1>                0.0000
      8 C8          28.7105  37.0004  40.0027 C.3            1 <1>                0.0000
      9 S9          27.0627  36.7392  39.2907 S.o2           1 <1>                0.0000
     10 O10         26.6860  37.8479  38.4855 O.2            1 <1>                0.0000
     11 O11         26.9316  35.4078  38.8117 O.2            1 <1>                0.0000
     12 Cl12        25.8105  36.8248  40.8734 Cl             1 <1>                0.0000
     13 H13         33.6638  36.2391  34.6274 H              1 <1>                0.0000
     14 H14         32.3551  37.2704  34.0011 H              1 <1>                0.0000
     15 H15         33.3072  37.7979  35.4094 H              1 <1>                0.0000
     16 H16         31.0061  34.3356  37.5963 H              1 <1>                0.0000
     17 H17         32.0225  35.0146  38.8902 H              1 <1>                0.0000
     18 H18         30.8405  37.2544  38.4379 H              1 <1>                0.0000
     19 H19         29.6778  36.3251  37.4619 H              1 <1>                0.0000
     20 H20         29.0526  34.9692  39.3717 H              1 <1>                0.0000
     21 H21         30.3619  35.6633  40.3575 H              1 <1>                0.0000
     22 H22         28.6386  37.0131  41.0903 H              1 <1>                0.0000
     23 H23         29.1103  37.9525  39.6539 H              1 <1>                0.0000
@<TRIPOS>BOND
    1    1    2 1     
    2    1   13 1     
    3    1   14 1     
    4    1   15 1     
    5    2    3 1     
    6    3    4 2     
    7    3    5 1     
    8    5    6 1     
    9    5   16 1     
   10    5   17 1     
   11    6    7 1     
   12    6   18 1     
   13    6   19 1     
   14    7    8 1     
   15    7   20 1     
   16    7   21 1     
   17    8    9 1     
   18    8   22 1     
   19    8   23 1     
   20    9   10 2     
   21    9   11 2     
   22    9   12 1     
@<TRIPOS>SUBSTRUCTURE
      1 ****           1
@<TRIPOS>COMMENT
> <Gold.Version>
2022.2.0

> <Gold.Id.Protein>
1qkm|1qkm_protein|mol2

> <Gold.Protein.RotatedTorsions>
[  496  491  490  487 ] final  107.51 input  -89.99 | X-H torsion

> <Gold.Protein.ActiveResidues>
 MET295  LEU298  THR299  LEU301  ALA302  GLU305  TRP335  MET336  LEU339  MET340 
 GLY342  LEU343  ARG346  PHE356  ILE373  ILE376  PHE377  LEU380  LYS471  GLY472 
 MET473  HIS475  LEU476  LEU477  ASN478  MET479  VAL484  VAL487 

> <Gold.Protein.RotatedAtoms>
   36.9780   32.9466   41.7964 H   0  0  0  0  0  0  0  0  0  0  0  0  # atno 496  bound_to 491 

> <Gold.Score>
     Score     S(PLP)   S(hbond)     S(cho)   S(metal)  DE(clash)   DE(tors)     intcor
     34.01     -34.81       0.00       0.00       0.00       0.00       0.48       0.17

> <Gold.PLP.Fitness>
34.0077

> <Gold.PLP.PLP>
-34.8088

> <Gold.PLP.part.hbond>
0.0000

> <Gold.PLP.part.metal>
0.0000

> <Gold.PLP.part.buried>
-3.2513

> <Gold.PLP.part.nonpolar>
-31.6407

> <Gold.PLP.part.repulsive>
0.1053

> <Gold.PLP.ligand.clash>
0.0000

> <Gold.PLP.ligand.torsion>
0.4843

> <Gold.PLP.Chemscore.Hbond>
0.0000

> <Gold.PLP.Chemscore.CHOScore>
0.0000

> <Gold.PLP.Chemscore.Metal>
0.0000

> <Gold.PLP.Chemscore.Internal.Correction>
0.1676

