#       Name:                EN300-156996_i001
#       Creating user name   aseyller
#       Creation time:       Fri Apr 21 16:33:11 2023


#       File generated by GOLD software.
#

@<TRIPOS>MOLECULE
EN300-156996_i001|Sulfonylchlorides|mol2|33|dock7
    23    22     1
SMALL
USER_CHARGES


@<TRIPOS>ATOM
      1 C1          25.5027  37.3725  40.8982 C.3            1 <1>                0.0000
      2 O2          26.5454  36.4074  41.1976 O.3            1 <1>                0.0000
      3 C3          27.3390  36.0328  40.1819 C.2            1 <1>                0.0000
      4 O4          26.9461  36.1242  39.0429 O.2            1 <1>                0.0000
      5 C5          28.7199  35.4984  40.4621 C.3            1 <1>                0.0000
      6 C6          29.7537  36.3352  39.7058 C.3            1 <1>                0.0000
      7 C7          29.6791  36.0105  38.2126 C.3            1 <1>                0.0000
      8 C8          30.7129  36.8472  37.4563 C.3            1 <1>                0.0000
      9 S9          32.2087  35.8580  37.1832 S.o2           1 <1>                0.0000
     10 O10         32.3334  35.5111  35.8108 O.2            1 <1>                0.0000
     11 O11         33.3056  36.4031  37.9036 O.2            1 <1>                0.0000
     12 Cl12        31.8282  34.1030  38.1081 Cl             1 <1>                0.0000
     13 H13         24.8349  36.9626  40.1406 H              1 <1>                0.0000
     14 H14         24.9359  37.5878  41.8041 H              1 <1>                0.0000
     15 H15         25.9546  38.2917  40.5253 H              1 <1>                0.0000
     16 H16         28.9206  35.5531  41.5320 H              1 <1>                0.0000
     17 H17         28.7816  34.4610  40.1334 H              1 <1>                0.0000
     18 H18         29.5458  37.3942  39.8582 H              1 <1>                0.0000
     19 H19         30.7515  36.1035  40.0785 H              1 <1>                0.0000
     20 H20         29.8870  34.9515  38.0602 H              1 <1>                0.0000
     21 H21         28.6813  36.2421  37.8399 H              1 <1>                0.0000
     22 H22         30.2996  37.1538  36.4954 H              1 <1>                0.0000
     23 H23         30.9639  37.7312  38.0425 H              1 <1>                0.0000
@<TRIPOS>BOND
    1    1    2 1     
    2    1   13 1     
    3    1   14 1     
    4    1   15 1     
    5    2    3 1     
    6    3    4 2     
    7    3    5 1     
    8    5    6 1     
    9    5   16 1     
   10    5   17 1     
   11    6    7 1     
   12    6   18 1     
   13    6   19 1     
   14    7    8 1     
   15    7   20 1     
   16    7   21 1     
   17    8    9 1     
   18    8   22 1     
   19    8   23 1     
   20    9   10 2     
   21    9   11 2     
   22    9   12 1     
@<TRIPOS>SUBSTRUCTURE
      1 ****           1
@<TRIPOS>COMMENT
> <Gold.Version>
2022.2.0

> <Gold.Id.Protein>
1qkm|1qkm_protein|mol2

> <Gold.Protein.RotatedTorsions>
[  496  491  490  487 ] final -142.97 input  -89.99 | X-H torsion

> <Gold.Protein.ActiveResidues>
 MET295  LEU298  THR299  LEU301  ALA302  GLU305  TRP335  MET336  LEU339  MET340 
 GLY342  LEU343  ARG346  PHE356  ILE373  ILE376  PHE377  LEU380  LYS471  GLY472 
 MET473  HIS475  LEU476  LEU477  ASN478  MET479  VAL484  VAL487 

> <Gold.Protein.RotatedAtoms>
   37.1922   34.0287   40.7209 H   0  0  0  0  0  0  0  0  0  0  0  0  # atno 496  bound_to 491 

> <Gold.Score>
     Score     S(PLP)   S(hbond)     S(cho)   S(metal)  DE(clash)   DE(tors)     intcor
     34.01     -35.29       0.00       0.00       0.00       0.00       0.72       0.17

> <Gold.PLP.Fitness>
34.0119

> <Gold.PLP.PLP>
-35.2942

> <Gold.PLP.part.hbond>
0.0000

> <Gold.PLP.part.metal>
0.0000

> <Gold.PLP.part.buried>
-5.3731

> <Gold.PLP.part.nonpolar>
-30.9404

> <Gold.PLP.part.repulsive>
0.2741

> <Gold.PLP.ligand.clash>
0.0000

> <Gold.PLP.ligand.torsion>
0.7249

> <Gold.PLP.Chemscore.Hbond>
0.0000

> <Gold.PLP.Chemscore.CHOScore>
0.0000

> <Gold.PLP.Chemscore.Metal>
0.0000

> <Gold.PLP.Chemscore.Internal.Correction>
0.1676

