#       Name:                EN300-156996_i001
#       Creating user name   aseyller
#       Creation time:       Fri Apr 21 16:33:04 2023


#       File generated by GOLD software.
#

@<TRIPOS>MOLECULE
EN300-156996_i001|Sulfonylchlorides|mol2|33|dock2
    23    22     1
SMALL
USER_CHARGES


@<TRIPOS>ATOM
      1 C1          25.7037  36.9985  41.2038 C.3            1 <1>                0.0000
      2 O2          27.0054  36.3641  41.0960 O.3            1 <1>                0.0000
      3 C3          27.5127  36.2199  39.8616 C.2            1 <1>                0.0000
      4 O4          26.9037  36.6382  38.9055 O.2            1 <1>                0.0000
      5 C5          28.8417  35.5364  39.6683 C.3            1 <1>                0.0000
      6 C6          29.8100  36.4927  38.9691 C.3            1 <1>                0.0000
      7 C7          31.0361  35.7147  38.4869 C.3            1 <1>                0.0000
      8 C8          32.0611  36.6889  37.9029 C.3            1 <1>                0.0000
      9 S9          31.4186  37.3878  36.3571 S.o2           1 <1>                0.0000
     10 O10         30.2302  36.7162  35.9622 O.2            1 <1>                0.0000
     11 O11         31.4826  38.8071  36.3869 O.2            1 <1>                0.0000
     12 Cl12        32.7782  36.8571  34.9606 Cl             1 <1>                0.0000
     13 H13         24.9679  36.4143  40.6511 H              1 <1>                0.0000
     14 H14         25.4115  37.0524  42.2525 H              1 <1>                0.0000
     15 H15         25.7547  38.0051  40.7887 H              1 <1>                0.0000
     16 H16         29.2489  35.2523  40.6386 H              1 <1>                0.0000
     17 H17         28.7062  34.6449  39.0560 H              1 <1>                0.0000
     18 H18         29.3130  36.9531  38.1153 H              1 <1>                0.0000
     19 H19         30.1236  37.2678  39.6684 H              1 <1>                0.0000
     20 H20         31.4803  35.1799  39.3264 H              1 <1>                0.0000
     21 H21         30.7349  35.0011  37.7200 H              1 <1>                0.0000
     22 H22         32.2458  37.4926  38.6158 H              1 <1>                0.0000
     23 H23         32.9926  36.1595  37.7027 H              1 <1>                0.0000
@<TRIPOS>BOND
    1    1    2 1     
    2    1   13 1     
    3    1   14 1     
    4    1   15 1     
    5    2    3 1     
    6    3    4 2     
    7    3    5 1     
    8    5    6 1     
    9    5   16 1     
   10    5   17 1     
   11    6    7 1     
   12    6   18 1     
   13    6   19 1     
   14    7    8 1     
   15    7   20 1     
   16    7   21 1     
   17    8    9 1     
   18    8   22 1     
   19    8   23 1     
   20    9   10 2     
   21    9   11 2     
   22    9   12 1     
@<TRIPOS>SUBSTRUCTURE
      1 ****           1
@<TRIPOS>COMMENT
> <Gold.Version>
2022.2.0

> <Gold.Id.Protein>
1qkm|1qkm_protein|mol2

> <Gold.Protein.RotatedTorsions>
[  496  491  490  487 ] final  -39.72 input  -89.99 | X-H torsion

> <Gold.Protein.ActiveResidues>
 MET295  LEU298  THR299  LEU301  ALA302  GLU305  TRP335  MET336  LEU339  MET340 
 GLY342  LEU343  ARG346  PHE356  ILE373  ILE376  PHE377  LEU380  LYS471  GLY472 
 MET473  HIS475  LEU476  LEU477  ASN478  MET479  VAL484  VAL487 

> <Gold.Protein.RotatedAtoms>
   36.3617   34.6481   41.7761 H   0  0  0  0  0  0  0  0  0  0  0  0  # atno 496  bound_to 491 

> <Gold.Score>
     Score     S(PLP)   S(hbond)     S(cho)   S(metal)  DE(clash)   DE(tors)     intcor
     34.71     -34.81       0.00       0.00       0.00       0.00       0.14       0.18

> <Gold.PLP.Fitness>
34.7083

> <Gold.PLP.PLP>
-34.8084

> <Gold.PLP.part.hbond>
0.0000

> <Gold.PLP.part.metal>
0.0000

> <Gold.PLP.part.buried>
-5.1005

> <Gold.PLP.part.nonpolar>
-30.2063

> <Gold.PLP.part.repulsive>
0.1447

> <Gold.PLP.ligand.clash>
0.0000

> <Gold.PLP.ligand.torsion>
0.1404

> <Gold.PLP.Chemscore.Hbond>
0.0000

> <Gold.PLP.Chemscore.CHOScore>
0.0000

> <Gold.PLP.Chemscore.Metal>
0.0000

> <Gold.PLP.Chemscore.Internal.Correction>
0.1806

