#       Name:                EN300-156996_i001
#       Creating user name   aseyller
#       Creation time:       Fri Apr 21 16:33:26 2023


#       File generated by GOLD software.
#

@<TRIPOS>MOLECULE
EN300-156996_i001|Sulfonylchlorides|mol2|33|dock17
    23    22     1
SMALL
USER_CHARGES


@<TRIPOS>ATOM
      1 C1          25.5002  37.1308  41.3743 C.3            1 <1>                0.0000
      2 O2          26.7299  36.5586  40.8558 O.3            1 <1>                0.0000
      3 C3          26.9333  36.6489  39.5320 C.2            1 <1>                0.0000
      4 O4          26.1596  37.2707  38.8430 O.2            1 <1>                0.0000
      5 C5          28.1266  35.9749  38.9054 C.3            1 <1>                0.0000
      6 C6          29.4018  36.7189  39.3069 C.3            1 <1>                0.0000
      7 C7          30.5736  36.2155  38.4618 C.3            1 <1>                0.0000
      8 C8          30.4258  36.7284  37.0280 C.3            1 <1>                0.0000
      9 S9          32.0550  36.7751  36.2316 S.o2           1 <1>                0.0000
     10 O10         32.1339  35.8008  35.2001 O.2            1 <1>                0.0000
     11 O11         32.4603  38.1178  36.0035 O.2            1 <1>                0.0000
     12 Cl12        33.3283  36.1042  37.6489 Cl             1 <1>                0.0000
     13 H13         24.6460  36.6357  40.9122 H              1 <1>                0.0000
     14 H14         25.4612  36.9901  42.4545 H              1 <1>                0.0000
     15 H15         25.4704  38.1960  41.1454 H              1 <1>                0.0000
     16 H16         28.1841  34.9427  39.2510 H              1 <1>                0.0000
     17 H17         28.0239  35.9894  37.8204 H              1 <1>                0.0000
     18 H18         29.2666  37.7876  39.1406 H              1 <1>                0.0000
     19 H19         29.6107  36.5389  40.3615 H              1 <1>                0.0000
     20 H20         31.5096  36.5813  38.8839 H              1 <1>                0.0000
     21 H21         30.5777  35.1255  38.4592 H              1 <1>                0.0000
     22 H22         29.7676  36.0625  36.4699 H              1 <1>                0.0000
     23 H23         29.9999  37.7316  37.0430 H              1 <1>                0.0000
@<TRIPOS>BOND
    1    1    2 1     
    2    1   13 1     
    3    1   14 1     
    4    1   15 1     
    5    2    3 1     
    6    3    4 2     
    7    3    5 1     
    8    5    6 1     
    9    5   16 1     
   10    5   17 1     
   11    6    7 1     
   12    6   18 1     
   13    6   19 1     
   14    7    8 1     
   15    7   20 1     
   16    7   21 1     
   17    8    9 1     
   18    8   22 1     
   19    8   23 1     
   20    9   10 2     
   21    9   11 2     
   22    9   12 1     
@<TRIPOS>SUBSTRUCTURE
      1 ****           1
@<TRIPOS>COMMENT
> <Gold.Version>
2022.2.0

> <Gold.Id.Protein>
1qkm|1qkm_protein|mol2

> <Gold.Protein.RotatedTorsions>
[  496  491  490  487 ] final -110.06 input  -89.99 | X-H torsion

> <Gold.Protein.ActiveResidues>
 MET295  LEU298  THR299  LEU301  ALA302  GLU305  TRP335  MET336  LEU339  MET340 
 GLY342  LEU343  ARG346  PHE356  ILE373  ILE376  PHE377  LEU380  LYS471  GLY472 
 MET473  HIS475  LEU476  LEU477  ASN478  MET479  VAL484  VAL487 

> <Gold.Protein.RotatedAtoms>
   36.9407   34.4749   40.8732 H   0  0  0  0  0  0  0  0  0  0  0  0  # atno 496  bound_to 491 

> <Gold.Score>
     Score     S(PLP)   S(hbond)     S(cho)   S(metal)  DE(clash)   DE(tors)     intcor
     32.80     -33.44       0.00       0.00       0.00       0.00       0.40       0.17

> <Gold.PLP.Fitness>
32.7961

> <Gold.PLP.PLP>
-33.4381

> <Gold.PLP.part.hbond>
0.0000

> <Gold.PLP.part.metal>
0.0000

> <Gold.PLP.part.buried>
-4.3018

> <Gold.PLP.part.nonpolar>
-29.4797

> <Gold.PLP.part.repulsive>
0.2800

> <Gold.PLP.ligand.clash>
0.0000

> <Gold.PLP.ligand.torsion>
0.4048

> <Gold.PLP.Chemscore.Hbond>
0.0000

> <Gold.PLP.Chemscore.CHOScore>
0.0000

> <Gold.PLP.Chemscore.Metal>
0.0000

> <Gold.PLP.Chemscore.Internal.Correction>
0.1676

