#       Name:                EN300-156996_i001
#       Creating user name   aseyller
#       Creation time:       Fri Apr 21 16:33:24 2023


#       File generated by GOLD software.
#

@<TRIPOS>MOLECULE
EN300-156996_i001|Sulfonylchlorides|mol2|33|dock16
    23    22     1
SMALL
USER_CHARGES


@<TRIPOS>ATOM
      1 C1          25.5000  37.2534  40.9128 C.3            1 <1>                0.0000
      2 O2          26.1493  36.5264  39.8367 O.3            1 <1>                0.0000
      3 C3          27.2627  35.8439  40.1472 C.2            1 <1>                0.0000
      4 O4          27.4026  35.3895  41.2581 O.2            1 <1>                0.0000
      5 C5          28.3380  35.6444  39.1105 C.3            1 <1>                0.0000
      6 C6          29.6669  36.1833  39.6439 C.3            1 <1>                0.0000
      7 C7          30.7249  36.1143  38.5408 C.3            1 <1>                0.0000
      8 C8          30.4642  37.2183  37.5141 C.3            1 <1>                0.0000
      9 S9          31.8169  37.2523  36.3061 S.o2           1 <1>                0.0000
     10 O10         31.3907  36.7078  35.0647 O.2            1 <1>                0.0000
     11 O11         32.5058  38.4939  36.3635 O.2            1 <1>                0.0000
     12 Cl12        33.1526  35.9088  37.0070 Cl             1 <1>                0.0000
     13 H13         26.1909  37.9906  41.3219 H              1 <1>                0.0000
     14 H14         24.6150  37.7595  40.5272 H              1 <1>                0.0000
     15 H15         25.2066  36.5558  41.6973 H              1 <1>                0.0000
     16 H16         28.4388  34.5815  38.8912 H              1 <1>                0.0000
     17 H17         28.0685  36.1793  38.1998 H              1 <1>                0.0000
     18 H18         29.5386  37.2185  39.9600 H              1 <1>                0.0000
     19 H19         29.9883  35.5811  40.4937 H              1 <1>                0.0000
     20 H20         31.7143  36.2503  38.9773 H              1 <1>                0.0000
     21 H21         30.6749  35.1424  38.0499 H              1 <1>                0.0000
     22 H22         29.5231  37.0218  37.0004 H              1 <1>                0.0000
     23 H23         30.4066  38.1808  38.0224 H              1 <1>                0.0000
@<TRIPOS>BOND
    1    1    2 1     
    2    1   13 1     
    3    1   14 1     
    4    1   15 1     
    5    2    3 1     
    6    3    4 2     
    7    3    5 1     
    8    5    6 1     
    9    5   16 1     
   10    5   17 1     
   11    6    7 1     
   12    6   18 1     
   13    6   19 1     
   14    7    8 1     
   15    7   20 1     
   16    7   21 1     
   17    8    9 1     
   18    8   22 1     
   19    8   23 1     
   20    9   10 2     
   21    9   11 2     
   22    9   12 1     
@<TRIPOS>SUBSTRUCTURE
      1 ****           1
@<TRIPOS>COMMENT
> <Gold.Version>
2022.2.0

> <Gold.Id.Protein>
1qkm|1qkm_protein|mol2

> <Gold.Protein.RotatedTorsions>
[  496  491  490  487 ] final   80.39 input  -89.99 | X-H torsion

> <Gold.Protein.ActiveResidues>
 MET295  LEU298  THR299  LEU301  ALA302  GLU305  TRP335  MET336  LEU339  MET340 
 GLY342  LEU343  ARG346  PHE356  ILE373  ILE376  PHE377  LEU380  LYS471  GLY472 
 MET473  HIS475  LEU476  LEU477  ASN478  MET479  VAL484  VAL487 

> <Gold.Protein.RotatedAtoms>
   36.7315   33.0961   42.1318 H   0  0  0  0  0  0  0  0  0  0  0  0  # atno 496  bound_to 491 

> <Gold.Score>
     Score     S(PLP)   S(hbond)     S(cho)   S(metal)  DE(clash)   DE(tors)     intcor
     32.23     -33.19       0.00       0.00       0.00       0.00       0.56       0.17

> <Gold.PLP.Fitness>
32.2307

> <Gold.PLP.PLP>
-33.1896

> <Gold.PLP.part.hbond>
0.0000

> <Gold.PLP.part.metal>
0.0000

> <Gold.PLP.part.buried>
-4.5943

> <Gold.PLP.part.nonpolar>
-30.0194

> <Gold.PLP.part.repulsive>
1.3330

> <Gold.PLP.ligand.clash>
0.0000

> <Gold.PLP.ligand.torsion>
0.5632

> <Gold.PLP.Chemscore.Hbond>
0.0000

> <Gold.PLP.Chemscore.CHOScore>
0.0000

> <Gold.PLP.Chemscore.Metal>
0.0000

> <Gold.PLP.Chemscore.Internal.Correction>
0.1676

