#       Name:                EN300-110529_i001
#       Creating user name   aseyller
#       Creation time:       Fri Apr 21 18:22:06 2023


#       File generated by GOLD software.
#

@<TRIPOS>MOLECULE
EN300-110529_i001|benzaldehydes|mol2|513|dock16
    21    21     1
SMALL
USER_CHARGES


@<TRIPOS>ATOM
      1 C1          33.2387  36.1818  35.6710 C.3            1 <1>                0.0000
      2 O2          32.8905  35.7069  36.9730 O.3            1 <1>                0.0000
      3 C3          31.7785  36.2330  37.5433 C.ar           1 <1>                0.0000
      4 C4          31.3207  37.4831  37.1545 C.ar           1 <1>                0.0000
      5 C5          30.1884  38.0177  37.7360 C.ar           1 <1>                0.0000
      6 C6          29.6977  39.3767  37.3077 C.3            1 <1>                0.0000
      7 C7          29.4994  37.3127  38.7106 C.ar           1 <1>                0.0000
      8 C8          29.9373  36.0702  39.1106 C.ar           1 <1>                0.0000
      9 C9          31.0810  35.5124  38.5266 C.ar           1 <1>                0.0000
     10 C10         31.5546  34.1883  38.9473 C.2            1 <1>                0.0000
     11 O11         32.0837  33.4497  38.1436 O.2            1 <1>                0.0000
     12 H12         34.1454  35.6810  35.3320 H              1 <1>                0.0000
     13 H13         32.4252  35.9694  34.9772 H              1 <1>                0.0000
     14 H14         33.4108  37.2574  35.7107 H              1 <1>                0.0000
     15 H15         31.8511  38.0396  36.3959 H              1 <1>                0.0000
     16 H16         28.9994  39.2661  36.4780 H              1 <1>                0.0000
     17 H17         29.1941  39.8613  38.1442 H              1 <1>                0.0000
     18 H18         30.5445  39.9857  36.9913 H              1 <1>                0.0000
     19 H19         28.6147  37.7405  39.1588 H              1 <1>                0.0000
     20 H20         29.3973  35.5251  39.8706 H              1 <1>                0.0000
     21 H21         31.4321  33.8717  39.9726 H              1 <1>                0.0000
@<TRIPOS>BOND
    1    1    2 1     
    2    1   12 1     
    3    1   13 1     
    4    1   14 1     
    5    2    3 1     
    6    3    4 ar    
    7    3    9 ar    
    8    4    5 ar    
    9    4   15 1     
   10    5    6 1     
   11    5    7 ar    
   12    6   16 1     
   13    6   17 1     
   14    6   18 1     
   15    7    8 ar    
   16    7   19 1     
   17    8    9 ar    
   18    8   20 1     
   19    9   10 1     
   20   10   11 2     
   21   10   21 1     
@<TRIPOS>SUBSTRUCTURE
      1 ****           1
@<TRIPOS>COMMENT
> <Gold.Version>
2022.2.0

> <Gold.Id.Protein>
1qkm|1qkm_protein|mol2

> <Gold.Protein.RotatedTorsions>
[  496  491  490  487 ] final    9.23 input  -89.99 | X-H torsion

> <Gold.Protein.ActiveResidues>
 MET295  LEU298  THR299  LEU301  ALA302  GLU305  TRP335  MET336  LEU339  MET340 
 GLY342  LEU343  ARG346  PHE356  ILE373  ILE376  PHE377  LEU380  LYS471  GLY472 
 MET473  HIS475  LEU476  LEU477  ASN478  MET479  VAL484  VAL487 

> <Gold.Protein.RotatedAtoms>
   36.2716   34.0780   42.3029 H   0  0  0  0  0  0  0  0  0  0  0  0  # atno 496  bound_to 491 

> <Gold.Score>
     Score     S(PLP)   S(hbond)     S(cho)   S(metal)  DE(clash)   DE(tors)     intcor
     35.80     -36.28       0.00       0.00       0.00       0.00       0.57       0.67

> <Gold.PLP.Fitness>
35.8036

> <Gold.PLP.PLP>
-36.2841

> <Gold.PLP.part.hbond>
0.0000

> <Gold.PLP.part.metal>
0.0000

> <Gold.PLP.part.buried>
-3.0685

> <Gold.PLP.part.nonpolar>
-33.5416

> <Gold.PLP.part.repulsive>
0.0379

> <Gold.PLP.ligand.clash>
0.0000

> <Gold.PLP.ligand.torsion>
0.5747

> <Gold.PLP.Chemscore.Hbond>
0.0000

> <Gold.PLP.Chemscore.CHOScore>
0.0000

> <Gold.PLP.Chemscore.Metal>
0.0000

> <Gold.PLP.Chemscore.Internal.Correction>
0.6690

