#       Name:                EN300-110529_i001
#       Creating user name   aseyller
#       Creation time:       Fri Apr 21 18:22:02 2023


#       File generated by GOLD software.
#

@<TRIPOS>MOLECULE
EN300-110529_i001|benzaldehydes|mol2|513|dock4
    21    21     1
SMALL
USER_CHARGES


@<TRIPOS>ATOM
      1 C1          31.7041  33.0862  38.1993 C.3            1 <1>                0.0000
      2 O2          32.0834  34.4555  38.0471 O.3            1 <1>                0.0000
      3 C3          31.1828  35.3908  38.4380 C.ar           1 <1>                0.0000
      4 C4          30.2120  35.0743  39.3765 C.ar           1 <1>                0.0000
      5 C5          29.2956  36.0275  39.7736 C.ar           1 <1>                0.0000
      6 C6          28.2440  35.6753  40.7939 C.3            1 <1>                0.0000
      7 C7          29.3365  37.3065  39.2405 C.ar           1 <1>                0.0000
      8 C8          30.2922  37.6409  38.3076 C.ar           1 <1>                0.0000
      9 C9          31.2318  36.6867  37.8987 C.ar           1 <1>                0.0000
     10 C10         32.2540  37.0351  36.9047 C.2            1 <1>                0.0000
     11 O11         33.0205  36.1865  36.4999 O.2            1 <1>                0.0000
     12 H12         32.5127  32.4442  37.8498 H              1 <1>                0.0000
     13 H13         31.5044  32.8791  39.2506 H              1 <1>                0.0000
     14 H14         30.8060  32.8907  37.6134 H              1 <1>                0.0000
     15 H15         30.1725  34.0803  39.7972 H              1 <1>                0.0000
     16 H16         28.6235  35.8848  41.7941 H              1 <1>                0.0000
     17 H17         27.3486  36.2701  40.6130 H              1 <1>                0.0000
     18 H18         27.9991  34.6162  40.7127 H              1 <1>                0.0000
     19 H19         28.6147  38.0443  39.5583 H              1 <1>                0.0000
     20 H20         30.3197  38.6385  37.8951 H              1 <1>                0.0000
     21 H21         32.3236  38.0470  36.5335 H              1 <1>                0.0000
@<TRIPOS>BOND
    1    1    2 1     
    2    1   12 1     
    3    1   13 1     
    4    1   14 1     
    5    2    3 1     
    6    3    4 ar    
    7    3    9 ar    
    8    4    5 ar    
    9    4   15 1     
   10    5    6 1     
   11    5    7 ar    
   12    6   16 1     
   13    6   17 1     
   14    6   18 1     
   15    7    8 ar    
   16    7   19 1     
   17    8    9 ar    
   18    8   20 1     
   19    9   10 1     
   20   10   11 2     
   21   10   21 1     
@<TRIPOS>SUBSTRUCTURE
      1 ****           1
@<TRIPOS>COMMENT
> <Gold.Version>
2022.2.0

> <Gold.Id.Protein>
1qkm|1qkm_protein|mol2

> <Gold.Protein.RotatedTorsions>
[  496  491  490  487 ] final   22.26 input  -89.99 | X-H torsion

> <Gold.Protein.ActiveResidues>
 MET295  LEU298  THR299  LEU301  ALA302  GLU305  TRP335  MET336  LEU339  MET340 
 GLY342  LEU343  ARG346  PHE356  ILE373  ILE376  PHE377  LEU380  LYS471  GLY472 
 MET473  HIS475  LEU476  LEU477  ASN478  MET479  VAL484  VAL487 

> <Gold.Protein.RotatedAtoms>
   36.3110   33.8767   42.3640 H   0  0  0  0  0  0  0  0  0  0  0  0  # atno 496  bound_to 491 

> <Gold.Score>
     Score     S(PLP)   S(hbond)     S(cho)   S(metal)  DE(clash)   DE(tors)     intcor
     36.08     -36.09       0.00       0.00       0.00       0.00       0.34       0.67

> <Gold.PLP.Fitness>
36.0846

> <Gold.PLP.PLP>
-36.0944

> <Gold.PLP.part.hbond>
0.0000

> <Gold.PLP.part.metal>
0.0000

> <Gold.PLP.part.buried>
-2.3898

> <Gold.PLP.part.nonpolar>
-33.8295

> <Gold.PLP.part.repulsive>
0.0576

> <Gold.PLP.ligand.clash>
0.0000

> <Gold.PLP.ligand.torsion>
0.3394

> <Gold.PLP.Chemscore.Hbond>
0.0000

> <Gold.PLP.Chemscore.CHOScore>
0.0000

> <Gold.PLP.Chemscore.Metal>
0.0000

> <Gold.PLP.Chemscore.Internal.Correction>
0.6690

