#       Name:                EN300-110529_i001
#       Creating user name   aseyller
#       Creation time:       Fri Apr 21 18:22:07 2023


#       File generated by GOLD software.
#

@<TRIPOS>MOLECULE
EN300-110529_i001|benzaldehydes|mol2|513|dock17
    21    21     1
SMALL
USER_CHARGES


@<TRIPOS>ATOM
      1 C1          28.4998  36.1817  41.6088 C.3            1 <1>                0.0000
      2 O2          27.9087  36.3420  40.3177 O.3            1 <1>                0.0000
      3 C3          28.7490  36.5853  39.2818 C.ar           1 <1>                0.0000
      4 C4          30.0425  36.0852  39.3013 C.ar           1 <1>                0.0000
      5 C5          30.8971  36.3338  38.2459 C.ar           1 <1>                0.0000
      6 C6          32.3010  35.7867  38.2751 C.3            1 <1>                0.0000
      7 C7          30.4726  37.0827  37.1594 C.ar           1 <1>                0.0000
      8 C8          29.1926  37.5881  37.1206 C.ar           1 <1>                0.0000
      9 C9          28.3123  37.3402  38.1809 C.ar           1 <1>                0.0000
     10 C10         26.9460  37.8754  38.1474 C.2            1 <1>                0.0000
     11 O11         26.1484  37.5565  39.0039 O.2            1 <1>                0.0000
     12 H12         27.7187  35.9927  42.3451 H              1 <1>                0.0000
     13 H13         29.1923  35.3402  41.5895 H              1 <1>                0.0000
     14 H14         29.0394  37.0902  41.8766 H              1 <1>                0.0000
     15 H15         30.3820  35.5008  40.1437 H              1 <1>                0.0000
     16 H16         32.3151  34.7975  37.8175 H              1 <1>                0.0000
     17 H17         32.9622  36.4529  37.7208 H              1 <1>                0.0000
     18 H18         32.6414  35.7141  39.3081 H              1 <1>                0.0000
     19 H19         31.1496  37.2710  36.3393 H              1 <1>                0.0000
     20 H20         28.8667  38.1713  36.2721 H              1 <1>                0.0000
     21 H21         26.6508  38.5534  37.3601 H              1 <1>                0.0000
@<TRIPOS>BOND
    1    1    2 1     
    2    1   12 1     
    3    1   13 1     
    4    1   14 1     
    5    2    3 1     
    6    3    4 ar    
    7    3    9 ar    
    8    4    5 ar    
    9    4   15 1     
   10    5    6 1     
   11    5    7 ar    
   12    6   16 1     
   13    6   17 1     
   14    6   18 1     
   15    7    8 ar    
   16    7   19 1     
   17    8    9 ar    
   18    8   20 1     
   19    9   10 1     
   20   10   11 2     
   21   10   21 1     
@<TRIPOS>SUBSTRUCTURE
      1 ****           1
@<TRIPOS>COMMENT
> <Gold.Version>
2022.2.0

> <Gold.Id.Protein>
1qkm|1qkm_protein|mol2

> <Gold.Protein.RotatedTorsions>
[  496  491  490  487 ] final   96.74 input  -89.99 | X-H torsion

> <Gold.Protein.ActiveResidues>
 MET295  LEU298  THR299  LEU301  ALA302  GLU305  TRP335  MET336  LEU339  MET340 
 GLY342  LEU343  ARG346  PHE356  ILE373  ILE376  PHE377  LEU380  LYS471  GLY472 
 MET473  HIS475  LEU476  LEU477  ASN478  MET479  VAL484  VAL487 

> <Gold.Protein.RotatedAtoms>
   36.8822   32.9834   41.9406 H   0  0  0  0  0  0  0  0  0  0  0  0  # atno 496  bound_to 491 

> <Gold.Score>
     Score     S(PLP)   S(hbond)     S(cho)   S(metal)  DE(clash)   DE(tors)     intcor
     35.42     -35.53       0.00       0.00       0.00       0.00       0.39       0.67

> <Gold.PLP.Fitness>
35.4219

> <Gold.PLP.PLP>
-35.5262

> <Gold.PLP.part.hbond>
0.0000

> <Gold.PLP.part.metal>
0.0000

> <Gold.PLP.part.buried>
-3.1281

> <Gold.PLP.part.nonpolar>
-32.8305

> <Gold.PLP.part.repulsive>
0.1102

> <Gold.PLP.ligand.clash>
0.0000

> <Gold.PLP.ligand.torsion>
0.3867

> <Gold.PLP.Chemscore.Hbond>
0.0000

> <Gold.PLP.Chemscore.CHOScore>
0.0000

> <Gold.PLP.Chemscore.Metal>
0.0000

> <Gold.PLP.Chemscore.Internal.Correction>
0.6690

