#       Name:                EN300-110529_i001
#       Creating user name   aseyller
#       Creation time:       Fri Apr 21 18:22:04 2023


#       File generated by GOLD software.
#

@<TRIPOS>MOLECULE
EN300-110529_i001|benzaldehydes|mol2|513|dock11
    21    21     1
SMALL
USER_CHARGES


@<TRIPOS>ATOM
      1 C1          31.8028  33.3968  38.3902 C.3            1 <1>                0.0000
      2 O2          31.3632  34.6843  38.8276 O.3            1 <1>                0.0000
      3 C3          31.4792  35.7071  37.9449 C.ar           1 <1>                0.0000
      4 C4          32.4088  35.6394  36.9179 C.ar           1 <1>                0.0000
      5 C5          32.5258  36.6815  36.0199 C.ar           1 <1>                0.0000
      6 C6          33.5385  36.5999  34.9069 C.3            1 <1>                0.0000
      7 C7          31.7179  37.8021  36.1348 C.ar           1 <1>                0.0000
      8 C8          30.7890  37.8888  37.1472 C.ar           1 <1>                0.0000
      9 C9          30.6546  36.8379  38.0626 C.ar           1 <1>                0.0000
     10 C10         29.6666  36.9225  39.1448 C.2            1 <1>                0.0000
     11 O11         29.5828  36.0289  39.9608 O.2            1 <1>                0.0000
     12 H12         31.6548  32.6713  39.1900 H              1 <1>                0.0000
     13 H13         31.2280  33.0948  37.5147 H              1 <1>                0.0000
     14 H14         32.8608  33.4425  38.1322 H              1 <1>                0.0000
     15 H15         33.0425  34.7702  36.8207 H              1 <1>                0.0000
     16 H16         33.0810  36.1369  34.0325 H              1 <1>                0.0000
     17 H17         33.8783  37.6034  34.6505 H              1 <1>                0.0000
     18 H18         34.3887  36.0005  35.2323 H              1 <1>                0.0000
     19 H19         31.8181  38.6114  35.4267 H              1 <1>                0.0000
     20 H20         30.1621  38.7641  37.2326 H              1 <1>                0.0000
     21 H21         29.0143  37.7805  39.2146 H              1 <1>                0.0000
@<TRIPOS>BOND
    1    1    2 1     
    2    1   12 1     
    3    1   13 1     
    4    1   14 1     
    5    2    3 1     
    6    3    4 ar    
    7    3    9 ar    
    8    4    5 ar    
    9    4   15 1     
   10    5    6 1     
   11    5    7 ar    
   12    6   16 1     
   13    6   17 1     
   14    6   18 1     
   15    7    8 ar    
   16    7   19 1     
   17    8    9 ar    
   18    8   20 1     
   19    9   10 1     
   20   10   11 2     
   21   10   21 1     
@<TRIPOS>SUBSTRUCTURE
      1 ****           1
@<TRIPOS>COMMENT
> <Gold.Version>
2022.2.0

> <Gold.Id.Protein>
1qkm|1qkm_protein|mol2

> <Gold.Protein.RotatedTorsions>
[  496  491  490  487 ] final  178.40 input  -89.99 | X-H torsion

> <Gold.Protein.ActiveResidues>
 MET295  LEU298  THR299  LEU301  ALA302  GLU305  TRP335  MET336  LEU339  MET340 
 GLY342  LEU343  ARG346  PHE356  ILE373  ILE376  PHE377  LEU380  LYS471  GLY472 
 MET473  HIS475  LEU476  LEU477  ASN478  MET479  VAL484  VAL487 

> <Gold.Protein.RotatedAtoms>
   37.3185   33.4390   40.8809 H   0  0  0  0  0  0  0  0  0  0  0  0  # atno 496  bound_to 491 

> <Gold.Score>
     Score     S(PLP)   S(hbond)     S(cho)   S(metal)  DE(clash)   DE(tors)     intcor
     37.20     -37.20       0.00       0.00       0.00       0.00       0.34       0.67

> <Gold.PLP.Fitness>
37.1960

> <Gold.PLP.PLP>
-37.2035

> <Gold.PLP.part.hbond>
0.0000

> <Gold.PLP.part.metal>
0.0000

> <Gold.PLP.part.buried>
-3.5282

> <Gold.PLP.part.nonpolar>
-34.1161

> <Gold.PLP.part.repulsive>
0.1865

> <Gold.PLP.ligand.clash>
0.0000

> <Gold.PLP.ligand.torsion>
0.3383

> <Gold.PLP.Chemscore.Hbond>
0.0000

> <Gold.PLP.Chemscore.CHOScore>
0.0000

> <Gold.PLP.Chemscore.Metal>
0.0000

> <Gold.PLP.Chemscore.Internal.Correction>
0.6690

