#       Name:                EN300-110529_i001
#       Creating user name   aseyller
#       Creation time:       Fri Apr 21 18:22:03 2023


#       File generated by GOLD software.
#

@<TRIPOS>MOLECULE
EN300-110529_i001|benzaldehydes|mol2|513|dock7
    21    21     1
SMALL
USER_CHARGES


@<TRIPOS>ATOM
      1 C1          29.9918  39.6412  36.9710 C.3            1 <1>                0.0000
      2 O2          30.4968  38.3049  37.0095 O.3            1 <1>                0.0000
      3 C3          29.8767  37.4363  37.8459 C.ar           1 <1>                0.0000
      4 C4          28.5276  37.5857  38.1308 C.ar           1 <1>                0.0000
      5 C5          27.8974  36.7007  38.9827 C.ar           1 <1>                0.0000
      6 C6          26.4312  36.8702  39.2869 C.3            1 <1>                0.0000
      7 C7          28.6040  35.6569  39.5596 C.ar           1 <1>                0.0000
      8 C8          29.9438  35.4911  39.2897 C.ar           1 <1>                0.0000
      9 C9          30.5959  36.3773  38.4237 C.ar           1 <1>                0.0000
     10 C10         32.0241  36.2076  38.1307 C.2            1 <1>                0.0000
     11 O11         32.6045  37.0250  37.4477 O.2            1 <1>                0.0000
     12 H12         30.5758  40.2301  36.2639 H              1 <1>                0.0000
     13 H13         28.9482  39.6264  36.6568 H              1 <1>                0.0000
     14 H14         30.0662  40.0863  37.9632 H              1 <1>                0.0000
     15 H15         27.9691  38.3961  37.6859 H              1 <1>                0.0000
     16 H16         25.8423  36.3095  38.5610 H              1 <1>                0.0000
     17 H17         26.2228  36.4973  40.2897 H              1 <1>                0.0000
     18 H18         26.1681  37.9264  39.2302 H              1 <1>                0.0000
     19 H19         28.1010  34.9704  40.2245 H              1 <1>                0.0000
     20 H20         30.4900  34.6765  39.7419 H              1 <1>                0.0000
     21 H21         32.5583  35.3550  38.5234 H              1 <1>                0.0000
@<TRIPOS>BOND
    1    1    2 1     
    2    1   12 1     
    3    1   13 1     
    4    1   14 1     
    5    2    3 1     
    6    3    4 ar    
    7    3    9 ar    
    8    4    5 ar    
    9    4   15 1     
   10    5    6 1     
   11    5    7 ar    
   12    6   16 1     
   13    6   17 1     
   14    6   18 1     
   15    7    8 ar    
   16    7   19 1     
   17    8    9 ar    
   18    8   20 1     
   19    9   10 1     
   20   10   11 2     
   21   10   21 1     
@<TRIPOS>SUBSTRUCTURE
      1 ****           1
@<TRIPOS>COMMENT
> <Gold.Version>
2022.2.0

> <Gold.Id.Protein>
1qkm|1qkm_protein|mol2

> <Gold.Protein.RotatedTorsions>
[  496  491  490  487 ] final  137.00 input  -89.99 | X-H torsion

> <Gold.Protein.ActiveResidues>
 MET295  LEU298  THR299  LEU301  ALA302  GLU305  TRP335  MET336  LEU339  MET340 
 GLY342  LEU343  ARG346  PHE356  ILE373  ILE376  PHE377  LEU380  LYS471  GLY472 
 MET473  HIS475  LEU476  LEU477  ASN478  MET479  VAL484  VAL487 

> <Gold.Protein.RotatedAtoms>
   37.1972   33.0064   41.3735 H   0  0  0  0  0  0  0  0  0  0  0  0  # atno 496  bound_to 491 

> <Gold.Score>
     Score     S(PLP)   S(hbond)     S(cho)   S(metal)  DE(clash)   DE(tors)     intcor
     35.35     -35.44       0.00       0.00       0.00       0.00       0.38       0.67

> <Gold.PLP.Fitness>
35.3457

> <Gold.PLP.PLP>
-35.4352

> <Gold.PLP.part.hbond>
0.0000

> <Gold.PLP.part.metal>
0.0000

> <Gold.PLP.part.buried>
-2.5526

> <Gold.PLP.part.nonpolar>
-32.8423

> <Gold.PLP.part.repulsive>
0.0000

> <Gold.PLP.ligand.clash>
0.0000

> <Gold.PLP.ligand.torsion>
0.3793

> <Gold.PLP.Chemscore.Hbond>
0.0000

> <Gold.PLP.Chemscore.CHOScore>
0.0000

> <Gold.PLP.Chemscore.Metal>
0.0000

> <Gold.PLP.Chemscore.Internal.Correction>
0.6690

