#       Name:                EN300-110529_i001
#       Creating user name   aseyller
#       Creation time:       Fri Apr 21 18:22:03 2023


#       File generated by GOLD software.
#

@<TRIPOS>MOLECULE
EN300-110529_i001|benzaldehydes|mol2|513|dock8
    21    21     1
SMALL
USER_CHARGES


@<TRIPOS>ATOM
      1 C1          29.4995  39.7113  36.9775 C.3            1 <1>                0.0000
      2 O2          28.5186  38.7078  37.2475 O.3            1 <1>                0.0000
      3 C3          28.9277  37.6186  37.9438 C.ar           1 <1>                0.0000
      4 C4          30.2483  37.2011  37.8722 C.ar           1 <1>                0.0000
      5 C5          30.6635  36.0919  38.5817 C.ar           1 <1>                0.0000
      6 C6          32.1003  35.6451  38.4983 C.3            1 <1>                0.0000
      7 C7          29.7680  35.3867  39.3706 C.ar           1 <1>                0.0000
      8 C8          28.4527  35.7847  39.4552 C.ar           1 <1>                0.0000
      9 C9          28.0176  36.9107  38.7458 C.ar           1 <1>                0.0000
     10 C10         26.6170  37.3416  38.8306 C.2            1 <1>                0.0000
     11 O11         25.8312  36.7195  39.5138 O.2            1 <1>                0.0000
     12 H12         29.0415  40.5252  36.4156 H              1 <1>                0.0000
     13 H13         29.8941  40.0960  37.9179 H              1 <1>                0.0000
     14 H14         30.3112  39.2779  36.3931 H              1 <1>                0.0000
     15 H15         30.9531  37.7444  37.2601 H              1 <1>                0.0000
     16 H16         32.6798  36.1371  39.2795 H              1 <1>                0.0000
     17 H17         32.1532  34.5646  38.6326 H              1 <1>                0.0000
     18 H18         32.5073  35.9101  37.5225 H              1 <1>                0.0000
     19 H19         30.1037  34.5204  39.9213 H              1 <1>                0.0000
     20 H20         27.7588  35.2317  40.0709 H              1 <1>                0.0000
     21 H21         26.2861  38.2129  38.2847 H              1 <1>                0.0000
@<TRIPOS>BOND
    1    1    2 1     
    2    1   12 1     
    3    1   13 1     
    4    1   14 1     
    5    2    3 1     
    6    3    4 ar    
    7    3    9 ar    
    8    4    5 ar    
    9    4   15 1     
   10    5    6 1     
   11    5    7 ar    
   12    6   16 1     
   13    6   17 1     
   14    6   18 1     
   15    7    8 ar    
   16    7   19 1     
   17    8    9 ar    
   18    8   20 1     
   19    9   10 1     
   20   10   11 2     
   21   10   21 1     
@<TRIPOS>SUBSTRUCTURE
      1 ****           1
@<TRIPOS>COMMENT
> <Gold.Version>
2022.2.0

> <Gold.Id.Protein>
1qkm|1qkm_protein|mol2

> <Gold.Protein.RotatedTorsions>
[  496  491  490  487 ] final  172.93 input  -89.99 | X-H torsion

> <Gold.Protein.ActiveResidues>
 MET295  LEU298  THR299  LEU301  ALA302  GLU305  TRP335  MET336  LEU339  MET340 
 GLY342  LEU343  ARG346  PHE356  ILE373  ILE376  PHE377  LEU380  LYS471  GLY472 
 MET473  HIS475  LEU476  LEU477  ASN478  MET479  VAL484  VAL487 

> <Gold.Protein.RotatedAtoms>
   37.3177   33.3641   40.9308 H   0  0  0  0  0  0  0  0  0  0  0  0  # atno 496  bound_to 491 

> <Gold.Score>
     Score     S(PLP)   S(hbond)     S(cho)   S(metal)  DE(clash)   DE(tors)     intcor
     36.30     -36.37       0.00       0.00       0.00       0.00       0.37       0.67

> <Gold.PLP.Fitness>
36.2978

> <Gold.PLP.PLP>
-36.3711

> <Gold.PLP.part.hbond>
0.0000

> <Gold.PLP.part.metal>
0.0000

> <Gold.PLP.part.buried>
-2.8745

> <Gold.PLP.part.nonpolar>
-33.4795

> <Gold.PLP.part.repulsive>
0.0931

> <Gold.PLP.ligand.clash>
0.0000

> <Gold.PLP.ligand.torsion>
0.3711

> <Gold.PLP.Chemscore.Hbond>
0.0000

> <Gold.PLP.Chemscore.CHOScore>
0.0000

> <Gold.PLP.Chemscore.Metal>
0.0000

> <Gold.PLP.Chemscore.Internal.Correction>
0.6690

