#       Name:                EN300-110529_i001
#       Creating user name   aseyller
#       Creation time:       Fri Apr 21 18:22:04 2023


#       File generated by GOLD software.
#

@<TRIPOS>MOLECULE
EN300-110529_i001|benzaldehydes|mol2|513|dock9
    21    21     1
SMALL
USER_CHARGES


@<TRIPOS>ATOM
      1 C1          30.7870  35.7571  38.8146 C.3            1 <1>                0.0000
      2 O2          29.4667  36.2517  39.0475 O.3            1 <1>                0.0000
      3 C3          29.0629  37.3062  38.2966 C.ar           1 <1>                0.0000
      4 C4          29.9994  38.1631  37.7378 C.ar           1 <1>                0.0000
      5 C5          29.5869  39.2363  36.9736 C.ar           1 <1>                0.0000
      6 C6          30.6110  40.1626  36.3699 C.3            1 <1>                0.0000
      7 C7          28.2373  39.4675  36.7572 C.ar           1 <1>                0.0000
      8 C8          27.2919  38.6287  37.3031 C.ar           1 <1>                0.0000
      9 C9          27.6945  37.5329  38.0761 C.ar           1 <1>                0.0000
     10 C10         26.6929  36.6338  38.6617 C.2            1 <1>                0.0000
     11 O11         27.0234  35.8210  39.4992 O.2            1 <1>                0.0000
     12 H12         30.9823  34.9157  39.4793 H              1 <1>                0.0000
     13 H13         30.8750  35.4298  37.7786 H              1 <1>                0.0000
     14 H14         31.5108  36.5488  39.0082 H              1 <1>                0.0000
     15 H15         31.0530  37.9908  37.9010 H              1 <1>                0.0000
     16 H16         30.8921  39.7989  35.3816 H              1 <1>                0.0000
     17 H17         30.1886  41.1636  36.2822 H              1 <1>                0.0000
     18 H18         31.4931  40.1954  37.0095 H              1 <1>                0.0000
     19 H19         27.9259  40.3102  36.1577 H              1 <1>                0.0000
     20 H20         26.2416  38.8132  37.1319 H              1 <1>                0.0000
     21 H21         25.6617  36.6961  38.3468 H              1 <1>                0.0000
@<TRIPOS>BOND
    1    1    2 1     
    2    1   12 1     
    3    1   13 1     
    4    1   14 1     
    5    2    3 1     
    6    3    4 ar    
    7    3    9 ar    
    8    4    5 ar    
    9    4   15 1     
   10    5    6 1     
   11    5    7 ar    
   12    6   16 1     
   13    6   17 1     
   14    6   18 1     
   15    7    8 ar    
   16    7   19 1     
   17    8    9 ar    
   18    8   20 1     
   19    9   10 1     
   20   10   11 2     
   21   10   21 1     
@<TRIPOS>SUBSTRUCTURE
      1 ****           1
@<TRIPOS>COMMENT
> <Gold.Version>
2022.2.0

> <Gold.Id.Protein>
1qkm|1qkm_protein|mol2

> <Gold.Protein.RotatedTorsions>
[  496  491  490  487 ] final  -24.27 input  -89.99 | X-H torsion

> <Gold.Protein.ActiveResidues>
 MET295  LEU298  THR299  LEU301  ALA302  GLU305  TRP335  MET336  LEU339  MET340 
 GLY342  LEU343  ARG346  PHE356  ILE373  ILE376  PHE377  LEU380  LYS471  GLY472 
 MET473  HIS475  LEU476  LEU477  ASN478  MET479  VAL484  VAL487 

> <Gold.Protein.RotatedAtoms>
   36.2935   34.5157   41.9814 H   0  0  0  0  0  0  0  0  0  0  0  0  # atno 496  bound_to 491 

> <Gold.Score>
     Score     S(PLP)   S(hbond)     S(cho)   S(metal)  DE(clash)   DE(tors)     intcor
     36.44     -36.51       0.00       0.00       0.00       0.00       0.37       0.67

> <Gold.PLP.Fitness>
36.4355

> <Gold.PLP.PLP>
-36.5058

> <Gold.PLP.part.hbond>
0.0000

> <Gold.PLP.part.metal>
0.0000

> <Gold.PLP.part.buried>
-2.4208

> <Gold.PLP.part.nonpolar>
-34.9283

> <Gold.PLP.part.repulsive>
0.0972

> <Gold.PLP.ligand.clash>
0.0000

> <Gold.PLP.ligand.torsion>
0.3696

> <Gold.PLP.Chemscore.Hbond>
0.0000

> <Gold.PLP.Chemscore.CHOScore>
0.0000

> <Gold.PLP.Chemscore.Metal>
0.0000

> <Gold.PLP.Chemscore.Internal.Correction>
0.6690

