#       Name:                EN300-110529_i001
#       Creating user name   aseyller
#       Creation time:       Fri Apr 21 18:22:02 2023


#       File generated by GOLD software.
#

@<TRIPOS>MOLECULE
EN300-110529_i001|benzaldehydes|mol2|513|dock6
    21    21     1
SMALL
USER_CHARGES


@<TRIPOS>ATOM
      1 C1          30.3255  39.6527  36.3523 C.3            1 <1>                0.0000
      2 O2          30.9675  38.4573  35.9039 O.3            1 <1>                0.0000
      3 C3          31.1097  37.4580  36.8094 C.ar           1 <1>                0.0000
      4 C4          30.2436  37.3671  37.8888 C.ar           1 <1>                0.0000
      5 C5          30.3895  36.3493  38.8101 C.ar           1 <1>                0.0000
      6 C6          29.4441  36.2577  39.9800 C.3            1 <1>                0.0000
      7 C7          31.3993  35.4106  38.6660 C.ar           1 <1>                0.0000
      8 C8          32.2695  35.4832  37.6015 C.ar           1 <1>                0.0000
      9 C9          32.1312  36.5065  36.6559 C.ar           1 <1>                0.0000
     10 C10         33.0548  36.5910  35.5182 C.2            1 <1>                0.0000
     11 O11         32.9296  37.4776  34.7000 O.2            1 <1>                0.0000
     12 H12         30.2765  40.3684  35.5318 H              1 <1>                0.0000
     13 H13         29.3162  39.4181  36.6906 H              1 <1>                0.0000
     14 H14         30.8941  40.0831  37.1766 H              1 <1>                0.0000
     15 H15         29.4539  38.0940  38.0092 H              1 <1>                0.0000
     16 H16         28.5864  35.6429  39.7070 H              1 <1>                0.0000
     17 H17         29.9587  35.8070  40.8286 H              1 <1>                0.0000
     18 H18         29.1033  37.2570  40.2509 H              1 <1>                0.0000
     19 H19         31.5043  34.6185  39.3926 H              1 <1>                0.0000
     20 H20         33.0549  34.7497  37.4939 H              1 <1>                0.0000
     21 H21         33.8458  35.8637  35.4097 H              1 <1>                0.0000
@<TRIPOS>BOND
    1    1    2 1     
    2    1   12 1     
    3    1   13 1     
    4    1   14 1     
    5    2    3 1     
    6    3    4 ar    
    7    3    9 ar    
    8    4    5 ar    
    9    4   15 1     
   10    5    6 1     
   11    5    7 ar    
   12    6   16 1     
   13    6   17 1     
   14    6   18 1     
   15    7    8 ar    
   16    7   19 1     
   17    8    9 ar    
   18    8   20 1     
   19    9   10 1     
   20   10   11 2     
   21   10   21 1     
@<TRIPOS>SUBSTRUCTURE
      1 ****           1
@<TRIPOS>COMMENT
> <Gold.Version>
2022.2.0

> <Gold.Id.Protein>
1qkm|1qkm_protein|mol2

> <Gold.Protein.RotatedTorsions>
[  496  491  490  487 ] final -132.29 input  -89.99 | X-H torsion

> <Gold.Protein.ActiveResidues>
 MET295  LEU298  THR299  LEU301  ALA302  GLU305  TRP335  MET336  LEU339  MET340 
 GLY342  LEU343  ARG346  PHE356  ILE373  ILE376  PHE377  LEU380  LYS471  GLY472 
 MET473  HIS475  LEU476  LEU477  ASN478  MET479  VAL484  VAL487 

> <Gold.Protein.RotatedAtoms>
   37.1215   34.1881   40.7418 H   0  0  0  0  0  0  0  0  0  0  0  0  # atno 496  bound_to 491 

> <Gold.Score>
     Score     S(PLP)   S(hbond)     S(cho)   S(metal)  DE(clash)   DE(tors)     intcor
     35.97     -36.00       0.00       0.00       0.00       0.00       0.35       0.67

> <Gold.PLP.Fitness>
35.9709

> <Gold.PLP.PLP>
-36.0009

> <Gold.PLP.part.hbond>
0.0000

> <Gold.PLP.part.metal>
0.0000

> <Gold.PLP.part.buried>
-2.9179

> <Gold.PLP.part.nonpolar>
-33.5925

> <Gold.PLP.part.repulsive>
0.1570

> <Gold.PLP.ligand.clash>
0.0000

> <Gold.PLP.ligand.torsion>
0.3495

> <Gold.PLP.Chemscore.Hbond>
0.0000

> <Gold.PLP.Chemscore.CHOScore>
0.0000

> <Gold.PLP.Chemscore.Metal>
0.0000

> <Gold.PLP.Chemscore.Internal.Correction>
0.6690

