#       Name:                EN300-110529_i001
#       Creating user name   aseyller
#       Creation time:       Fri Apr 21 18:22:00 2023


#       File generated by GOLD software.
#

@<TRIPOS>MOLECULE
EN300-110529_i001|benzaldehydes|mol2|513|dock1
    21    21     1
SMALL
USER_CHARGES


@<TRIPOS>ATOM
      1 C1          32.9506  36.9923  34.9964 C.3            1 <1>                0.0000
      2 O2          32.2346  37.8017  35.9314 O.3            1 <1>                0.0000
      3 C3          31.5872  37.1579  36.9339 C.ar           1 <1>                0.0000
      4 C4          32.0027  35.8970  37.3352 C.ar           1 <1>                0.0000
      5 C5          31.3425  35.2425  38.3559 C.ar           1 <1>                0.0000
      6 C6          31.8004  33.8726  38.7858 C.3            1 <1>                0.0000
      7 C7          30.2617  35.8370  38.9885 C.ar           1 <1>                0.0000
      8 C8          29.8336  37.0881  38.6051 C.ar           1 <1>                0.0000
      9 C9          30.4960  37.7668  37.5751 C.ar           1 <1>                0.0000
     10 C10         30.0460  39.1009  37.1603 C.2            1 <1>                0.0000
     11 O11         30.6137  39.6793  36.2578 O.2            1 <1>                0.0000
     12 H12         33.4211  37.6307  34.2487 H              1 <1>                0.0000
     13 H13         33.7171  36.4222  35.5215 H              1 <1>                0.0000
     14 H14         32.2598  36.3065  34.5060 H              1 <1>                0.0000
     15 H15         32.8437  35.4260  36.8480 H              1 <1>                0.0000
     16 H16         32.5464  33.9697  39.5746 H              1 <1>                0.0000
     17 H17         30.9480  33.3054  39.1598 H              1 <1>                0.0000
     18 H18         32.2378  33.3518  37.9340 H              1 <1>                0.0000
     19 H19         29.7527  35.3159  39.7858 H              1 <1>                0.0000
     20 H20         28.9909  37.5469  39.1008 H              1 <1>                0.0000
     21 H21         29.2091  39.5676  37.6587 H              1 <1>                0.0000
@<TRIPOS>BOND
    1    1    2 1     
    2    1   12 1     
    3    1   13 1     
    4    1   14 1     
    5    2    3 1     
    6    3    4 ar    
    7    3    9 ar    
    8    4    5 ar    
    9    4   15 1     
   10    5    6 1     
   11    5    7 ar    
   12    6   16 1     
   13    6   17 1     
   14    6   18 1     
   15    7    8 ar    
   16    7   19 1     
   17    8    9 ar    
   18    8   20 1     
   19    9   10 1     
   20   10   11 2     
   21   10   21 1     
@<TRIPOS>SUBSTRUCTURE
      1 ****           1
@<TRIPOS>COMMENT
> <Gold.Version>
2022.2.0

> <Gold.Id.Protein>
1qkm|1qkm_protein|mol2

> <Gold.Protein.RotatedTorsions>
[  496  491  490  487 ] final -127.67 input  -89.99 | X-H torsion

> <Gold.Protein.ActiveResidues>
 MET295  LEU298  THR299  LEU301  ALA302  GLU305  TRP335  MET336  LEU339  MET340 
 GLY342  LEU343  ARG346  PHE356  ILE373  ILE376  PHE377  LEU380  LYS471  GLY472 
 MET473  HIS475  LEU476  LEU477  ASN478  MET479  VAL484  VAL487 

> <Gold.Protein.RotatedAtoms>
   37.0872   34.2535   40.7595 H   0  0  0  0  0  0  0  0  0  0  0  0  # atno 496  bound_to 491 

> <Gold.Score>
     Score     S(PLP)   S(hbond)     S(cho)   S(metal)  DE(clash)   DE(tors)     intcor
     37.03     -37.04       0.00       0.00       0.00       0.00       0.34       0.67

> <Gold.PLP.Fitness>
37.0345

> <Gold.PLP.PLP>
-37.0408

> <Gold.PLP.part.hbond>
0.0000

> <Gold.PLP.part.metal>
0.0000

> <Gold.PLP.part.buried>
-2.8905

> <Gold.PLP.part.nonpolar>
-34.5812

> <Gold.PLP.part.repulsive>
0.0306

> <Gold.PLP.ligand.clash>
0.0000

> <Gold.PLP.ligand.torsion>
0.3376

> <Gold.PLP.Chemscore.Hbond>
0.0000

> <Gold.PLP.Chemscore.CHOScore>
0.0000

> <Gold.PLP.Chemscore.Metal>
0.0000

> <Gold.PLP.Chemscore.Internal.Correction>
0.6690

