#       Name:                EN300-110529_i001
#       Creating user name   aseyller
#       Creation time:       Fri Apr 21 18:22:07 2023


#       File generated by GOLD software.
#

@<TRIPOS>MOLECULE
EN300-110529_i001|benzaldehydes|mol2|513|dock18
    21    21     1
SMALL
USER_CHARGES


@<TRIPOS>ATOM
      1 C1          32.0284  33.5599  38.1556 C.3            1 <1>                0.0000
      2 O2          32.0811  34.9560  37.8555 O.3            1 <1>                0.0000
      3 C3          31.0598  35.7227  38.3113 C.ar           1 <1>                0.0000
      4 C4          30.3122  35.3097  39.4040 C.ar           1 <1>                0.0000
      5 C5          29.2726  36.0913  39.8671 C.ar           1 <1>                0.0000
      6 C6          28.4651  35.6352  41.0550 C.3            1 <1>                0.0000
      7 C7          28.9667  37.2929  39.2473 C.ar           1 <1>                0.0000
      8 C8          29.6967  37.7208  38.1613 C.ar           1 <1>                0.0000
      9 C9          30.7574  36.9419  37.6831 C.ar           1 <1>                0.0000
     10 C10         31.5407  37.3908  36.5257 C.2            1 <1>                0.0000
     11 O11         31.2587  38.4311  35.9692 O.2            1 <1>                0.0000
     12 H12         32.9029  33.0644  37.7342 H              1 <1>                0.0000
     13 H13         32.0176  33.4208  39.2367 H              1 <1>                0.0000
     14 H14         31.1242  33.1296  37.7249 H              1 <1>                0.0000
     15 H15         30.5432  34.3749  39.8932 H              1 <1>                0.0000
     16 H16         28.9189  36.0151  41.9704 H              1 <1>                0.0000
     17 H17         27.4469  36.0148  40.9696 H              1 <1>                0.0000
     18 H18         28.4454  34.5457  41.0843 H              1 <1>                0.0000
     19 H19         28.1513  37.8963  39.6180 H              1 <1>                0.0000
     20 H20         29.4543  38.6575  37.6816 H              1 <1>                0.0000
     21 H21         32.3682  36.7950  36.1698 H              1 <1>                0.0000
@<TRIPOS>BOND
    1    1    2 1     
    2    1   12 1     
    3    1   13 1     
    4    1   14 1     
    5    2    3 1     
    6    3    4 ar    
    7    3    9 ar    
    8    4    5 ar    
    9    4   15 1     
   10    5    6 1     
   11    5    7 ar    
   12    6   16 1     
   13    6   17 1     
   14    6   18 1     
   15    7    8 ar    
   16    7   19 1     
   17    8    9 ar    
   18    8   20 1     
   19    9   10 1     
   20   10   11 2     
   21   10   21 1     
@<TRIPOS>SUBSTRUCTURE
      1 ****           1
@<TRIPOS>COMMENT
> <Gold.Version>
2022.2.0

> <Gold.Id.Protein>
1qkm|1qkm_protein|mol2

> <Gold.Protein.RotatedTorsions>
[  496  491  490  487 ] final   88.43 input  -89.99 | X-H torsion

> <Gold.Protein.ActiveResidues>
 MET295  LEU298  THR299  LEU301  ALA302  GLU305  TRP335  MET336  LEU339  MET340 
 GLY342  LEU343  ARG346  PHE356  ILE373  ILE376  PHE377  LEU380  LYS471  GLY472 
 MET473  HIS475  LEU476  LEU477  ASN478  MET479  VAL484  VAL487 

> <Gold.Protein.RotatedAtoms>
   36.8057   33.0326   42.0428 H   0  0  0  0  0  0  0  0  0  0  0  0  # atno 496  bound_to 491 

> <Gold.Score>
     Score     S(PLP)   S(hbond)     S(cho)   S(metal)  DE(clash)   DE(tors)     intcor
     34.75     -34.76       0.00       0.00       0.00       0.00       0.34       0.67

> <Gold.PLP.Fitness>
34.7521

> <Gold.PLP.PLP>
-34.7565

> <Gold.PLP.part.hbond>
0.0000

> <Gold.PLP.part.metal>
0.0000

> <Gold.PLP.part.buried>
-1.5222

> <Gold.PLP.part.nonpolar>
-33.1127

> <Gold.PLP.part.repulsive>
0.0403

> <Gold.PLP.ligand.clash>
0.0000

> <Gold.PLP.ligand.torsion>
0.3367

> <Gold.PLP.Chemscore.Hbond>
0.0000

> <Gold.PLP.Chemscore.CHOScore>
0.0000

> <Gold.PLP.Chemscore.Metal>
0.0000

> <Gold.PLP.Chemscore.Internal.Correction>
0.6690

