#       Name:                EN300-110529_i001
#       Creating user name   aseyller
#       Creation time:       Fri Apr 21 18:22:05 2023


#       File generated by GOLD software.
#

@<TRIPOS>MOLECULE
EN300-110529_i001|benzaldehydes|mol2|513|dock13
    21    21     1
SMALL
USER_CHARGES


@<TRIPOS>ATOM
      1 C1          31.0219  35.7971  38.7996 C.3            1 <1>                0.0000
      2 O2          30.4918  37.0470  38.3537 O.3            1 <1>                0.0000
      3 C3          29.1530  37.2257  38.4732 C.ar           1 <1>                0.0000
      4 C4          28.4542  36.5972  39.4931 C.ar           1 <1>                0.0000
      5 C5          27.0911  36.7800  39.6136 C.ar           1 <1>                0.0000
      6 C6          26.3394  36.0934  40.7247 C.3            1 <1>                0.0000
      7 C7          26.4092  37.5911  38.7199 C.ar           1 <1>                0.0000
      8 C8          27.0844  38.2240  37.7005 C.ar           1 <1>                0.0000
      9 C9          28.4677  38.0528  37.5682 C.ar           1 <1>                0.0000
     10 C10         29.1950  38.7239  36.4842 C.2            1 <1>                0.0000
     11 O11         30.4021  38.6273  36.4130 O.2            1 <1>                0.0000
     12 H12         32.1011  35.7853  38.6480 H              1 <1>                0.0000
     13 H13         30.8024  35.6666  39.8593 H              1 <1>                0.0000
     14 H14         30.5663  34.9859  38.2316 H              1 <1>                0.0000
     15 H15         28.9772  35.9633  40.1940 H              1 <1>                0.0000
     16 H16         26.3208  36.7381  41.6034 H              1 <1>                0.0000
     17 H17         25.3184  35.8904  40.4013 H              1 <1>                0.0000
     18 H18         26.8351  35.1549  40.9730 H              1 <1>                0.0000
     19 H19         25.3428  37.7270  38.8235 H              1 <1>                0.0000
     20 H20         26.5486  38.8546  37.0065 H              1 <1>                0.0000
     21 H21         28.6554  39.3036  35.7499 H              1 <1>                0.0000
@<TRIPOS>BOND
    1    1    2 1     
    2    1   12 1     
    3    1   13 1     
    4    1   14 1     
    5    2    3 1     
    6    3    4 ar    
    7    3    9 ar    
    8    4    5 ar    
    9    4   15 1     
   10    5    6 1     
   11    5    7 ar    
   12    6   16 1     
   13    6   17 1     
   14    6   18 1     
   15    7    8 ar    
   16    7   19 1     
   17    8    9 ar    
   18    8   20 1     
   19    9   10 1     
   20   10   11 2     
   21   10   21 1     
@<TRIPOS>SUBSTRUCTURE
      1 ****           1
@<TRIPOS>COMMENT
> <Gold.Version>
2022.2.0

> <Gold.Id.Protein>
1qkm|1qkm_protein|mol2

> <Gold.Protein.RotatedTorsions>
[  496  491  490  487 ] final  -98.92 input  -89.99 | X-H torsion

> <Gold.Protein.ActiveResidues>
 MET295  LEU298  THR299  LEU301  ALA302  GLU305  TRP335  MET336  LEU339  MET340 
 GLY342  LEU343  ARG346  PHE356  ILE373  ILE376  PHE377  LEU380  LYS471  GLY472 
 MET473  HIS475  LEU476  LEU477  ASN478  MET479  VAL484  VAL487 

> <Gold.Protein.RotatedAtoms>
   36.8397   34.5852   40.9789 H   0  0  0  0  0  0  0  0  0  0  0  0  # atno 496  bound_to 491 

> <Gold.Score>
     Score     S(PLP)   S(hbond)     S(cho)   S(metal)  DE(clash)   DE(tors)     intcor
     36.12     -36.21       0.00       0.00       0.00       0.00       0.38       0.67

> <Gold.PLP.Fitness>
36.1232

> <Gold.PLP.PLP>
-36.2117

> <Gold.PLP.part.hbond>
0.0000

> <Gold.PLP.part.metal>
0.0000

> <Gold.PLP.part.buried>
-2.7396

> <Gold.PLP.part.nonpolar>
-33.7918

> <Gold.PLP.part.repulsive>
0.0302

> <Gold.PLP.ligand.clash>
0.0000

> <Gold.PLP.ligand.torsion>
0.3788

> <Gold.PLP.Chemscore.Hbond>
0.0000

> <Gold.PLP.Chemscore.CHOScore>
0.0000

> <Gold.PLP.Chemscore.Metal>
0.0000

> <Gold.PLP.Chemscore.Internal.Correction>
0.6690

