#       Name:                EN300-110529_i001
#       Creating user name   aseyller
#       Creation time:       Fri Apr 21 18:22:05 2023


#       File generated by GOLD software.
#

@<TRIPOS>MOLECULE
EN300-110529_i001|benzaldehydes|mol2|513|dock12
    21    21     1
SMALL
USER_CHARGES


@<TRIPOS>ATOM
      1 C1          31.8036  33.1707  38.2035 C.3            1 <1>                0.0000
      2 O2          32.2330  34.4367  37.6987 O.3            1 <1>                0.0000
      3 C3          31.4420  35.5057  37.9639 C.ar           1 <1>                0.0000
      4 C4          30.6221  35.5056  39.0825 C.ar           1 <1>                0.0000
      5 C5          29.8172  36.5945  39.3514 C.ar           1 <1>                0.0000
      6 C6          28.9293  36.5863  40.5689 C.3            1 <1>                0.0000
      7 C7          29.8206  37.6957  38.5093 C.ar           1 <1>                0.0000
      8 C8          30.6273  37.7157  37.3938 C.ar           1 <1>                0.0000
      9 C9          31.4531  36.6211  37.1105 C.ar           1 <1>                0.0000
     10 C10         32.3161  36.6344  35.9232 C.2            1 <1>                0.0000
     11 O11         32.2547  37.5577  35.1390 O.2            1 <1>                0.0000
     12 H12         32.5245  32.4036  37.9213 H              1 <1>                0.0000
     13 H13         31.7305  33.2186  39.2900 H              1 <1>                0.0000
     14 H14         30.8280  32.9244  37.7842 H              1 <1>                0.0000
     15 H15         30.6129  34.6519  39.7442 H              1 <1>                0.0000
     16 H16         29.4709  37.0061  41.4166 H              1 <1>                0.0000
     17 H17         28.0395  37.1849  40.3738 H              1 <1>                0.0000
     18 H18         28.6349  35.5618  40.7971 H              1 <1>                0.0000
     19 H19         29.1869  38.5422  38.7293 H              1 <1>                0.0000
     20 H20         30.6261  38.5758  36.7407 H              1 <1>                0.0000
     21 H21         33.0059  35.8220  35.7480 H              1 <1>                0.0000
@<TRIPOS>BOND
    1    1    2 1     
    2    1   12 1     
    3    1   13 1     
    4    1   14 1     
    5    2    3 1     
    6    3    4 ar    
    7    3    9 ar    
    8    4    5 ar    
    9    4   15 1     
   10    5    6 1     
   11    5    7 ar    
   12    6   16 1     
   13    6   17 1     
   14    6   18 1     
   15    7    8 ar    
   16    7   19 1     
   17    8    9 ar    
   18    8   20 1     
   19    9   10 1     
   20   10   11 2     
   21   10   21 1     
@<TRIPOS>SUBSTRUCTURE
      1 ****           1
@<TRIPOS>COMMENT
> <Gold.Version>
2022.2.0

> <Gold.Id.Protein>
1qkm|1qkm_protein|mol2

> <Gold.Protein.RotatedTorsions>
[  496  491  490  487 ] final   46.87 input  -89.99 | X-H torsion

> <Gold.Protein.ActiveResidues>
 MET295  LEU298  THR299  LEU301  ALA302  GLU305  TRP335  MET336  LEU339  MET340 
 GLY342  LEU343  ARG346  PHE356  ILE373  ILE376  PHE377  LEU380  LYS471  GLY472 
 MET473  HIS475  LEU476  LEU477  ASN478  MET479  VAL484  VAL487 

> <Gold.Protein.RotatedAtoms>
   36.4500   33.4995   42.3644 H   0  0  0  0  0  0  0  0  0  0  0  0  # atno 496  bound_to 491 

> <Gold.Score>
     Score     S(PLP)   S(hbond)     S(cho)   S(metal)  DE(clash)   DE(tors)     intcor
     36.50     -36.56       0.00       0.00       0.00       0.00       0.37       0.67

> <Gold.PLP.Fitness>
36.5013

> <Gold.PLP.PLP>
-36.5636

> <Gold.PLP.part.hbond>
0.0000

> <Gold.PLP.part.metal>
0.0000

> <Gold.PLP.part.buried>
-2.7905

> <Gold.PLP.part.nonpolar>
-34.1657

> <Gold.PLP.part.repulsive>
0.1291

> <Gold.PLP.ligand.clash>
0.0000

> <Gold.PLP.ligand.torsion>
0.3657

> <Gold.PLP.Chemscore.Hbond>
0.0000

> <Gold.PLP.Chemscore.CHOScore>
0.0000

> <Gold.PLP.Chemscore.Metal>
0.0000

> <Gold.PLP.Chemscore.Internal.Correction>
0.6690

