#       Name:                EN300-110529_i001
#       Creating user name   aseyller
#       Creation time:       Fri Apr 21 18:22:00 2023


#       File generated by GOLD software.
#

@<TRIPOS>MOLECULE
EN300-110529_i001
    21    21     1
SMALL
USER_CHARGES


@<TRIPOS>ATOM
      1 C1           0.3385   2.9026   0.0007 C.3            1 <1>                0.0000
      2 O2           1.2391   1.7931   0.0016 O.3            1 <1>                0.0000
      3 C3           0.6891   0.5537   0.0015 C.ar           1 <1>                0.0000
      4 C4          -0.6896   0.4030   0.0006 C.ar           1 <1>                0.0000
      5 C5          -1.2483  -0.8595   0.0006 C.ar           1 <1>                0.0000
      6 C6          -2.7473  -1.0144  -0.0004 C.3            1 <1>                0.0000
      7 C7          -0.4399  -1.9856   0.0009 C.ar           1 <1>                0.0000
      8 C8           0.9309  -1.8576   0.0018 C.ar           1 <1>                0.0000
      9 C9           1.5126  -0.5840  -0.0035 C.ar           1 <1>                0.0000
     10 C10          2.9732  -0.4388  -0.0026 C.2            1 <1>                0.0000
     11 O11          3.6807  -1.4241   0.0027 O.2            1 <1>                0.0000
     12 H12          0.9073   3.8323   0.0008 H              1 <1>                0.0000
     13 H13         -0.2889   2.8606  -0.8897 H              1 <1>                0.0000
     14 H14         -0.2900   2.8610   0.8903 H              1 <1>                0.0000
     15 H15         -1.3273   1.2747   0.0004 H              1 <1>                0.0000
     16 H16         -3.1081  -1.0520  -1.0283 H              1 <1>                0.0000
     17 H17         -3.0176  -1.9369   0.5135 H              1 <1>                0.0000
     18 H18         -3.2006  -0.1664   0.5130 H              1 <1>                0.0000
     19 H19         -0.8877  -2.9684   0.0009 H              1 <1>                0.0000
     20 H20          1.5564  -2.7380   0.0024 H              1 <1>                0.0000
     21 H21          3.4180   0.5454  -0.0068 H              1 <1>                0.0000
@<TRIPOS>BOND
    1    1    2 1     
    2    1   12 1     
    3    1   13 1     
    4    1   14 1     
    5    2    3 1     
    6    3    4 ar    
    7    3    9 ar    
    8    4    5 ar    
    9    4   15 1     
   10    5    6 1     
   11    5    7 ar    
   12    6   16 1     
   13    6   17 1     
   14    6   18 1     
   15    7    8 ar    
   16    7   19 1     
   17    8    9 ar    
   18    8   20 1     
   19    9   10 1     
   20   10   11 2     
   21   10   21 1     
@<TRIPOS>SUBSTRUCTURE
      1 ****           1
