#       Name:                EN300-110529_i001
#       Creating user name   aseyller
#       Creation time:       Fri Apr 21 18:22:04 2023


#       File generated by GOLD software.
#

@<TRIPOS>MOLECULE
EN300-110529_i001|benzaldehydes|mol2|513|dock10
    21    21     1
SMALL
USER_CHARGES


@<TRIPOS>ATOM
      1 C1          28.4998  35.8517  41.7951 C.3            1 <1>                0.0000
      2 O2          27.6598  35.9979  40.6483 O.3            1 <1>                0.0000
      3 C3          28.2174  36.5519  39.5434 C.ar           1 <1>                0.0000
      4 C4          29.5711  36.3891  39.2896 C.ar           1 <1>                0.0000
      5 C5          30.1376  36.9538  38.1643 C.ar           1 <1>                0.0000
      6 C6          31.6093  36.7722  37.8960 C.3            1 <1>                0.0000
      7 C7          29.3618  37.6861  37.2792 C.ar           1 <1>                0.0000
      8 C8          28.0161  37.8593  37.5129 C.ar           1 <1>                0.0000
      9 C9          27.4259  37.2885  38.6470 C.ar           1 <1>                0.0000
     10 C10         25.9919  37.4684  38.9035 C.2            1 <1>                0.0000
     11 O11         25.5052  37.0630  39.9380 O.2            1 <1>                0.0000
     12 H12         27.9314  35.3968  42.6062 H              1 <1>                0.0000
     13 H13         29.3487  35.2153  41.5449 H              1 <1>                0.0000
     14 H14         28.8602  36.8314  42.1087 H              1 <1>                0.0000
     15 H15         30.1834  35.8202  39.9737 H              1 <1>                0.0000
     16 H16         31.7618  35.8723  37.3000 H              1 <1>                0.0000
     17 H17         31.9889  37.6370  37.3519 H              1 <1>                0.0000
     18 H18         32.1420  36.6758  38.8421 H              1 <1>                0.0000
     19 H19         29.8154  38.1234  36.4020 H              1 <1>                0.0000
     20 H20         27.4160  38.4310  36.8205 H              1 <1>                0.0000
     21 H21         25.3701  37.9619  38.1712 H              1 <1>                0.0000
@<TRIPOS>BOND
    1    1    2 1     
    2    1   12 1     
    3    1   13 1     
    4    1   14 1     
    5    2    3 1     
    6    3    4 ar    
    7    3    9 ar    
    8    4    5 ar    
    9    4   15 1     
   10    5    6 1     
   11    5    7 ar    
   12    6   16 1     
   13    6   17 1     
   14    6   18 1     
   15    7    8 ar    
   16    7   19 1     
   17    8    9 ar    
   18    8   20 1     
   19    9   10 1     
   20   10   11 2     
   21   10   21 1     
@<TRIPOS>SUBSTRUCTURE
      1 ****           1
@<TRIPOS>COMMENT
> <Gold.Version>
2022.2.0

> <Gold.Id.Protein>
1qkm|1qkm_protein|mol2

> <Gold.Protein.RotatedTorsions>
[  496  491  490  487 ] final  160.50 input  -89.99 | X-H torsion

> <Gold.Protein.ActiveResidues>
 MET295  LEU298  THR299  LEU301  ALA302  GLU305  TRP335  MET336  LEU339  MET340 
 GLY342  LEU343  ARG346  PHE356  ILE373  ILE376  PHE377  LEU380  LYS471  GLY472 
 MET473  HIS475  LEU476  LEU477  ASN478  MET479  VAL484  VAL487 

> <Gold.Protein.RotatedAtoms>
   37.2980   33.2110   41.0643 H   0  0  0  0  0  0  0  0  0  0  0  0  # atno 496  bound_to 491 

> <Gold.Score>
     Score     S(PLP)   S(hbond)     S(cho)   S(metal)  DE(clash)   DE(tors)     intcor
     37.00     -37.09       0.00       0.00       0.00       0.00       0.38       0.67

> <Gold.PLP.Fitness>
36.9961

> <Gold.PLP.PLP>
-37.0906

> <Gold.PLP.part.hbond>
0.0000

> <Gold.PLP.part.metal>
0.0000

> <Gold.PLP.part.buried>
-3.3052

> <Gold.PLP.part.nonpolar>
-34.4396

> <Gold.PLP.part.repulsive>
0.2017

> <Gold.PLP.ligand.clash>
0.0000

> <Gold.PLP.ligand.torsion>
0.3817

> <Gold.PLP.Chemscore.Hbond>
0.0000

> <Gold.PLP.Chemscore.CHOScore>
0.0000

> <Gold.PLP.Chemscore.Metal>
0.0000

> <Gold.PLP.Chemscore.Internal.Correction>
0.6690

