#       Name:                EN300-110529_i001
#       Creating user name   aseyller
#       Creation time:       Fri Apr 21 18:22:01 2023


#       File generated by GOLD software.
#

@<TRIPOS>MOLECULE
EN300-110529_i001|benzaldehydes|mol2|513|dock2
    21    21     1
SMALL
USER_CHARGES


@<TRIPOS>ATOM
      1 C1          29.6977  39.3313  37.0915 C.3            1 <1>                0.0000
      2 O2          29.9961  37.9510  37.3098 O.3            1 <1>                0.0000
      3 C3          29.1554  37.2597  38.1184 C.ar           1 <1>                0.0000
      4 C4          27.8165  37.6129  38.1970 C.ar           1 <1>                0.0000
      5 C5          26.9615  36.9083  39.0208 C.ar           1 <1>                0.0000
      6 C6          25.5081  37.2986  39.1002 C.3            1 <1>                0.0000
      7 C7          27.4307  35.8439  39.7748 C.ar           1 <1>                0.0000
      8 C8          28.7563  35.4774  39.7112 C.ar           1 <1>                0.0000
      9 C9          29.6347  36.1788  38.8764 C.ar           1 <1>                0.0000
     10 C10         31.0493  35.7945  38.8027 C.2            1 <1>                0.0000
     11 O11         31.7863  36.3425  38.0103 O.2            1 <1>                0.0000
     12 H12         30.4462  39.7644  36.4282 H              1 <1>                0.0000
     13 H13         28.7118  39.4222  36.6354 H              1 <1>                0.0000
     14 H14         29.7072  39.8602  38.0446 H              1 <1>                0.0000
     15 H15         27.4421  38.4408  37.6131 H              1 <1>                0.0000
     16 H16         24.9428  36.7501  38.3467 H              1 <1>                0.0000
     17 H17         25.1212  37.0588  40.0906 H              1 <1>                0.0000
     18 H18         25.4090  38.3692  38.9209 H              1 <1>                0.0000
     19 H19         26.7530  35.2997  40.4160 H              1 <1>                0.0000
     20 H20         29.1170  34.6477  40.3009 H              1 <1>                0.0000
     21 H21         31.4341  35.0237  39.4542 H              1 <1>                0.0000
@<TRIPOS>BOND
    1    1    2 1     
    2    1   12 1     
    3    1   13 1     
    4    1   14 1     
    5    2    3 1     
    6    3    4 ar    
    7    3    9 ar    
    8    4    5 ar    
    9    4   15 1     
   10    5    6 1     
   11    5    7 ar    
   12    6   16 1     
   13    6   17 1     
   14    6   18 1     
   15    7    8 ar    
   16    7   19 1     
   17    8    9 ar    
   18    8   20 1     
   19    9   10 1     
   20   10   11 2     
   21   10   21 1     
@<TRIPOS>SUBSTRUCTURE
      1 ****           1
@<TRIPOS>COMMENT
> <Gold.Version>
2022.2.0

> <Gold.Id.Protein>
1qkm|1qkm_protein|mol2

> <Gold.Protein.RotatedTorsions>
[  496  491  490  487 ] final   45.27 input  -89.99 | X-H torsion

> <Gold.Protein.ActiveResidues>
 MET295  LEU298  THR299  LEU301  ALA302  GLU305  TRP335  MET336  LEU339  MET340 
 GLY342  LEU343  ARG346  PHE356  ILE373  ILE376  PHE377  LEU380  LYS471  GLY472 
 MET473  HIS475  LEU476  LEU477  ASN478  MET479  VAL484  VAL487 

> <Gold.Protein.RotatedAtoms>
   36.4388   33.5227   42.3690 H   0  0  0  0  0  0  0  0  0  0  0  0  # atno 496  bound_to 491 

> <Gold.Score>
     Score     S(PLP)   S(hbond)     S(cho)   S(metal)  DE(clash)   DE(tors)     intcor
     37.28     -37.38       0.00       0.00       0.00       0.00       0.38       0.67

> <Gold.PLP.Fitness>
37.2835

> <Gold.PLP.PLP>
-37.3781

> <Gold.PLP.part.hbond>
0.0000

> <Gold.PLP.part.metal>
0.0000

> <Gold.PLP.part.buried>
-2.8407

> <Gold.PLP.part.nonpolar>
-34.7288

> <Gold.PLP.part.repulsive>
0.0393

> <Gold.PLP.ligand.clash>
0.0000

> <Gold.PLP.ligand.torsion>
0.3818

> <Gold.PLP.Chemscore.Hbond>
0.0000

> <Gold.PLP.Chemscore.CHOScore>
0.0000

> <Gold.PLP.Chemscore.Metal>
0.0000

> <Gold.PLP.Chemscore.Internal.Correction>
0.6690

