#       Name:                EN300-110529_i001
#       Creating user name   aseyller
#       Creation time:       Fri Apr 21 18:22:08 2023


#       File generated by GOLD software.
#

@<TRIPOS>MOLECULE
EN300-110529_i001|benzaldehydes|mol2|513|dock19
    21    21     1
SMALL
USER_CHARGES


@<TRIPOS>ATOM
      1 C1          27.6492  38.7743  37.1891 C.3            1 <1>                0.0000
      2 O2          28.3925  37.5999  37.5212 O.3            1 <1>                0.0000
      3 C3          28.1592  37.0470  38.7371 C.ar           1 <1>                0.0000
      4 C4          26.9099  37.1641  39.3279 C.ar           1 <1>                0.0000
      5 C5          26.6737  36.6007  40.5660 C.ar           1 <1>                0.0000
      6 C6          25.3134  36.7325  41.2010 C.3            1 <1>                0.0000
      7 C7          27.6791  35.9141  41.2289 C.ar           1 <1>                0.0000
      8 C8          28.9262  35.7865  40.6596 C.ar           1 <1>                0.0000
      9 C9          29.1797  36.3478  39.4022 C.ar           1 <1>                0.0000
     10 C10         30.5065  36.2163  38.7883 C.2            1 <1>                0.0000
     11 O11         30.7509  36.7844  37.7447 O.2            1 <1>                0.0000
     12 H12         27.9309  39.1129  36.1922 H              1 <1>                0.0000
     13 H13         26.5833  38.5472  37.2080 H              1 <1>                0.0000
     14 H14         27.8664  39.5588  37.9142 H              1 <1>                0.0000
     15 H15         26.1205  37.6973  38.8189 H              1 <1>                0.0000
     16 H16         24.6889  35.8913  40.9002 H              1 <1>                0.0000
     17 H17         25.4178  36.7379  42.2860 H              1 <1>                0.0000
     18 H18         24.8495  37.6639  40.8761 H              1 <1>                0.0000
     19 H19         27.4833  35.4773  42.1970 H              1 <1>                0.0000
     20 H20         29.7062  35.2509  41.1802 H              1 <1>                0.0000
     21 H21         31.2651  35.6139  39.2658 H              1 <1>                0.0000
@<TRIPOS>BOND
    1    1    2 1     
    2    1   12 1     
    3    1   13 1     
    4    1   14 1     
    5    2    3 1     
    6    3    4 ar    
    7    3    9 ar    
    8    4    5 ar    
    9    4   15 1     
   10    5    6 1     
   11    5    7 ar    
   12    6   16 1     
   13    6   17 1     
   14    6   18 1     
   15    7    8 ar    
   16    7   19 1     
   17    8    9 ar    
   18    8   20 1     
   19    9   10 1     
   20   10   11 2     
   21   10   21 1     
@<TRIPOS>SUBSTRUCTURE
      1 ****           1
@<TRIPOS>COMMENT
> <Gold.Version>
2022.2.0

> <Gold.Id.Protein>
1qkm|1qkm_protein|mol2

> <Gold.Protein.RotatedTorsions>
[  496  491  490  487 ] final  -15.11 input  -89.99 | X-H torsion

> <Gold.Protein.ActiveResidues>
 MET295  LEU298  THR299  LEU301  ALA302  GLU305  TRP335  MET336  LEU339  MET340 
 GLY342  LEU343  ARG346  PHE356  ILE373  ILE376  PHE377  LEU380  LYS471  GLY472 
 MET473  HIS475  LEU476  LEU477  ASN478  MET479  VAL484  VAL487 

> <Gold.Protein.RotatedAtoms>
   36.2698   34.4133   42.0892 H   0  0  0  0  0  0  0  0  0  0  0  0  # atno 496  bound_to 491 

> <Gold.Score>
     Score     S(PLP)   S(hbond)     S(cho)   S(metal)  DE(clash)   DE(tors)     intcor
     37.66     -37.76       0.00       0.00       0.00       0.00       0.38       0.67

> <Gold.PLP.Fitness>
37.6641

> <Gold.PLP.PLP>
-37.7562

> <Gold.PLP.part.hbond>
0.0000

> <Gold.PLP.part.metal>
0.0000

> <Gold.PLP.part.buried>
-1.9218

> <Gold.PLP.part.nonpolar>
-36.6430

> <Gold.PLP.part.repulsive>
0.0101

> <Gold.PLP.ligand.clash>
0.0000

> <Gold.PLP.ligand.torsion>
0.3806

> <Gold.PLP.Chemscore.Hbond>
0.0000

> <Gold.PLP.Chemscore.CHOScore>
0.0000

> <Gold.PLP.Chemscore.Metal>
0.0000

> <Gold.PLP.Chemscore.Internal.Correction>
0.6690

