#       Name:                EN300-110529_i001
#       Creating user name   aseyller
#       Creation time:       Fri Apr 21 18:22:02 2023


#       File generated by GOLD software.
#

@<TRIPOS>MOLECULE
EN300-110529_i001|benzaldehydes|mol2|513|dock5
    21    21     1
SMALL
USER_CHARGES


@<TRIPOS>ATOM
      1 C1          28.7155  36.4410  40.9967 C.3            1 <1>                0.0000
      2 O2          28.7996  36.9474  39.6631 O.3            1 <1>                0.0000
      3 C3          29.8261  36.5003  38.8983 C.ar           1 <1>                0.0000
      4 C4          30.3442  35.2298  39.1008 C.ar           1 <1>                0.0000
      5 C5          31.3895  34.7758  38.3215 C.ar           1 <1>                0.0000
      6 C6          31.9465  33.3940  38.5481 C.3            1 <1>                0.0000
      7 C7          31.9297  35.5820  37.3317 C.ar           1 <1>                0.0000
      8 C8          31.4298  36.8463  37.1146 C.ar           1 <1>                0.0000
      9 C9          30.3664  37.3191  37.8932 C.ar           1 <1>                0.0000
     10 C10         29.8276  38.6657  37.6683 C.2            1 <1>                0.0000
     11 O11         30.2676  39.3530  36.7709 O.2            1 <1>                0.0000
     12 H12         27.8518  36.8781  41.4976 H              1 <1>                0.0000
     13 H13         28.6083  35.3566  40.9675 H              1 <1>                0.0000
     14 H14         29.6224  36.7019  41.5422 H              1 <1>                0.0000
     15 H15         29.9296  34.5947  39.8698 H              1 <1>                0.0000
     16 H16         31.4095  32.6789  37.9249 H              1 <1>                0.0000
     17 H17         33.0046  33.3814  38.2864 H              1 <1>                0.0000
     18 H18         31.8286  33.1221  39.5971 H              1 <1>                0.0000
     19 H19         32.7473  35.2166  36.7279 H              1 <1>                0.0000
     20 H20         31.8543  37.4707  36.3425 H              1 <1>                0.0000
     21 H21         29.0391  39.0446  38.3018 H              1 <1>                0.0000
@<TRIPOS>BOND
    1    1    2 1     
    2    1   12 1     
    3    1   13 1     
    4    1   14 1     
    5    2    3 1     
    6    3    4 ar    
    7    3    9 ar    
    8    4    5 ar    
    9    4   15 1     
   10    5    6 1     
   11    5    7 ar    
   12    6   16 1     
   13    6   17 1     
   14    6   18 1     
   15    7    8 ar    
   16    7   19 1     
   17    8    9 ar    
   18    8   20 1     
   19    9   10 1     
   20   10   11 2     
   21   10   21 1     
@<TRIPOS>SUBSTRUCTURE
      1 ****           1
@<TRIPOS>COMMENT
> <Gold.Version>
2022.2.0

> <Gold.Id.Protein>
1qkm|1qkm_protein|mol2

> <Gold.Protein.RotatedTorsions>
[  496  491  490  487 ] final   80.53 input  -89.99 | X-H torsion

> <Gold.Protein.ActiveResidues>
 MET295  LEU298  THR299  LEU301  ALA302  GLU305  TRP335  MET336  LEU339  MET340 
 GLY342  LEU343  ARG346  PHE356  ILE373  ILE376  PHE377  LEU380  LYS471  GLY472 
 MET473  HIS475  LEU476  LEU477  ASN478  MET479  VAL484  VAL487 

> <Gold.Protein.RotatedAtoms>
   36.7328   33.0949   42.1303 H   0  0  0  0  0  0  0  0  0  0  0  0  # atno 496  bound_to 491 

> <Gold.Score>
     Score     S(PLP)   S(hbond)     S(cho)   S(metal)  DE(clash)   DE(tors)     intcor
     37.48     -37.56       0.00       0.00       0.00       0.00       0.38       0.67

> <Gold.PLP.Fitness>
37.4769

> <Gold.PLP.PLP>
-37.5610

> <Gold.PLP.part.hbond>
0.0000

> <Gold.PLP.part.metal>
0.0000

> <Gold.PLP.part.buried>
-2.9616

> <Gold.PLP.part.nonpolar>
-35.4810

> <Gold.PLP.part.repulsive>
0.0364

> <Gold.PLP.ligand.clash>
0.0000

> <Gold.PLP.ligand.torsion>
0.3766

> <Gold.PLP.Chemscore.Hbond>
0.0000

> <Gold.PLP.Chemscore.CHOScore>
0.0000

> <Gold.PLP.Chemscore.Metal>
0.0000

> <Gold.PLP.Chemscore.Internal.Correction>
0.6690

