#       Name:                EN300-110529_i001
#       Creating user name   aseyller
#       Creation time:       Fri Apr 21 18:22:06 2023


#       File generated by GOLD software.
#

@<TRIPOS>MOLECULE
EN300-110529_i001|benzaldehydes|mol2|513|dock15
    21    21     1
SMALL
USER_CHARGES


@<TRIPOS>ATOM
      1 C1          28.7090  36.3859  41.1998 C.3            1 <1>                0.0000
      2 O2          29.2745  35.5308  40.2043 O.3            1 <1>                0.0000
      3 C3          29.8885  36.1303  39.1544 C.ar           1 <1>                0.0000
      4 C4          29.5194  37.4106  38.7694 C.ar           1 <1>                0.0000
      5 C5          30.1452  38.0198  37.7002 C.ar           1 <1>                0.0000
      6 C6          29.7382  39.4111  37.2885 C.3            1 <1>                0.0000
      7 C7          31.1459  37.3606  37.0031 C.ar           1 <1>                0.0000
      8 C8          31.5269  36.0893  37.3693 C.ar           1 <1>                0.0000
      9 C9          30.9053  35.4602  38.4547 C.ar           1 <1>                0.0000
     10 C10         31.3057  34.1050  38.8516 C.2            1 <1>                0.0000
     11 O11         32.1041  33.4870  38.1793 O.2            1 <1>                0.0000
     12 H12         28.2504  35.7802  41.9812 H              1 <1>                0.0000
     13 H13         29.4932  37.0061  41.6341 H              1 <1>                0.0000
     14 H14         27.9523  37.0240  40.7433 H              1 <1>                0.0000
     15 H15         28.7408  37.9318  39.3067 H              1 <1>                0.0000
     16 H16         30.3438  40.1409  37.8258 H              1 <1>                0.0000
     17 H17         29.8905  39.5318  36.2159 H              1 <1>                0.0000
     18 H18         28.6858  39.5670  37.5257 H              1 <1>                0.0000
     19 H19         31.6287  37.8467  36.1682 H              1 <1>                0.0000
     20 H20         32.3068  35.5799  36.8228 H              1 <1>                0.0000
     21 H21         30.8894  33.6580  39.7424 H              1 <1>                0.0000
@<TRIPOS>BOND
    1    1    2 1     
    2    1   12 1     
    3    1   13 1     
    4    1   14 1     
    5    2    3 1     
    6    3    4 ar    
    7    3    9 ar    
    8    4    5 ar    
    9    4   15 1     
   10    5    6 1     
   11    5    7 ar    
   12    6   16 1     
   13    6   17 1     
   14    6   18 1     
   15    7    8 ar    
   16    7   19 1     
   17    8    9 ar    
   18    8   20 1     
   19    9   10 1     
   20   10   11 2     
   21   10   21 1     
@<TRIPOS>SUBSTRUCTURE
      1 ****           1
@<TRIPOS>COMMENT
> <Gold.Version>
2022.2.0

> <Gold.Id.Protein>
1qkm|1qkm_protein|mol2

> <Gold.Protein.RotatedTorsions>
[  496  491  490  487 ] final  112.86 input  -89.99 | X-H torsion

> <Gold.Protein.ActiveResidues>
 MET295  LEU298  THR299  LEU301  ALA302  GLU305  TRP335  MET336  LEU339  MET340 
 GLY342  LEU343  ARG346  PHE356  ILE373  ILE376  PHE377  LEU380  LYS471  GLY472 
 MET473  HIS475  LEU476  LEU477  ASN478  MET479  VAL484  VAL487 

> <Gold.Protein.RotatedAtoms>
   37.0233   32.9400   41.7213 H   0  0  0  0  0  0  0  0  0  0  0  0  # atno 496  bound_to 491 

> <Gold.Score>
     Score     S(PLP)   S(hbond)     S(cho)   S(metal)  DE(clash)   DE(tors)     intcor
     36.30     -36.36       0.00       0.00       0.00       0.00       0.37       0.67

> <Gold.PLP.Fitness>
36.2979

> <Gold.PLP.PLP>
-36.3628

> <Gold.PLP.part.hbond>
0.0000

> <Gold.PLP.part.metal>
0.0000

> <Gold.PLP.part.buried>
-3.2540

> <Gold.PLP.part.nonpolar>
-33.9258

> <Gold.PLP.part.repulsive>
0.1395

> <Gold.PLP.ligand.clash>
0.0000

> <Gold.PLP.ligand.torsion>
0.3669

> <Gold.PLP.Chemscore.Hbond>
0.0000

> <Gold.PLP.Chemscore.CHOScore>
0.0000

> <Gold.PLP.Chemscore.Metal>
0.0000

> <Gold.PLP.Chemscore.Internal.Correction>
0.6690

