#       Name:                EN300-110529_i001
#       Creating user name   aseyller
#       Creation time:       Fri Apr 21 18:22:01 2023


#       File generated by GOLD software.
#

@<TRIPOS>MOLECULE
EN300-110529_i001|benzaldehydes|mol2|513|dock3
    21    21     1
SMALL
USER_CHARGES


@<TRIPOS>ATOM
      1 C1          29.9902  39.5827  37.0017 C.3            1 <1>                0.0000
      2 O2          29.7413  38.3184  37.6194 O.3            1 <1>                0.0000
      3 C3          30.7068  37.3739  37.4997 C.ar           1 <1>                0.0000
      4 C4          31.6097  37.4296  36.4484 C.ar           1 <1>                0.0000
      5 C5          32.5923  36.4673  36.3277 C.ar           1 <1>                0.0000
      6 C6          33.5694  36.5352  35.1824 C.3            1 <1>                0.0000
      7 C7          32.6866  35.4394  37.2529 C.ar           1 <1>                0.0000
      8 C8          31.8000  35.3661  38.3037 C.ar           1 <1>                0.0000
      9 C9          30.8013  36.3375  38.4428 C.ar           1 <1>                0.0000
     10 C10         29.8522  36.2667  39.5602 C.2            1 <1>                0.0000
     11 O11         28.8859  36.9996  39.5827 O.2            1 <1>                0.0000
     12 H12         29.1411  40.2442  37.1729 H              1 <1>                0.0000
     13 H13         30.8887  40.0262  37.4311 H              1 <1>                0.0000
     14 H14         30.1311  39.4420  35.9301 H              1 <1>                0.0000
     15 H15         31.5439  38.2268  35.7227 H              1 <1>                0.0000
     16 H16         34.4368  37.1248  35.4792 H              1 <1>                0.0000
     17 H17         33.8887  35.5274  34.9170 H              1 <1>                0.0000
     18 H18         33.0895  37.0024  34.3225 H              1 <1>                0.0000
     19 H19         33.4591  34.6920  37.1488 H              1 <1>                0.0000
     20 H20         31.8774  34.5632  39.0218 H              1 <1>                0.0000
     21 H21         30.0141  35.5619  40.3624 H              1 <1>                0.0000
@<TRIPOS>BOND
    1    1    2 1     
    2    1   12 1     
    3    1   13 1     
    4    1   14 1     
    5    2    3 1     
    6    3    4 ar    
    7    3    9 ar    
    8    4    5 ar    
    9    4   15 1     
   10    5    6 1     
   11    5    7 ar    
   12    6   16 1     
   13    6   17 1     
   14    6   18 1     
   15    7    8 ar    
   16    7   19 1     
   17    8    9 ar    
   18    8   20 1     
   19    9   10 1     
   20   10   11 2     
   21   10   21 1     
@<TRIPOS>SUBSTRUCTURE
      1 ****           1
@<TRIPOS>COMMENT
> <Gold.Version>
2022.2.0

> <Gold.Id.Protein>
1qkm|1qkm_protein|mol2

> <Gold.Protein.RotatedTorsions>
[  496  491  490  487 ] final  -69.26 input  -89.99 | X-H torsion

> <Gold.Protein.ActiveResidues>
 MET295  LEU298  THR299  LEU301  ALA302  GLU305  TRP335  MET336  LEU339  MET340 
 GLY342  LEU343  ARG346  PHE356  ILE373  ILE376  PHE377  LEU380  LYS471  GLY472 
 MET473  HIS475  LEU476  LEU477  ASN478  MET479  VAL484  VAL487 

> <Gold.Protein.RotatedAtoms>
   36.5720   34.7336   41.3522 H   0  0  0  0  0  0  0  0  0  0  0  0  # atno 496  bound_to 491 

> <Gold.Score>
     Score     S(PLP)   S(hbond)     S(cho)   S(metal)  DE(clash)   DE(tors)     intcor
     36.83     -36.88       0.00       0.00       0.00       0.00       0.36       0.67

> <Gold.PLP.Fitness>
36.8324

> <Gold.PLP.PLP>
-36.8807

> <Gold.PLP.part.hbond>
0.0000

> <Gold.PLP.part.metal>
0.0000

> <Gold.PLP.part.buried>
-2.6952

> <Gold.PLP.part.nonpolar>
-34.3356

> <Gold.PLP.part.repulsive>
0.0360

> <Gold.PLP.ligand.clash>
0.0000

> <Gold.PLP.ligand.torsion>
0.3587

> <Gold.PLP.Chemscore.Hbond>
0.0000

> <Gold.PLP.Chemscore.CHOScore>
0.0000

> <Gold.PLP.Chemscore.Metal>
0.0000

> <Gold.PLP.Chemscore.Internal.Correction>
0.6690

