#       Name:                EN300-110529_i001
#       Creating user name   aseyller
#       Creation time:       Fri Apr 21 18:22:06 2023


#       File generated by GOLD software.
#

@<TRIPOS>MOLECULE
EN300-110529_i001|benzaldehydes|mol2|513|dock14
    21    21     1
SMALL
USER_CHARGES


@<TRIPOS>ATOM
      1 C1          29.3420  39.4345  36.9946 C.3            1 <1>                0.0000
      2 O2          30.5709  38.7054  36.9757 O.3            1 <1>                0.0000
      3 C3          30.6072  37.5419  37.6712 C.ar           1 <1>                0.0000
      4 C4          29.7289  37.3313  38.7236 C.ar           1 <1>                0.0000
      5 C5          29.7670  36.1463  39.4309 C.ar           1 <1>                0.0000
      6 C6          28.8090  35.9254  40.5731 C.3            1 <1>                0.0000
      7 C7          30.6800  35.1580  39.0974 C.ar           1 <1>                0.0000
      8 C8          31.5606  35.3474  38.0561 C.ar           1 <1>                0.0000
      9 C9          31.5307  36.5417  37.3258 C.ar           1 <1>                0.0000
     10 C10         32.4660  36.7516  36.2142 C.2            1 <1>                0.0000
     11 O11         33.2440  35.8748  35.9024 O.2            1 <1>                0.0000
     12 H12         29.4489  40.3422  36.4009 H              1 <1>                0.0000
     13 H13         28.5470  38.8176  36.5754 H              1 <1>                0.0000
     14 H14         29.0927  39.6995  38.0221 H              1 <1>                0.0000
     15 H15         29.0141  38.0957  38.9906 H              1 <1>                0.0000
     16 H16         27.8967  35.4618  40.1977 H              1 <1>                0.0000
     17 H17         29.2707  35.2719  41.3133 H              1 <1>                0.0000
     18 H18         28.5668  36.8828  41.0345 H              1 <1>                0.0000
     19 H19         30.7011  34.2348  39.6576 H              1 <1>                0.0000
     20 H20         32.2702  34.5746  37.8004 H              1 <1>                0.0000
     21 H21         32.4613  37.6867  35.6739 H              1 <1>                0.0000
@<TRIPOS>BOND
    1    1    2 1     
    2    1   12 1     
    3    1   13 1     
    4    1   14 1     
    5    2    3 1     
    6    3    4 ar    
    7    3    9 ar    
    8    4    5 ar    
    9    4   15 1     
   10    5    6 1     
   11    5    7 ar    
   12    6   16 1     
   13    6   17 1     
   14    6   18 1     
   15    7    8 ar    
   16    7   19 1     
   17    8    9 ar    
   18    8   20 1     
   19    9   10 1     
   20   10   11 2     
   21   10   21 1     
@<TRIPOS>SUBSTRUCTURE
      1 ****           1
@<TRIPOS>COMMENT
> <Gold.Version>
2022.2.0

> <Gold.Id.Protein>
1qkm|1qkm_protein|mol2

> <Gold.Protein.RotatedTorsions>
[  496  491  490  487 ] final  158.73 input  -89.99 | X-H torsion

> <Gold.Protein.ActiveResidues>
 MET295  LEU298  THR299  LEU301  ALA302  GLU305  TRP335  MET336  LEU339  MET340 
 GLY342  LEU343  ARG346  PHE356  ILE373  ILE376  PHE377  LEU380  LYS471  GLY472 
 MET473  HIS475  LEU476  LEU477  ASN478  MET479  VAL484  VAL487 

> <Gold.Protein.RotatedAtoms>
   37.2932   33.1913   41.0855 H   0  0  0  0  0  0  0  0  0  0  0  0  # atno 496  bound_to 491 

> <Gold.Score>
     Score     S(PLP)   S(hbond)     S(cho)   S(metal)  DE(clash)   DE(tors)     intcor
     35.08     -35.08       0.00       0.00       0.00       0.00       0.34       0.67

> <Gold.PLP.Fitness>
35.0771

> <Gold.PLP.PLP>
-35.0825

> <Gold.PLP.part.hbond>
0.0000

> <Gold.PLP.part.metal>
0.0000

> <Gold.PLP.part.buried>
-1.8959

> <Gold.PLP.part.nonpolar>
-33.3610

> <Gold.PLP.part.repulsive>
0.0574

> <Gold.PLP.ligand.clash>
0.0009

> <Gold.PLP.ligand.torsion>
0.3367

> <Gold.PLP.Chemscore.Hbond>
0.0000

> <Gold.PLP.Chemscore.CHOScore>
0.0000

> <Gold.PLP.Chemscore.Metal>
0.0000

> <Gold.PLP.Chemscore.Internal.Correction>
0.6690

