#       Name:                EN300-110529_i001
#       Creating user name   aseyller
#       Creation time:       Fri Apr 21 18:22:08 2023


#       File generated by GOLD software.
#

@<TRIPOS>MOLECULE
EN300-110529_i001|benzaldehydes|mol2|513|dock20
    21    21     1
SMALL
USER_CHARGES


@<TRIPOS>ATOM
      1 C1          31.0191  35.7637  38.4698 C.3            1 <1>                0.0000
      2 O2          30.8490  37.1333  38.0992 O.3            1 <1>                0.0000
      3 C3          29.5768  37.5738  37.9374 C.ar           1 <1>                0.0000
      4 C4          28.5292  36.9290  38.5779 C.ar           1 <1>                0.0000
      5 C5          27.2344  37.3785  38.4122 C.ar           1 <1>                0.0000
      6 C6          26.1018  36.6722  39.1117 C.3            1 <1>                0.0000
      7 C7          26.9690  38.4755  37.6073 C.ar           1 <1>                0.0000
      8 C8          27.9948  39.1295  36.9628 C.ar           1 <1>                0.0000
      9 C9          29.3139  38.6889  37.1250 C.ar           1 <1>                0.0000
     10 C10         30.4133  39.3806  36.4414 C.2            1 <1>                0.0000
     11 O11         31.5190  38.8824  36.4132 O.2            1 <1>                0.0000
     12 H12         32.0820  35.5426  38.5659 H              1 <1>                0.0000
     13 H13         30.5223  35.5806  39.4226 H              1 <1>                0.0000
     14 H14         30.5826  35.1231  37.7035 H              1 <1>                0.0000
     15 H15         28.7265  36.0735  39.2069 H              1 <1>                0.0000
     16 H16         25.9410  37.1240  40.0906 H              1 <1>                0.0000
     17 H17         25.1935  36.7633  38.5160 H              1 <1>                0.0000
     18 H18         26.3514  35.6183  39.2346 H              1 <1>                0.0000
     19 H19         25.9523  38.8185  37.4848 H              1 <1>                0.0000
     20 H20         27.7829  39.9834  36.3365 H              1 <1>                0.0000
     21 H21         30.2378  40.3330  35.9634 H              1 <1>                0.0000
@<TRIPOS>BOND
    1    1    2 1     
    2    1   12 1     
    3    1   13 1     
    4    1   14 1     
    5    2    3 1     
    6    3    4 ar    
    7    3    9 ar    
    8    4    5 ar    
    9    4   15 1     
   10    5    6 1     
   11    5    7 ar    
   12    6   16 1     
   13    6   17 1     
   14    6   18 1     
   15    7    8 ar    
   16    7   19 1     
   17    8    9 ar    
   18    8   20 1     
   19    9   10 1     
   20   10   11 2     
   21   10   21 1     
@<TRIPOS>SUBSTRUCTURE
      1 ****           1
@<TRIPOS>COMMENT
> <Gold.Version>
2022.2.0

> <Gold.Id.Protein>
1qkm|1qkm_protein|mol2

> <Gold.Protein.RotatedTorsions>
[  496  491  490  487 ] final  -82.76 input  -89.99 | X-H torsion

> <Gold.Protein.ActiveResidues>
 MET295  LEU298  THR299  LEU301  ALA302  GLU305  TRP335  MET336  LEU339  MET340 
 GLY342  LEU343  ARG346  PHE356  ILE373  ILE376  PHE377  LEU380  LYS471  GLY472 
 MET473  HIS475  LEU476  LEU477  ASN478  MET479  VAL484  VAL487 

> <Gold.Protein.RotatedAtoms>
   36.6909   34.6942   41.1693 H   0  0  0  0  0  0  0  0  0  0  0  0  # atno 496  bound_to 491 

> <Gold.Score>
     Score     S(PLP)   S(hbond)     S(cho)   S(metal)  DE(clash)   DE(tors)     intcor
     36.16     -36.22       0.00       0.00       0.00       0.00       0.37       0.67

> <Gold.PLP.Fitness>
36.1607

> <Gold.PLP.PLP>
-36.2244

> <Gold.PLP.part.hbond>
0.0000

> <Gold.PLP.part.metal>
0.0000

> <Gold.PLP.part.buried>
-1.6593

> <Gold.PLP.part.nonpolar>
-34.5542

> <Gold.PLP.part.repulsive>
0.0212

> <Gold.PLP.ligand.clash>
0.0000

> <Gold.PLP.ligand.torsion>
0.3662

> <Gold.PLP.Chemscore.Hbond>
0.0000

> <Gold.PLP.Chemscore.CHOScore>
0.0000

> <Gold.PLP.Chemscore.Metal>
0.0000

> <Gold.PLP.Chemscore.Internal.Correction>
0.6688

