#       Name:                EN300-222254_i002
#       Creating user name   fsindt
#       Creation time:       Tue Feb 28 07:47:14 2023


#       File generated by GOLD software.
#

@<TRIPOS>MOLECULE
EN300-222254_i002|acide_2|mol2|3756|dock19
    24    25     1
SMALL
USER_CHARGES


@<TRIPOS>ATOM
      1 O1          -0.8660 -17.6449  15.2669 O.co2          1 <1>               -1.0000
      2 C2          -0.2189 -16.7730  14.7122 C.2            1 <1>                0.0000
      3 O3          -0.4006 -15.6023  15.0004 O.co2          1 <1>                0.0000
      4 C4           0.8099 -17.1428  13.6752 C.3            1 <1>                0.0000
      5 C5           2.1744 -16.4677  13.8928 C.3            1 <1>                0.0000
      6 C6           2.2369 -16.2804  12.3678 C.3            1 <1>                0.0000
      7 C7           0.6997 -16.3234  12.3785 C.3            1 <1>                0.0000
      8 C8           0.1093 -17.0939  11.2258 C.ar           1 <1>                0.0000
      9 C9          -0.2127 -18.4288  11.3797 C.ar           1 <1>                0.0000
     10 C10         -0.7539 -19.1365  10.3227 C.ar           1 <1>                0.0000
     11 C11         -0.9743 -18.5089   9.1096 C.ar           1 <1>                0.0000
     12 Cl12        -1.6545 -19.3985   7.7830 Cl             1 <1>                0.0000
     13 C13         -0.6529 -17.1725   8.9539 C.ar           1 <1>                0.0000
     14 C14         -0.1159 -16.4626  10.0139 C.ar           1 <1>                0.0000
     15 F15          0.1979 -15.1572   9.8632 F              1 <1>                0.0000
     16 H16          0.8763 -18.2180  13.5094 H              1 <1>                0.0000
     17 H17          2.1145 -15.5302  14.4458 H              1 <1>                0.0000
     18 H18          2.9379 -17.1415  14.2816 H              1 <1>                0.0000
     19 H19          2.6446 -15.3168  12.0626 H              1 <1>                0.0000
     20 H20          2.6935 -17.1197  11.8432 H              1 <1>                0.0000
     21 H21          0.2366 -15.3465  12.5174 H              1 <1>                0.0000
     22 H22         -0.0410 -18.9197  12.3264 H              1 <1>                0.0000
     23 H23         -1.0046 -20.1800  10.4438 H              1 <1>                0.0000
     24 H24         -0.8248 -16.6822   8.0071 H              1 <1>                0.0000
@<TRIPOS>BOND
    1    1    2 ar    
    2    2    3 ar    
    3    2    4 1     
    4    4    5 1     
    5    4    7 1     
    6    4   16 1     
    7    5    6 1     
    8    5   17 1     
    9    5   18 1     
   10    6    7 1     
   11    6   19 1     
   12    6   20 1     
   13    7    8 1     
   14    7   21 1     
   15    8    9 ar    
   16    8   14 ar    
   17    9   10 ar    
   18    9   22 1     
   19   10   11 ar    
   20   10   23 1     
   21   11   12 1     
   22   11   13 ar    
   23   13   14 ar    
   24   13   24 1     
   25   14   15 1     
@<TRIPOS>SUBSTRUCTURE
      1 ****           1
@<TRIPOS>COMMENT
> <Gold.Version>
2022.2.0

> <Gold.Id.Protein>
3pbl|protein|mol2

> <Gold.Protein.RotatedTorsions>
[ 1303 1298 1297 1294 ] final -171.32 input  179.99 | X-H torsion
[ 2461 2456 2455 2452 ] final  105.85 input   30.03 | X-H torsion
[ 2515 2510 2509 2506 ] final -152.29 input  -89.99 | X-H torsion
[ 3721 3712 3711 3710 ] final  -36.64 input -179.91 | X-H torsion
[ 3841 3832 3831 3830 ] final   90.73 input -179.91 | X-H torsion
[ 3767 3762 3761 3758 ] final  -16.31 input  -89.99 | X-H torsion
[ 2472 2467 2466 2463 ] final  -51.25 input  -89.97 | X-H torsion

> <Gold.Protein.ActiveResidues>
 VAL82   VAL86   LEU89   PHE106  VAL107  ASP110  VAL111  MET112  CYS114  THR115 
 CYS181  SER182  ILE183  PHE188  VAL189  ILE190  SER192  SER193  SER196  TRP342 
 PHE345  PHE346  HIS349  VAL350  TYR365  THR369  GLY372  TYR373 

> <Gold.Protein.RotatedAtoms>
    4.8021   -8.7678    4.6026 H   0  0  0  0  0  0  0  0  0  0  0  0  # atno 1303 bound_to 1298
    2.1603   -8.4770    7.9097 H   0  0  0  0  0  0  0  0  0  0  0  0  # atno 2461 bound_to 2456
   -3.6751   -5.1373    8.8358 H   0  0  0  0  0  0  0  0  0  0  0  0  # atno 2472 bound_to 2467
    2.5170   -9.2348    5.4855 H   0  0  0  0  0  0  0  0  0  0  0  0  # atno 2515 bound_to 2510
   -2.6413  -17.6247   14.6453 H   0  0  0  0  0  0  0  0  0  0  0  0  # atno 3721 bound_to 3712
   -5.4434  -22.5151   10.2756 H   0  0  0  0  0  0  0  0  0  0  0  0  # atno 3767 bound_to 3762
    2.8501  -20.9188    9.2560 H   0  0  0  0  0  0  0  0  0  0  0  0  # atno 3841 bound_to 3832
    4.1278  -10.2511    4.7090 LP  0  0  0  0  0  0  0  0  0  0  0  0  # atno 4297 bound_to 1298
    3.4320   -9.1026    3.7798 LP  0  0  0  0  0  0  0  0  0  0  0  0  # atno 4298 bound_to 1298
    0.8292   -8.0816    7.0500 LP  0  0  0  0  0  0  0  0  0  0  0  0  # atno 4299 bound_to 2456
    0.7486   -9.2495    8.1885 LP  0  0  0  0  0  0  0  0  0  0  0  0  # atno 4300 bound_to 2456
    2.0480   -7.7061    5.8152 LP  0  0  0  0  0  0  0  0  0  0  0  0  # atno 4301 bound_to 2510
    2.7317   -8.0578    4.3745 LP  0  0  0  0  0  0  0  0  0  0  0  0  # atno 4302 bound_to 2510
   -3.5651  -16.5578   13.8796 LP  0  0  0  0  0  0  0  0  0  0  0  0  # atno 4306 bound_to 3712
   -2.9131  -17.8205   13.0751 LP  0  0  0  0  0  0  0  0  0  0  0  0  # atno 4307 bound_to 3712
    1.3987  -20.2342    9.2301 LP  0  0  0  0  0  0  0  0  0  0  0  0  # atno 4314 bound_to 3832
    2.5383  -19.8067    8.1415 LP  0  0  0  0  0  0  0  0  0  0  0  0  # atno 4315 bound_to 3832
   -4.6216  -22.0720   11.6155 LP  0  0  0  0  0  0  0  0  0  0  0  0  # atno 4318 bound_to 3762
   -4.0627  -23.2880   10.6797 LP  0  0  0  0  0  0  0  0  0  0  0  0  # atno 4319 bound_to 3762
   -5.2572   -5.4160    9.1283 LP  0  0  0  0  0  0  0  0  0  0  0  0  # atno 4320 bound_to 2467
   -4.7845   -4.8402    7.6751 LP  0  0  0  0  0  0  0  0  0  0  0  0  # atno 4321 bound_to 2467

> <Gold.Score>
     Score     S(PLP)   S(hbond)     S(cho)   S(metal)  DE(clash)   DE(tors)     intcor
     44.39     -38.74       1.98       0.00       0.00       0.00       0.60       0.93

> <Gold.PLP.Fitness>
44.3895

> <Gold.PLP.PLP>
-38.7361

> <Gold.PLP.part.hbond>
-2.0000

> <Gold.PLP.part.metal>
0.0000

> <Gold.PLP.part.buried>
2.6102

> <Gold.PLP.part.nonpolar>
-40.7228

> <Gold.PLP.part.repulsive>
0.1573

> <Gold.PLP.ligand.clash>
0.0000

> <Gold.PLP.ligand.torsion>
0.6005

> <Gold.PLP.Chemscore.Hbond>
1.9760

> <Gold.PLP.Chemscore.CHOScore>
0.0000

> <Gold.PLP.Chemscore.Metal>
0.0000

> <Gold.Chemscore.Hbonds>
donor molecule, donor type, donor heavy atom, donor atom, acceptor molecule, acceptor atom, score
      P1  H  2305  2313       L1     3  0.98
      P1  H  3712  3721       L1     1  1.00

> <Gold.PLP.Chemscore.Internal.Correction>
0.9264

