#       Name:                EN300-222254_i002
#       Creating user name   fsindt
#       Creation time:       Tue Feb 28 07:47:08 2023


#       File generated by GOLD software.
#

@<TRIPOS>MOLECULE
EN300-222254_i002|acide_2|mol2|3756|dock6
    24    25     1
SMALL
USER_CHARGES


@<TRIPOS>ATOM
      1 O1          -2.6751 -23.2358  12.8380 O.co2          1 <1>               -1.0000
      2 C2          -1.6103 -23.3751  12.2605 C.2            1 <1>                0.0000
      3 O3          -1.5914 -23.5923  11.0608 O.co2          1 <1>                0.0000
      4 C4          -0.3177 -23.2725  13.0281 C.3            1 <1>                0.0000
      5 C5          -0.1644 -24.3421  14.1223 C.3            1 <1>                0.0000
      6 C6           0.4435 -23.2395  15.0051 C.3            1 <1>                0.0000
      7 C7          -0.3543 -22.2323  14.1602 C.3            1 <1>                0.0000
      8 C8           0.4076 -20.9708  13.8457 C.ar           1 <1>                0.0000
      9 C9           0.8337 -20.7246  12.5545 C.ar           1 <1>                0.0000
     10 C10          1.5332 -19.5678  12.2653 C.ar           1 <1>                0.0000
     11 C11          1.8069 -18.6550  13.2681 C.ar           1 <1>                0.0000
     12 Cl12         2.6849 -17.2023  12.9036 Cl             1 <1>                0.0000
     13 C13          1.3807 -18.8995  14.5612 C.ar           1 <1>                0.0000
     14 C14          0.6758 -20.0554  14.8497 C.ar           1 <1>                0.0000
     15 F15          0.2585 -20.2952  16.1121 F              1 <1>                0.0000
     16 H16          0.5538 -23.1834  12.3796 H              1 <1>                0.0000
     17 H17         -1.1146 -24.7252  14.4946 H              1 <1>                0.0000
     18 H18          0.5400 -25.1329  13.8644 H              1 <1>                0.0000
     19 H19          0.1230 -23.2870  16.0458 H              1 <1>                0.0000
     20 H20          1.5237 -23.1404  14.8979 H              1 <1>                0.0000
     21 H21         -1.3564 -22.0385  14.5428 H              1 <1>                0.0000
     22 H22          0.6206 -21.4367  11.7709 H              1 <1>                0.0000
     23 H23          1.8664 -19.3767  11.2559 H              1 <1>                0.0000
     24 H24          1.5942 -18.1872  15.3443 H              1 <1>                0.0000
@<TRIPOS>BOND
    1    1    2 ar    
    2    2    3 ar    
    3    2    4 1     
    4    4    5 1     
    5    4    7 1     
    6    4   16 1     
    7    5    6 1     
    8    5   17 1     
    9    5   18 1     
   10    6    7 1     
   11    6   19 1     
   12    6   20 1     
   13    7    8 1     
   14    7   21 1     
   15    8    9 ar    
   16    8   14 ar    
   17    9   10 ar    
   18    9   22 1     
   19   10   11 ar    
   20   10   23 1     
   21   11   12 1     
   22   11   13 ar    
   23   13   14 ar    
   24   13   24 1     
   25   14   15 1     
@<TRIPOS>SUBSTRUCTURE
      1 ****           1
@<TRIPOS>COMMENT
> <Gold.Version>
2022.2.0

> <Gold.Id.Protein>
3pbl|protein|mol2

> <Gold.Protein.RotatedTorsions>
[ 1303 1298 1297 1294 ] final   51.73 input  179.99 | X-H torsion
[ 2461 2456 2455 2452 ] final  130.70 input   30.03 | X-H torsion
[ 2515 2510 2509 2506 ] final  145.42 input  -89.99 | X-H torsion
[ 3721 3712 3711 3710 ] final -178.82 input -179.91 | X-H torsion
[ 3841 3832 3831 3830 ] final   35.22 input -179.91 | X-H torsion
[ 3767 3762 3761 3758 ] final  143.66 input  -89.99 | X-H torsion
[ 2472 2467 2466 2463 ] final   21.44 input  -89.97 | X-H torsion

> <Gold.Protein.ActiveResidues>
 VAL82   VAL86   LEU89   PHE106  VAL107  ASP110  VAL111  MET112  CYS114  THR115 
 CYS181  SER182  ILE183  PHE188  VAL189  ILE190  SER192  SER193  SER196  TRP342 
 PHE345  PHE346  HIS349  VAL350  TYR365  THR369  GLY372  TYR373 

> <Gold.Protein.RotatedAtoms>
    3.8966  -10.2690    4.5560 H   0  0  0  0  0  0  0  0  0  0  0  0  # atno 1303 bound_to 1298
    2.0561   -8.7721    8.1681 H   0  0  0  0  0  0  0  0  0  0  0  0  # atno 2461 bound_to 2456
   -4.0447   -4.8160    7.8314 H   0  0  0  0  0  0  0  0  0  0  0  0  # atno 2472 bound_to 2467
    2.1224   -8.5725    6.0823 H   0  0  0  0  0  0  0  0  0  0  0  0  # atno 2515 bound_to 2510
   -3.3242  -16.6008   13.5631 H   0  0  0  0  0  0  0  0  0  0  0  0  # atno 3721 bound_to 3712
   -3.9083  -22.9681   11.2177 H   0  0  0  0  0  0  0  0  0  0  0  0  # atno 3767 bound_to 3762
    2.1341  -20.8235    9.6140 H   0  0  0  0  0  0  0  0  0  0  0  0  # atno 3841 bound_to 3832
    3.5756   -8.8646    3.7872 LP  0  0  0  0  0  0  0  0  0  0  0  0  # atno 4297 bound_to 1298
    4.8900   -8.9874    4.7483 LP  0  0  0  0  0  0  0  0  0  0  0  0  # atno 4298 bound_to 1298
    1.2102   -7.9425    7.0440 LP  0  0  0  0  0  0  0  0  0  0  0  0  # atno 4299 bound_to 2456
    0.4717   -9.0937    7.9362 LP  0  0  0  0  0  0  0  0  0  0  0  0  # atno 4300 bound_to 2456
    2.3634   -7.4398    4.9315 LP  0  0  0  0  0  0  0  0  0  0  0  0  # atno 4301 bound_to 2510
    2.8111   -8.9867    4.6611 LP  0  0  0  0  0  0  0  0  0  0  0  0  # atno 4302 bound_to 2510
   -2.7395  -18.0809   13.3504 LP  0  0  0  0  0  0  0  0  0  0  0  0  # atno 4306 bound_to 3712
   -2.9504  -17.4795   14.8538 LP  0  0  0  0  0  0  0  0  0  0  0  0  # atno 4307 bound_to 3712
    1.6685  -19.6909    8.5765 LP  0  0  0  0  0  0  0  0  0  0  0  0  # atno 4314 bound_to 3832
    3.0957  -20.4601    8.3815 LP  0  0  0  0  0  0  0  0  0  0  0  0  # atno 4315 bound_to 3832
   -5.0647  -22.9923   10.0649 LP  0  0  0  0  0  0  0  0  0  0  0  0  # atno 4318 bound_to 3762
   -5.1541  -21.9148   11.2887 LP  0  0  0  0  0  0  0  0  0  0  0  0  # atno 4319 bound_to 3762
   -4.1646   -5.3791    9.3594 LP  0  0  0  0  0  0  0  0  0  0  0  0  # atno 4320 bound_to 2467
   -5.5075   -5.1984    8.4482 LP  0  0  0  0  0  0  0  0  0  0  0  0  # atno 4321 bound_to 2467

> <Gold.Score>
     Score     S(PLP)   S(hbond)     S(cho)   S(metal)  DE(clash)   DE(tors)     intcor
     40.18     -37.42       1.00       0.00       0.00       0.00       0.58       0.93

> <Gold.PLP.Fitness>
40.1846

> <Gold.PLP.PLP>
-37.4221

> <Gold.PLP.part.hbond>
-2.6805

> <Gold.PLP.part.metal>
0.0000

> <Gold.PLP.part.buried>
-3.3475

> <Gold.PLP.part.nonpolar>
-31.9492

> <Gold.PLP.part.repulsive>
0.1066

> <Gold.PLP.ligand.clash>
0.0000

> <Gold.PLP.ligand.torsion>
0.5819

> <Gold.PLP.Chemscore.Hbond>
1.0000

> <Gold.PLP.Chemscore.CHOScore>
0.0000

> <Gold.PLP.Chemscore.Metal>
0.0000

> <Gold.Chemscore.Hbonds>
donor molecule, donor type, donor heavy atom, donor atom, acceptor molecule, acceptor atom, score
      P1  H  3762  3767       L1     1  1.00

> <Gold.PLP.Chemscore.Internal.Correction>
0.9264

