#       Name:                EN300-222254_i002
#       Creating user name   fsindt
#       Creation time:       Tue Feb 28 07:47:06 2023


#       File generated by GOLD software.
#

@<TRIPOS>MOLECULE
EN300-222254_i002
    24    25     1
SMALL
USER_CHARGES


@<TRIPOS>ATOM
      1 O1          -3.6959   1.1804  -0.9382 O.co2          1 <1>               -1.0000
      2 C2          -2.4772   1.1824  -0.9754 C.2            1 <1>                0.0000
      3 O3          -1.8785   2.1977  -1.2875 O.co2          1 <1>                0.0000
      4 C4          -1.7108  -0.0681  -0.6296 C.3            1 <1>                0.0000
      5 C5          -2.5268  -1.0852   0.1856 C.3            1 <1>                0.0000
      6 C6          -1.2490  -1.3367   1.0033 C.3            1 <1>                0.0000
      7 C7          -0.8108   0.0834   0.6082 C.3            1 <1>                0.0000
      8 C8           0.6556   0.1929   0.2786 C.ar           1 <1>                0.0000
      9 C9           1.2766  -0.8043  -0.4489 C.ar           1 <1>                0.0000
     10 C10          2.6219  -0.7049  -0.7513 C.ar           1 <1>                0.0000
     11 C11          3.3479   0.3934  -0.3264 C.ar           1 <1>                0.0000
     12 Cl12         5.0371   0.5175  -0.7072 Cl             1 <1>                0.0000
     13 C13          2.7277   1.3929   0.4016 C.ar           1 <1>                0.0000
     14 C14          1.3795   1.2958   0.6999 C.ar           1 <1>                0.0000
     15 F15          0.7725   2.2715   1.4104 F              1 <1>                0.0000
     16 H16         -1.2029  -0.5047  -1.4895 H              1 <1>                0.0000
     17 H17         -3.3336  -0.6347   0.7638 H              1 <1>                0.0000
     18 H18         -2.8515  -1.9494  -0.3939 H              1 <1>                0.0000
     19 H19         -1.4306  -1.4563   2.0714 H              1 <1>                0.0000
     20 H20         -0.6137  -2.1204   0.5906 H              1 <1>                0.0000
     21 H21         -1.1484   0.8534   1.3019 H              1 <1>                0.0000
     22 H22          0.7107  -1.6622  -0.7811 H              1 <1>                0.0000
     23 H23          3.1065  -1.4852  -1.3194 H              1 <1>                0.0000
     24 H24          3.2941   2.2504   0.7335 H              1 <1>                0.0000
@<TRIPOS>BOND
    1    1    2 ar    
    2    2    3 ar    
    3    2    4 1     
    4    4    5 1     
    5    4    7 1     
    6    4   16 1     
    7    5    6 1     
    8    5   17 1     
    9    5   18 1     
   10    6    7 1     
   11    6   19 1     
   12    6   20 1     
   13    7    8 1     
   14    7   21 1     
   15    8    9 ar    
   16    8   14 ar    
   17    9   10 ar    
   18    9   22 1     
   19   10   11 ar    
   20   10   23 1     
   21   11   12 1     
   22   11   13 ar    
   23   13   14 ar    
   24   13   24 1     
   25   14   15 1     
@<TRIPOS>SUBSTRUCTURE
      1 ****           1
