#       Name:                EN300-222254_i002
#       Creating user name   fsindt
#       Creation time:       Tue Feb 28 07:47:06 2023


#       File generated by GOLD software.
#

@<TRIPOS>MOLECULE
EN300-222254_i002|acide_2|mol2|3756|dock1
    24    25     1
SMALL
USER_CHARGES


@<TRIPOS>ATOM
      1 O1           0.3779 -15.6016  14.6921 O.co2          1 <1>               -1.0000
      2 C2           0.7196 -16.0614  13.6158 C.2            1 <1>                0.0000
      3 O3           1.8368 -16.5307  13.4803 O.co2          1 <1>                0.0000
      4 C4          -0.2410 -16.0554  12.4548 C.3            1 <1>                0.0000
      5 C5          -0.3307 -17.4046  11.7223 C.3            1 <1>                0.0000
      6 C6          -0.3838 -16.6008  10.4125 C.3            1 <1>                0.0000
      7 C7           0.3603 -15.4822  11.1606 C.3            1 <1>                0.0000
      8 C8          -0.1351 -14.0989  10.8258 C.ar           1 <1>                0.0000
      9 C9          -0.9924 -13.4442  11.6893 C.ar           1 <1>                0.0000
     10 C10         -1.4477 -12.1754  11.3827 C.ar           1 <1>                0.0000
     11 C11         -1.0451 -11.5594  10.2112 C.ar           1 <1>                0.0000
     12 Cl12        -1.6170  -9.9659   9.8274 Cl             1 <1>                0.0000
     13 C13         -0.1865 -12.2132   9.3458 C.ar           1 <1>                0.0000
     14 C14          0.2735 -13.4815   9.6554 C.ar           1 <1>                0.0000
     15 F15          1.1125 -14.1209   8.8113 F              1 <1>                0.0000
     16 H16         -1.2123 -15.6324  12.7112 H              1 <1>                0.0000
     17 H17          0.5657 -18.0166  11.8231 H              1 <1>                0.0000
     18 H18         -1.2468 -17.9561  11.9336 H              1 <1>                0.0000
     19 H19          0.1958 -17.0455   9.6035 H              1 <1>                0.0000
     20 H20         -1.3941 -16.3263  10.1093 H              1 <1>                0.0000
     21 H21          1.4456 -15.5685  11.1078 H              1 <1>                0.0000
     22 H22         -1.3074 -13.9242  12.6042 H              1 <1>                0.0000
     23 H23         -2.1183 -11.6648  12.0580 H              1 <1>                0.0000
     24 H24          0.1280 -11.7327   8.4312 H              1 <1>                0.0000
@<TRIPOS>BOND
    1    1    2 ar    
    2    2    3 ar    
    3    2    4 1     
    4    4    5 1     
    5    4    7 1     
    6    4   16 1     
    7    5    6 1     
    8    5   17 1     
    9    5   18 1     
   10    6    7 1     
   11    6   19 1     
   12    6   20 1     
   13    7    8 1     
   14    7   21 1     
   15    8    9 ar    
   16    8   14 ar    
   17    9   10 ar    
   18    9   22 1     
   19   10   11 ar    
   20   10   23 1     
   21   11   12 1     
   22   11   13 ar    
   23   13   14 ar    
   24   13   24 1     
   25   14   15 1     
@<TRIPOS>SUBSTRUCTURE
      1 ****           1
@<TRIPOS>COMMENT
> <Gold.Version>
2022.2.0

> <Gold.Id.Protein>
3pbl|protein|mol2

> <Gold.Protein.RotatedTorsions>
[ 1303 1298 1297 1294 ] final  -19.18 input  179.99 | X-H torsion
[ 2461 2456 2455 2452 ] final -138.72 input   30.03 | X-H torsion
[ 2515 2510 2509 2506 ] final -179.01 input  -89.99 | X-H torsion
[ 3721 3712 3711 3710 ] final  -33.62 input -179.91 | X-H torsion
[ 3841 3832 3831 3830 ] final  -99.80 input -179.91 | X-H torsion
[ 3767 3762 3761 3758 ] final   15.18 input  -89.99 | X-H torsion
[ 2472 2467 2466 2463 ] final  144.27 input  -89.97 | X-H torsion

> <Gold.Protein.ActiveResidues>
 VAL82   VAL86   LEU89   PHE106  VAL107  ASP110  VAL111  MET112  CYS114  THR115 
 CYS181  SER182  ILE183  PHE188  VAL189  ILE190  SER192  SER193  SER196  TRP342 
 PHE345  PHE346  HIS349  VAL350  TYR365  THR369  GLY372  TYR373 

> <Gold.Protein.RotatedAtoms>
    3.3303   -9.5995    3.9026 H   0  0  0  0  0  0  0  0  0  0  0  0  # atno 1303 bound_to 1298
    0.8112   -9.2658    8.2267 H   0  0  0  0  0  0  0  0  0  0  0  0  # atno 2461 bound_to 2456
   -5.5098   -5.2151    8.4916 H   0  0  0  0  0  0  0  0  0  0  0  0  # atno 2472 bound_to 2467
    2.3305   -9.0472    5.8316 H   0  0  0  0  0  0  0  0  0  0  0  0  # atno 2515 bound_to 2510
   -2.6234  -17.6595   14.6218 H   0  0  0  0  0  0  0  0  0  0  0  0  # atno 3721 bound_to 3712
   -5.1666  -22.8980   10.0790 H   0  0  0  0  0  0  0  0  0  0  0  0  # atno 3767 bound_to 3762
    1.9633  -19.5875    8.6131 H   0  0  0  0  0  0  0  0  0  0  0  0  # atno 3841 bound_to 3832
    4.4844   -8.5079    4.2804 LP  0  0  0  0  0  0  0  0  0  0  0  0  # atno 4297 bound_to 1298
    4.5478  -10.0138    4.9088 LP  0  0  0  0  0  0  0  0  0  0  0  0  # atno 4298 bound_to 1298
    2.1608   -8.4238    7.8566 LP  0  0  0  0  0  0  0  0  0  0  0  0  # atno 4299 bound_to 2456
    0.7656   -8.1188    7.0649 LP  0  0  0  0  0  0  0  0  0  0  0  0  # atno 4300 bound_to 2456
    2.1449   -7.4674    5.4637 LP  0  0  0  0  0  0  0  0  0  0  0  0  # atno 4301 bound_to 2510
    2.8214   -8.4842    4.3797 LP  0  0  0  0  0  0  0  0  0  0  0  0  # atno 4302 bound_to 2510
   -3.5619  -16.5556   13.9300 LP  0  0  0  0  0  0  0  0  0  0  0  0  # atno 4306 bound_to 3712
   -2.9370  -17.7825   13.0520 LP  0  0  0  0  0  0  0  0  0  0  0  0  # atno 4307 bound_to 3712
    3.1276  -20.6913    8.5687 LP  0  0  0  0  0  0  0  0  0  0  0  0  # atno 4314 bound_to 3832
    1.8338  -20.8874    9.5455 LP  0  0  0  0  0  0  0  0  0  0  0  0  # atno 4315 bound_to 3832
   -5.0510  -21.9205   11.3820 LP  0  0  0  0  0  0  0  0  0  0  0  0  # atno 4318 bound_to 3762
   -3.9100  -23.0566   11.1098 LP  0  0  0  0  0  0  0  0  0  0  0  0  # atno 4319 bound_to 3762
   -4.0838   -4.8105    7.8066 LP  0  0  0  0  0  0  0  0  0  0  0  0  # atno 4320 bound_to 2467
   -4.1236   -5.3679    9.3410 LP  0  0  0  0  0  0  0  0  0  0  0  0  # atno 4321 bound_to 2467

> <Gold.Score>
     Score     S(PLP)   S(hbond)     S(cho)   S(metal)  DE(clash)   DE(tors)     intcor
     48.30     -45.40       1.00       0.00       0.00       0.00       0.51       0.93

> <Gold.PLP.Fitness>
48.3019

> <Gold.PLP.PLP>
-45.4033

> <Gold.PLP.part.hbond>
-1.0000

> <Gold.PLP.part.metal>
0.0000

> <Gold.PLP.part.buried>
-4.7548

> <Gold.PLP.part.nonpolar>
-40.8783

> <Gold.PLP.part.repulsive>
0.1274

> <Gold.PLP.ligand.clash>
0.0000

> <Gold.PLP.ligand.torsion>
0.5139

> <Gold.PLP.Chemscore.Hbond>
1.0000

> <Gold.PLP.Chemscore.CHOScore>
0.0000

> <Gold.PLP.Chemscore.Metal>
0.0000

> <Gold.Chemscore.Hbonds>
donor molecule, donor type, donor heavy atom, donor atom, acceptor molecule, acceptor atom, score
      P1  H  2305  2313       L1     1  1.00

> <Gold.PLP.Chemscore.Internal.Correction>
0.9264

