#       Name:                EN300-222254_i002
#       Creating user name   fsindt
#       Creation time:       Tue Feb 28 07:47:13 2023


#       File generated by GOLD software.
#

@<TRIPOS>MOLECULE
EN300-222254_i002|acide_2|mol2|3756|dock16
    24    25     1
SMALL
USER_CHARGES


@<TRIPOS>ATOM
      1 O1           1.6962 -14.4241   9.0663 O.co2          1 <1>               -1.0000
      2 C2           0.7784 -14.4710   8.2649 C.2            1 <1>                0.0000
      3 O3           0.2780 -15.5440   7.9733 O.co2          1 <1>                0.0000
      4 C4           0.2585 -13.2024   7.6397 C.3            1 <1>                0.0000
      5 C5           1.2379 -12.5605   6.6429 C.3            1 <1>                0.0000
      6 C6           0.8192 -11.2012   7.2275 C.3            1 <1>                0.0000
      7 C7           0.4584 -11.9558   8.5179 C.3            1 <1>                0.0000
      8 C8          -0.8094 -11.4665   9.1691 C.ar           1 <1>                0.0000
      9 C9          -1.4548 -10.3502   8.6725 C.ar           1 <1>                0.0000
     10 C10         -2.6177  -9.9002   9.2695 C.ar           1 <1>                0.0000
     11 C11         -3.1369 -10.5674  10.3645 C.ar           1 <1>                0.0000
     12 Cl12        -4.5976 -10.0019  11.1131 Cl             1 <1>                0.0000
     13 C13         -2.4924 -11.6855  10.8627 C.ar           1 <1>                0.0000
     14 C14         -1.3308 -12.1389  10.2617 C.ar           1 <1>                0.0000
     15 F15         -0.7006 -13.2310  10.7470 F              1 <1>                0.0000
     16 H16         -0.7545 -13.3063   7.2510 H              1 <1>                0.0000
     17 H17          2.2812 -12.8140   6.8310 H              1 <1>                0.0000
     18 H18          0.9501 -12.6945   5.6001 H              1 <1>                0.0000
     19 H19          1.6479 -10.5033   7.3470 H              1 <1>                0.0000
     20 H20         -0.0409 -10.7567   6.7267 H              1 <1>                0.0000
     21 H21          1.2886 -12.0441   9.2187 H              1 <1>                0.0000
     22 H22         -1.0503  -9.8285   7.8176 H              1 <1>                0.0000
     23 H23         -3.1211  -9.0272   8.8810 H              1 <1>                0.0000
     24 H24         -2.8973 -12.2065  11.7176 H              1 <1>                0.0000
@<TRIPOS>BOND
    1    1    2 ar    
    2    2    3 ar    
    3    2    4 1     
    4    4    5 1     
    5    4    7 1     
    6    4   16 1     
    7    5    6 1     
    8    5   17 1     
    9    5   18 1     
   10    6    7 1     
   11    6   19 1     
   12    6   20 1     
   13    7    8 1     
   14    7   21 1     
   15    8    9 ar    
   16    8   14 ar    
   17    9   10 ar    
   18    9   22 1     
   19   10   11 ar    
   20   10   23 1     
   21   11   12 1     
   22   11   13 ar    
   23   13   14 ar    
   24   13   24 1     
   25   14   15 1     
@<TRIPOS>SUBSTRUCTURE
      1 ****           1
@<TRIPOS>COMMENT
> <Gold.Version>
2022.2.0

> <Gold.Id.Protein>
3pbl|protein|mol2

> <Gold.Protein.RotatedTorsions>
[ 1303 1298 1297 1294 ] final   -7.88 input  179.99 | X-H torsion
[ 2461 2456 2455 2452 ] final   69.07 input   30.03 | X-H torsion
[ 2515 2510 2509 2506 ] final -171.45 input  -89.99 | X-H torsion
[ 3721 3712 3711 3710 ] final   -5.57 input -179.91 | X-H torsion
[ 3841 3832 3831 3830 ] final    1.07 input -179.91 | X-H torsion
[ 3767 3762 3761 3758 ] final  -19.45 input  -89.99 | X-H torsion
[ 2472 2467 2466 2463 ] final   98.02 input  -89.97 | X-H torsion

> <Gold.Protein.ActiveResidues>
 VAL82   VAL86   LEU89   PHE106  VAL107  ASP110  VAL111  MET112  CYS114  THR115 
 CYS181  SER182  ILE183  PHE188  VAL189  ILE190  SER192  SER193  SER196  TRP342 
 PHE345  PHE346  HIS349  VAL350  TYR365  THR369  GLY372  TYR373 

> <Gold.Protein.RotatedAtoms>
    3.3528   -9.7654    3.9826 H   0  0  0  0  0  0  0  0  0  0  0  0  # atno 1303 bound_to 1298
    2.0061   -8.0982    7.4774 H   0  0  0  0  0  0  0  0  0  0  0  0  # atno 2461 bound_to 2456
   -5.2040   -4.9569    7.8685 H   0  0  0  0  0  0  0  0  0  0  0  0  # atno 2472 bound_to 2467
    2.3827   -9.1182    5.7440 H   0  0  0  0  0  0  0  0  0  0  0  0  # atno 2515 bound_to 2510
   -2.5006  -17.9211   14.3175 H   0  0  0  0  0  0  0  0  0  0  0  0  # atno 3721 bound_to 3712
   -5.4599  -22.4768   10.3061 H   0  0  0  0  0  0  0  0  0  0  0  0  # atno 3767 bound_to 3762
    1.7461  -20.4989    9.5636 H   0  0  0  0  0  0  0  0  0  0  0  0  # atno 3841 bound_to 3832
    4.3397   -8.4778    4.1682 LP  0  0  0  0  0  0  0  0  0  0  0  0  # atno 4297 bound_to 1298
    4.6700   -9.8780    4.9410 LP  0  0  0  0  0  0  0  0  0  0  0  0  # atno 4298 bound_to 1298
    0.4242   -8.4524    7.2790 LP  0  0  0  0  0  0  0  0  0  0  0  0  # atno 4299 bound_to 2456
    1.3077   -9.2574    8.3916 LP  0  0  0  0  0  0  0  0  0  0  0  0  # atno 4300 bound_to 2456
    2.1101   -7.5176    5.5718 LP  0  0  0  0  0  0  0  0  0  0  0  0  # atno 4301 bound_to 2510
    2.8039   -8.3629    4.3591 LP  0  0  0  0  0  0  0  0  0  0  0  0  # atno 4302 bound_to 2510
   -3.4716  -16.6438   14.3764 LP  0  0  0  0  0  0  0  0  0  0  0  0  # atno 4306 bound_to 3712
   -3.1690  -17.3922   12.9569 LP  0  0  0  0  0  0  0  0  0  0  0  0  # atno 4307 bound_to 3712
    2.1285  -19.6508    8.2557 LP  0  0  0  0  0  0  0  0  0  0  0  0  # atno 4314 bound_to 3832
    3.0838  -20.8752    8.7605 LP  0  0  0  0  0  0  0  0  0  0  0  0  # atno 4315 bound_to 3832
   -4.5781  -22.0972   11.6271 LP  0  0  0  0  0  0  0  0  0  0  0  0  # atno 4318 bound_to 3762
   -4.0896  -23.3010   10.6377 LP  0  0  0  0  0  0  0  0  0  0  0  0  # atno 4319 bound_to 3762
   -3.6563   -4.9734    8.3889 LP  0  0  0  0  0  0  0  0  0  0  0  0  # atno 4320 bound_to 2467
   -4.8568   -5.4632    9.3816 LP  0  0  0  0  0  0  0  0  0  0  0  0  # atno 4321 bound_to 2467

> <Gold.Score>
     Score     S(PLP)   S(hbond)     S(cho)   S(metal)  DE(clash)   DE(tors)     intcor
     49.82     -50.32       0.00       0.00       0.00       0.00       0.71       0.93

> <Gold.PLP.Fitness>
49.8205

> <Gold.PLP.PLP>
-50.3188

> <Gold.PLP.part.hbond>
0.0000

> <Gold.PLP.part.metal>
0.0000

> <Gold.PLP.part.buried>
-2.8942

> <Gold.PLP.part.nonpolar>
-48.1631

> <Gold.PLP.part.repulsive>
0.3059

> <Gold.PLP.ligand.clash>
0.0000

> <Gold.PLP.ligand.torsion>
0.7124

> <Gold.PLP.Chemscore.Hbond>
0.0000

> <Gold.PLP.Chemscore.CHOScore>
0.0000

> <Gold.PLP.Chemscore.Metal>
0.0000

> <Gold.PLP.Chemscore.Internal.Correction>
0.9264

