#       Name:                EN300-222254_i002
#       Creating user name   fsindt
#       Creation time:       Tue Feb 28 07:47:12 2023


#       File generated by GOLD software.
#

@<TRIPOS>MOLECULE
EN300-222254_i002|acide_2|mol2|3756|dock13
    24    25     1
SMALL
USER_CHARGES


@<TRIPOS>ATOM
      1 O1          -1.1004 -17.6637  15.3020 O.co2          1 <1>               -1.0000
      2 C2          -0.0834 -17.2339  14.7846 C.2            1 <1>                0.0000
      3 O3           0.0620 -16.0331  14.6312 O.co2          1 <1>                0.0000
      4 C4           0.9964 -18.1865  14.3404 C.3            1 <1>                0.0000
      5 C5           1.9721 -17.5788  13.3188 C.3            1 <1>                0.0000
      6 C6           1.9378 -18.9359  12.5965 C.3            1 <1>                0.0000
      7 C7           0.5503 -19.1467  13.2250 C.3            1 <1>                0.0000
      8 C8           0.3114 -20.5562  13.7017 C.ar           1 <1>                0.0000
      9 C9           0.2397 -20.8251  15.0551 C.ar           1 <1>                0.0000
     10 C10          0.0211 -22.1179  15.4933 C.ar           1 <1>                0.0000
     11 C11         -0.1269 -23.1439  14.5772 C.ar           1 <1>                0.0000
     12 Cl12        -0.4020 -24.7669  15.1285 Cl             1 <1>                0.0000
     13 C13         -0.0559 -22.8765  13.2218 C.ar           1 <1>                0.0000
     14 C14          0.1578 -21.5811  12.7830 C.ar           1 <1>                0.0000
     15 F15          0.2268 -21.3185  11.4596 F              1 <1>                0.0000
     16 H16          1.4914 -18.6839  15.1744 H              1 <1>                0.0000
     17 H17          1.5428 -16.7633  12.7366 H              1 <1>                0.0000
     18 H18          2.9471 -17.3324  13.7392 H              1 <1>                0.0000
     19 H19          1.9167 -18.8517  11.5099 H              1 <1>                0.0000
     20 H20          2.6902 -19.6394  12.9530 H              1 <1>                0.0000
     21 H21         -0.2678 -18.7600  12.6173 H              1 <1>                0.0000
     22 H22          0.3551 -20.0248  15.7712 H              1 <1>                0.0000
     23 H23         -0.0341 -22.3271  16.5514 H              1 <1>                0.0000
     24 H24         -0.1713 -23.6771  12.5063 H              1 <1>                0.0000
@<TRIPOS>BOND
    1    1    2 ar    
    2    2    3 ar    
    3    2    4 1     
    4    4    5 1     
    5    4    7 1     
    6    4   16 1     
    7    5    6 1     
    8    5   17 1     
    9    5   18 1     
   10    6    7 1     
   11    6   19 1     
   12    6   20 1     
   13    7    8 1     
   14    7   21 1     
   15    8    9 ar    
   16    8   14 ar    
   17    9   10 ar    
   18    9   22 1     
   19   10   11 ar    
   20   10   23 1     
   21   11   12 1     
   22   11   13 ar    
   23   13   14 ar    
   24   13   24 1     
   25   14   15 1     
@<TRIPOS>SUBSTRUCTURE
      1 ****           1
@<TRIPOS>COMMENT
> <Gold.Version>
2022.2.0

> <Gold.Id.Protein>
3pbl|protein|mol2

> <Gold.Protein.RotatedTorsions>
[ 1303 1298 1297 1294 ] final   74.18 input  179.99 | X-H torsion
[ 2461 2456 2455 2452 ] final  178.79 input   30.03 | X-H torsion
[ 2515 2510 2509 2506 ] final   56.29 input  -89.99 | X-H torsion
[ 3721 3712 3711 3710 ] final  -26.10 input -179.91 | X-H torsion
[ 3841 3832 3831 3830 ] final  -32.39 input -179.91 | X-H torsion
[ 3767 3762 3761 3758 ] final -139.58 input  -89.99 | X-H torsion
[ 2472 2467 2466 2463 ] final -135.27 input  -89.97 | X-H torsion

> <Gold.Protein.ActiveResidues>
 VAL82   VAL86   LEU89   PHE106  VAL107  ASP110  VAL111  MET112  CYS114  THR115 
 CYS181  SER182  ILE183  PHE188  VAL189  ILE190  SER192  SER193  SER196  TRP342 
 PHE345  PHE346  HIS349  VAL350  TYR365  THR369  GLY372  TYR373 

> <Gold.Protein.RotatedAtoms>
    4.2033  -10.2282    4.7532 H   0  0  0  0  0  0  0  0  0  0  0  0  # atno 1303 bound_to 1298
    1.4696   -9.2106    8.4015 H   0  0  0  0  0  0  0  0  0  0  0  0  # atno 2461 bound_to 2456
   -4.7502   -5.4628    9.4108 H   0  0  0  0  0  0  0  0  0  0  0  0  # atno 2472 bound_to 2467
    2.1693   -7.4439    5.3941 H   0  0  0  0  0  0  0  0  0  0  0  0  # atno 2515 bound_to 2510
   -2.5825  -17.7414   14.5546 H   0  0  0  0  0  0  0  0  0  0  0  0  # atno 3721 bound_to 3712
   -4.5757  -22.0977   11.6273 H   0  0  0  0  0  0  0  0  0  0  0  0  # atno 3767 bound_to 3762
    1.5665  -20.1029    9.3202 H   0  0  0  0  0  0  0  0  0  0  0  0  # atno 3841 bound_to 3832
    3.3979   -9.1857    3.7884 LP  0  0  0  0  0  0  0  0  0  0  0  0  # atno 4297 bound_to 1298
    4.7609   -8.7070    4.5498 LP  0  0  0  0  0  0  0  0  0  0  0  0  # atno 4298 bound_to 1298
    1.9028   -8.0236    7.3668 LP  0  0  0  0  0  0  0  0  0  0  0  0  # atno 4299 bound_to 2456
    0.3655   -8.5741    7.3801 LP  0  0  0  0  0  0  0  0  0  0  0  0  # atno 4300 bound_to 2456
    2.8289   -8.5586    4.4000 LP  0  0  0  0  0  0  0  0  0  0  0  0  # atno 4301 bound_to 2510
    2.2986   -8.9970    5.8810 LP  0  0  0  0  0  0  0  0  0  0  0  0  # atno 4302 bound_to 2510
   -3.5482  -16.5602   14.0547 LP  0  0  0  0  0  0  0  0  0  0  0  0  # atno 4306 bound_to 3712
   -2.9980  -17.6834   13.0048 LP  0  0  0  0  0  0  0  0  0  0  0  0  # atno 4307 bound_to 3712
    2.6240  -19.8611    8.1372 LP  0  0  0  0  0  0  0  0  0  0  0  0  # atno 4314 bound_to 3832
    2.7958  -21.1224    9.1601 LP  0  0  0  0  0  0  0  0  0  0  0  0  # atno 4315 bound_to 3832
   -4.0908  -23.3015   10.6360 LP  0  0  0  0  0  0  0  0  0  0  0  0  # atno 4318 bound_to 3762
   -5.4608  -22.4756   10.3080 LP  0  0  0  0  0  0  0  0  0  0  0  0  # atno 4319 bound_to 3762
   -5.2808   -4.9905    7.9405 LP  0  0  0  0  0  0  0  0  0  0  0  0  # atno 4320 bound_to 2467
   -3.6860   -4.9403    8.2879 LP  0  0  0  0  0  0  0  0  0  0  0  0  # atno 4321 bound_to 2467

> <Gold.Score>
     Score     S(PLP)   S(hbond)     S(cho)   S(metal)  DE(clash)   DE(tors)     intcor
     40.59     -34.69       2.00       0.00       0.00       0.00       0.51       0.93

> <Gold.PLP.Fitness>
40.5928

> <Gold.PLP.PLP>
-34.6876

> <Gold.PLP.part.hbond>
-2.0000

> <Gold.PLP.part.metal>
0.0000

> <Gold.PLP.part.buried>
-4.0369

> <Gold.PLP.part.nonpolar>
-29.2476

> <Gold.PLP.part.repulsive>
0.0851

> <Gold.PLP.ligand.clash>
0.0000

> <Gold.PLP.ligand.torsion>
0.5106

> <Gold.PLP.Chemscore.Hbond>
2.0000

> <Gold.PLP.Chemscore.CHOScore>
0.0000

> <Gold.PLP.Chemscore.Metal>
0.0000

> <Gold.Chemscore.Hbonds>
donor molecule, donor type, donor heavy atom, donor atom, acceptor molecule, acceptor atom, score
      P1  H  2305  2313       L1     3  1.00
      P1  H  3712  3721       L1     1  1.00

> <Gold.PLP.Chemscore.Internal.Correction>
0.9264

