#       Name:                EN300-222254_i002
#       Creating user name   fsindt
#       Creation time:       Tue Feb 28 07:47:10 2023


#       File generated by GOLD software.
#

@<TRIPOS>MOLECULE
EN300-222254_i002|acide_2|mol2|3756|dock10
    24    25     1
SMALL
USER_CHARGES


@<TRIPOS>ATOM
      1 O1           0.7328 -16.1652  14.4214 O.co2          1 <1>               -1.0000
      2 C2           0.4854 -17.3584  14.4598 C.2            1 <1>                0.0000
      3 O3          -0.6134 -17.7418  14.8235 O.co2          1 <1>                0.0000
      4 C4           1.5356 -18.3591  14.0518 C.3            1 <1>                0.0000
      5 C5           2.5416 -17.8126  13.0250 C.3            1 <1>                0.0000
      6 C6           2.4669 -19.1862  12.3378 C.3            1 <1>                0.0000
      7 C7           1.0669 -19.3323  12.9571 C.3            1 <1>                0.0000
      8 C8           0.7745 -20.7197  13.4676 C.ar           1 <1>                0.0000
      9 C9           1.8103 -21.5390  13.8741 C.ar           1 <1>                0.0000
     10 C10          1.5430 -22.8120  14.3421 C.ar           1 <1>                0.0000
     11 C11          0.2381 -23.2671  14.4046 C.ar           1 <1>                0.0000
     12 Cl12        -0.0965 -24.8657  14.9931 Cl             1 <1>                0.0000
     13 C13         -0.8002 -22.4481  13.9986 C.ar           1 <1>                0.0000
     14 C14         -0.5329 -21.1715  13.5348 C.ar           1 <1>                0.0000
     15 F15         -1.5460 -20.3705  13.1384 F              1 <1>                0.0000
     16 H16          2.0050 -18.8513  14.9035 H              1 <1>                0.0000
     17 H17          2.1465 -16.9983  12.4175 H              1 <1>                0.0000
     18 H18          3.5205 -17.5891  13.4491 H              1 <1>                0.0000
     19 H19          2.4592 -19.1300  11.2493 H              1 <1>                0.0000
     20 H20          3.1909 -19.9057  12.7203 H              1 <1>                0.0000
     21 H21          0.2687 -18.9336  12.3310 H              1 <1>                0.0000
     22 H22          2.8295 -21.1847  13.8257 H              1 <1>                0.0000
     23 H23          2.3534 -23.4518  14.6590 H              1 <1>                0.0000
     24 H24         -1.8190 -22.8029  14.0472 H              1 <1>                0.0000
@<TRIPOS>BOND
    1    1    2 ar    
    2    2    3 ar    
    3    2    4 1     
    4    4    5 1     
    5    4    7 1     
    6    4   16 1     
    7    5    6 1     
    8    5   17 1     
    9    5   18 1     
   10    6    7 1     
   11    6   19 1     
   12    6   20 1     
   13    7    8 1     
   14    7   21 1     
   15    8    9 ar    
   16    8   14 ar    
   17    9   10 ar    
   18    9   22 1     
   19   10   11 ar    
   20   10   23 1     
   21   11   12 1     
   22   11   13 ar    
   23   13   14 ar    
   24   13   24 1     
   25   14   15 1     
@<TRIPOS>SUBSTRUCTURE
      1 ****           1
@<TRIPOS>COMMENT
> <Gold.Version>
2022.2.0

> <Gold.Id.Protein>
3pbl|protein|mol2

> <Gold.Protein.RotatedTorsions>
[ 1303 1298 1297 1294 ] final  -89.51 input  179.99 | X-H torsion
[ 2461 2456 2455 2452 ] final  167.92 input   30.03 | X-H torsion
[ 2515 2510 2509 2506 ] final  -85.28 input  -89.99 | X-H torsion
[ 3721 3712 3711 3710 ] final   -8.99 input -179.91 | X-H torsion
[ 3841 3832 3831 3830 ] final   66.52 input -179.91 | X-H torsion
[ 3767 3762 3761 3758 ] final -123.87 input  -89.99 | X-H torsion
[ 2472 2467 2466 2463 ] final   62.81 input  -89.97 | X-H torsion

> <Gold.Protein.ActiveResidues>
 VAL82   VAL86   LEU89   PHE106  VAL107  ASP110  VAL111  MET112  CYS114  THR115 
 CYS181  SER182  ILE183  PHE188  VAL189  ILE190  SER192  SER193  SER196  TRP342 
 PHE345  PHE346  HIS349  VAL350  TYR365  THR369  GLY372  TYR373 

> <Gold.Protein.RotatedAtoms>
    3.8201   -8.6312    3.8672 H   0  0  0  0  0  0  0  0  0  0  0  0  # atno 1303 bound_to 1298
    1.6331   -9.1397    8.3877 H   0  0  0  0  0  0  0  0  0  0  0  0  # atno 2461 bound_to 2456
   -4.6888   -4.8258    7.6620 H   0  0  0  0  0  0  0  0  0  0  0  0  # atno 2472 bound_to 2467
    2.8286   -8.8723    4.5615 H   0  0  0  0  0  0  0  0  0  0  0  0  # atno 2515 bound_to 2510
   -2.5109  -17.8963   14.3617 H   0  0  0  0  0  0  0  0  0  0  0  0  # atno 3721 bound_to 3712
   -4.7950  -21.9883   11.5472 H   0  0  0  0  0  0  0  0  0  0  0  0  # atno 3767 bound_to 3762
    2.5582  -20.9546    9.4688 H   0  0  0  0  0  0  0  0  0  0  0  0  # atno 3841 bound_to 3832
    4.9050   -9.3076    4.8830 LP  0  0  0  0  0  0  0  0  0  0  0  0  # atno 4297 bound_to 1298
    3.6372  -10.1829    4.3416 LP  0  0  0  0  0  0  0  0  0  0  0  0  # atno 4298 bound_to 1298
    1.7707   -7.9647    7.2618 LP  0  0  0  0  0  0  0  0  0  0  0  0  # atno 4299 bound_to 2456
    0.3341   -8.7039    7.4988 LP  0  0  0  0  0  0  0  0  0  0  0  0  # atno 4300 bound_to 2456
    2.1679   -8.7138    6.0461 LP  0  0  0  0  0  0  0  0  0  0  0  0  # atno 4301 bound_to 2510
    2.3000   -7.4128    5.0680 LP  0  0  0  0  0  0  0  0  0  0  0  0  # atno 4302 bound_to 2510
   -3.4881  -16.6229   14.3258 LP  0  0  0  0  0  0  0  0  0  0  0  0  # atno 4306 bound_to 3712
   -3.1407  -17.4418   12.9564 LP  0  0  0  0  0  0  0  0  0  0  0  0  # atno 4307 bound_to 3712
    1.4229  -19.9432    8.9545 LP  0  0  0  0  0  0  0  0  0  0  0  0  # atno 4314 bound_to 3832
    2.8514  -20.0564    8.1713 LP  0  0  0  0  0  0  0  0  0  0  0  0  # atno 4315 bound_to 3832
   -3.9756  -23.2172   10.8507 LP  0  0  0  0  0  0  0  0  0  0  0  0  # atno 4318 bound_to 3762
   -5.3568  -22.6694   10.1734 LP  0  0  0  0  0  0  0  0  0  0  0  0  # atno 4319 bound_to 3762
   -3.7082   -5.1710    8.9213 LP  0  0  0  0  0  0  0  0  0  0  0  0  # atno 4320 bound_to 2467
   -5.3199   -5.3967    9.0556 LP  0  0  0  0  0  0  0  0  0  0  0  0  # atno 4321 bound_to 2467

> <Gold.Score>
     Score     S(PLP)   S(hbond)     S(cho)   S(metal)  DE(clash)   DE(tors)     intcor
     40.43     -35.25       2.00       0.00       0.00       0.00       0.87       0.93

> <Gold.PLP.Fitness>
40.4349

> <Gold.PLP.PLP>
-35.2502

> <Gold.PLP.part.hbond>
-2.0000

> <Gold.PLP.part.metal>
0.0000

> <Gold.PLP.part.buried>
-3.1944

> <Gold.PLP.part.nonpolar>
-30.9708

> <Gold.PLP.part.repulsive>
0.0284

> <Gold.PLP.ligand.clash>
0.0000

> <Gold.PLP.ligand.torsion>
0.8708

> <Gold.PLP.Chemscore.Hbond>
2.0000

> <Gold.PLP.Chemscore.CHOScore>
0.0000

> <Gold.PLP.Chemscore.Metal>
0.0000

> <Gold.Chemscore.Hbonds>
donor molecule, donor type, donor heavy atom, donor atom, acceptor molecule, acceptor atom, score
      P1  H  2305  2313       L1     1  1.00
      P1  H  3712  3721       L1     3  1.00

> <Gold.PLP.Chemscore.Internal.Correction>
0.9264

