#       Name:                EN300-222254_i002
#       Creating user name   fsindt
#       Creation time:       Tue Feb 28 07:47:10 2023


#       File generated by GOLD software.
#

@<TRIPOS>MOLECULE
EN300-222254_i002|acide_2|mol2|3756|dock9
    24    25     1
SMALL
USER_CHARGES


@<TRIPOS>ATOM
      1 O1          -0.2518 -16.8805  10.2544 O.co2          1 <1>               -1.0000
      2 C2          -0.3919 -16.9343   9.0444 C.2            1 <1>                0.0000
      3 O3          -0.7231 -17.9815   8.5150 O.co2          1 <1>                0.0000
      4 C4          -0.1618 -15.7049   8.2039 C.3            1 <1>                0.0000
      5 C5           0.9915 -15.8536   7.1976 C.3            1 <1>                0.0000
      6 C6           1.3768 -14.4060   7.5447 C.3            1 <1>                0.0000
      7 C7           0.6904 -14.6319   8.9021 C.3            1 <1>                0.0000
      8 C8          -0.1062 -13.4455   9.3806 C.ar           1 <1>                0.0000
      9 C9          -0.3494 -12.3867   8.5268 C.ar           1 <1>                0.0000
     10 C10         -1.0796 -11.2978   8.9651 C.ar           1 <1>                0.0000
     11 C11         -1.5683 -11.2671  10.2590 C.ar           1 <1>                0.0000
     12 Cl12        -2.4857  -9.8994  10.8081 Cl             1 <1>                0.0000
     13 C13         -1.3262 -12.3265  11.1150 C.ar           1 <1>                0.0000
     14 C14         -0.5994 -13.4191  10.6744 C.ar           1 <1>                0.0000
     15 F15         -0.3628 -14.4545  11.5093 F              1 <1>                0.0000
     16 H16         -1.0793 -15.3164   7.7621 H              1 <1>                0.0000
     17 H17          1.7396 -16.5881   7.4961 H              1 <1>                0.0000
     18 H18          0.6586 -15.9819   6.1676 H              1 <1>                0.0000
     19 H19          2.4524 -14.2466   7.6205 H              1 <1>                0.0000
     20 H20          0.8803 -13.6610   6.9229 H              1 <1>                0.0000
     21 H21          1.3560 -15.0323   9.6667 H              1 <1>                0.0000
     22 H22          0.0317 -12.4097   7.5164 H              1 <1>                0.0000
     23 H23         -1.2685 -10.4704   8.2971 H              1 <1>                0.0000
     24 H24         -1.7075 -12.3029  12.1251 H              1 <1>                0.0000
@<TRIPOS>BOND
    1    1    2 ar    
    2    2    3 ar    
    3    2    4 1     
    4    4    5 1     
    5    4    7 1     
    6    4   16 1     
    7    5    6 1     
    8    5   17 1     
    9    5   18 1     
   10    6    7 1     
   11    6   19 1     
   12    6   20 1     
   13    7    8 1     
   14    7   21 1     
   15    8    9 ar    
   16    8   14 ar    
   17    9   10 ar    
   18    9   22 1     
   19   10   11 ar    
   20   10   23 1     
   21   11   12 1     
   22   11   13 ar    
   23   13   14 ar    
   24   13   24 1     
   25   14   15 1     
@<TRIPOS>SUBSTRUCTURE
      1 ****           1
@<TRIPOS>COMMENT
> <Gold.Version>
2022.2.0

> <Gold.Id.Protein>
3pbl|protein|mol2

> <Gold.Protein.RotatedTorsions>
[ 1303 1298 1297 1294 ] final   75.15 input  179.99 | X-H torsion
[ 2461 2456 2455 2452 ] final  -10.47 input   30.03 | X-H torsion
[ 2515 2510 2509 2506 ] final   97.37 input  -89.99 | X-H torsion
[ 3721 3712 3711 3710 ] final   96.07 input -179.91 | X-H torsion
[ 3841 3832 3831 3830 ] final  -23.83 input -179.91 | X-H torsion
[ 3767 3762 3761 3758 ] final  144.73 input  -89.99 | X-H torsion
[ 2472 2467 2466 2463 ] final -155.02 input  -89.97 | X-H torsion

> <Gold.Protein.ActiveResidues>
 VAL82   VAL86   LEU89   PHE106  VAL107  ASP110  VAL111  MET112  CYS114  THR115 
 CYS181  SER182  ILE183  PHE188  VAL189  ILE190  SER192  SER193  SER196  TRP342 
 PHE345  PHE346  HIS349  VAL350  TYR365  THR369  GLY372  TYR373 

> <Gold.Protein.RotatedAtoms>
    4.2166  -10.2234    4.7606 H   0  0  0  0  0  0  0  0  0  0  0  0  # atno 1303 bound_to 1298
    0.8822   -8.0539    7.0408 H   0  0  0  0  0  0  0  0  0  0  0  0  # atno 2461 bound_to 2456
   -5.0509   -5.4531    9.2922 H   0  0  0  0  0  0  0  0  0  0  0  0  # atno 2472 bound_to 2467
    2.0330   -7.8292    5.9142 H   0  0  0  0  0  0  0  0  0  0  0  0  # atno 2515 bound_to 2510
   -2.8287  -17.5419   13.0717 H   0  0  0  0  0  0  0  0  0  0  0  0  # atno 3721 bound_to 3712
   -3.9094  -22.9564   11.2309 H   0  0  0  0  0  0  0  0  0  0  0  0  # atno 3767 bound_to 3762
    1.5888  -20.2042    9.3972 H   0  0  0  0  0  0  0  0  0  0  0  0  # atno 3841 bound_to 3832
    3.3926   -9.2006    3.7905 LP  0  0  0  0  0  0  0  0  0  0  0  0  # atno 4297 bound_to 1298
    4.7530   -8.6970    4.5404 LP  0  0  0  0  0  0  0  0  0  0  0  0  # atno 4298 bound_to 1298
    0.7003   -9.2335    8.1557 LP  0  0  0  0  0  0  0  0  0  0  0  0  # atno 4299 bound_to 2456
    2.1552   -8.5206    7.9514 LP  0  0  0  0  0  0  0  0  0  0  0  0  # atno 4300 bound_to 2456
    2.6821   -7.9137    4.4184 LP  0  0  0  0  0  0  0  0  0  0  0  0  # atno 4301 bound_to 2510
    2.5819   -9.2565    5.3423 LP  0  0  0  0  0  0  0  0  0  0  0  0  # atno 4302 bound_to 2510
   -2.7277  -17.9024   14.6330 LP  0  0  0  0  0  0  0  0  0  0  0  0  # atno 4306 bound_to 3712
   -3.5343  -16.5714   14.1386 LP  0  0  0  0  0  0  0  0  0  0  0  0  # atno 4307 bound_to 3712
    2.5025  -19.7864    8.1455 LP  0  0  0  0  0  0  0  0  0  0  0  0  # atno 4314 bound_to 3832
    2.8916  -21.0800    9.0630 LP  0  0  0  0  0  0  0  0  0  0  0  0  # atno 4315 bound_to 3832
   -5.0511  -23.0036   10.0642 LP  0  0  0  0  0  0  0  0  0  0  0  0  # atno 4318 bound_to 3762
   -5.1666  -21.9152   11.2761 LP  0  0  0  0  0  0  0  0  0  0  0  0  # atno 4319 bound_to 3762
   -5.0315   -4.8970    7.7570 LP  0  0  0  0  0  0  0  0  0  0  0  0  # atno 4320 bound_to 2467
   -3.6346   -5.0435    8.5901 LP  0  0  0  0  0  0  0  0  0  0  0  0  # atno 4321 bound_to 2467

> <Gold.Score>
     Score     S(PLP)   S(hbond)     S(cho)   S(metal)  DE(clash)   DE(tors)     intcor
     47.29     -47.87       0.00       0.00       0.00       0.00       0.75       0.93

> <Gold.PLP.Fitness>
47.2899

> <Gold.PLP.PLP>
-47.8733

> <Gold.PLP.part.hbond>
0.0000

> <Gold.PLP.part.metal>
0.0000

> <Gold.PLP.part.buried>
-2.1863

> <Gold.PLP.part.nonpolar>
-47.5528

> <Gold.PLP.part.repulsive>
0.7981

> <Gold.PLP.ligand.clash>
0.0000

> <Gold.PLP.ligand.torsion>
0.7549

> <Gold.PLP.Chemscore.Hbond>
0.0000

> <Gold.PLP.Chemscore.CHOScore>
0.0000

> <Gold.PLP.Chemscore.Metal>
0.0000

> <Gold.PLP.Chemscore.Internal.Correction>
0.9264

