#       Name:                EN300-222254_i002
#       Creating user name   fsindt
#       Creation time:       Tue Feb 28 07:47:07 2023


#       File generated by GOLD software.
#

@<TRIPOS>MOLECULE
EN300-222254_i002|acide_2|mol2|3756|dock3
    24    25     1
SMALL
USER_CHARGES


@<TRIPOS>ATOM
      1 O1          -0.0318 -15.5593  14.4371 O.co2          1 <1>               -1.0000
      2 C2          -0.0498 -16.7589  14.6549 C.2            1 <1>                0.0000
      3 O3          -1.0681 -17.2886  15.0662 O.co2          1 <1>                0.0000
      4 C4           1.1845 -17.5877  14.4096 C.3            1 <1>                0.0000
      5 C5           2.3307 -16.8050  13.7475 C.3            1 <1>                0.0000
      6 C6           2.5960 -18.0620  12.9024 C.3            1 <1>                0.0000
      7 C7           1.1180 -18.4257  13.1218 C.3            1 <1>                0.0000
      8 C8           0.8880 -19.8945  13.3685 C.ar           1 <1>                0.0000
      9 C9           1.3195 -20.4730  14.5468 C.ar           1 <1>                0.0000
     10 C10          1.1094 -21.8204  14.7737 C.ar           1 <1>                0.0000
     11 C11          0.4662 -22.5910  13.8217 C.ar           1 <1>                0.0000
     12 Cl12         0.2023 -24.2828  14.1079 Cl             1 <1>                0.0000
     13 C13          0.0332 -22.0133  12.6417 C.ar           1 <1>                0.0000
     14 C14          0.2390 -20.6631  12.4167 C.ar           1 <1>                0.0000
     15 F15         -0.1839 -20.0976  11.2650 F              1 <1>                0.0000
     16 H16          1.4937 -18.1564  15.2866 H              1 <1>                0.0000
     17 H17          1.9941 -15.9488  13.1628 H              1 <1>                0.0000
     18 H18          3.1434 -16.5589  14.4310 H              1 <1>                0.0000
     19 H19          2.8426 -17.8453  11.8630 H              1 <1>                0.0000
     20 H20          3.2914 -18.7614  13.3665 H              1 <1>                0.0000
     21 H21          0.4499 -18.0127  12.3661 H              1 <1>                0.0000
     22 H22          1.8217 -19.8723  15.2908 H              1 <1>                0.0000
     23 H23          1.4476 -22.2718  15.6948 H              1 <1>                0.0000
     24 H24         -0.4689 -22.6145  11.8982 H              1 <1>                0.0000
@<TRIPOS>BOND
    1    1    2 ar    
    2    2    3 ar    
    3    2    4 1     
    4    4    5 1     
    5    4    7 1     
    6    4   16 1     
    7    5    6 1     
    8    5   17 1     
    9    5   18 1     
   10    6    7 1     
   11    6   19 1     
   12    6   20 1     
   13    7    8 1     
   14    7   21 1     
   15    8    9 ar    
   16    8   14 ar    
   17    9   10 ar    
   18    9   22 1     
   19   10   11 ar    
   20   10   23 1     
   21   11   12 1     
   22   11   13 ar    
   23   13   14 ar    
   24   13   24 1     
   25   14   15 1     
@<TRIPOS>SUBSTRUCTURE
      1 ****           1
@<TRIPOS>COMMENT
> <Gold.Version>
2022.2.0

> <Gold.Id.Protein>
3pbl|protein|mol2

> <Gold.Protein.RotatedTorsions>
[ 1303 1298 1297 1294 ] final -122.66 input  179.99 | X-H torsion
[ 2461 2456 2455 2452 ] final  179.12 input   30.03 | X-H torsion
[ 2515 2510 2509 2506 ] final   -6.30 input  -89.99 | X-H torsion
[ 3721 3712 3711 3710 ] final  -35.17 input -179.91 | X-H torsion
[ 3841 3832 3831 3830 ] final  -20.76 input -179.91 | X-H torsion
[ 3767 3762 3761 3758 ] final -111.92 input  -89.99 | X-H torsion
[ 2472 2467 2466 2463 ] final  -76.16 input  -89.97 | X-H torsion

> <Gold.Protein.ActiveResidues>
 VAL82   VAL86   LEU89   PHE106  VAL107  ASP110  VAL111  MET112  CYS114  THR115 
 CYS181  SER182  ILE183  PHE188  VAL189  ILE190  SER192  SER193  SER196  TRP342 
 PHE345  PHE346  HIS349  VAL350  TYR365  THR369  GLY372  TYR373 

> <Gold.Protein.RotatedAtoms>
    4.2693   -8.4757    4.1190 H   0  0  0  0  0  0  0  0  0  0  0  0  # atno 1303 bound_to 1298
    1.4645   -9.2124    8.4015 H   0  0  0  0  0  0  0  0  0  0  0  0  # atno 2461 bound_to 2456
   -3.8735   -5.2768    9.1623 H   0  0  0  0  0  0  0  0  0  0  0  0  # atno 2472 bound_to 2467
    2.5829   -7.6990    4.5442 H   0  0  0  0  0  0  0  0  0  0  0  0  # atno 2515 bound_to 2510
   -2.6325  -17.6417   14.6342 H   0  0  0  0  0  0  0  0  0  0  0  0  # atno 3721 bound_to 3712
   -4.9583  -21.9366   11.4513 H   0  0  0  0  0  0  0  0  0  0  0  0  # atno 3767 bound_to 3762
    1.6009  -20.2410    9.4226 H   0  0  0  0  0  0  0  0  0  0  0  0  # atno 3841 bound_to 3832
    4.7194   -9.8084    4.9483 LP  0  0  0  0  0  0  0  0  0  0  0  0  # atno 4297 bound_to 1298
    3.3734   -9.8376    4.0243 LP  0  0  0  0  0  0  0  0  0  0  0  0  # atno 4298 bound_to 1298
    1.9064   -8.0257    7.3701 LP  0  0  0  0  0  0  0  0  0  0  0  0  # atno 4299 bound_to 2456
    0.3669   -8.5702    7.3767 LP  0  0  0  0  0  0  0  0  0  0  0  0  # atno 4300 bound_to 2456
    2.6812   -9.2330    5.0947 LP  0  0  0  0  0  0  0  0  0  0  0  0  # atno 4301 bound_to 2510
    2.0325   -8.0674    6.0366 LP  0  0  0  0  0  0  0  0  0  0  0  0  # atno 4302 bound_to 2510
   -3.5637  -16.5565   13.9041 LP  0  0  0  0  0  0  0  0  0  0  0  0  # atno 4306 bound_to 3712
   -2.9247  -17.8022   13.0636 LP  0  0  0  0  0  0  0  0  0  0  0  0  # atno 4307 bound_to 3712
    2.4575  -19.7628    8.1523 LP  0  0  0  0  0  0  0  0  0  0  0  0  # atno 4314 bound_to 3832
    2.9226  -21.0611    9.0268 LP  0  0  0  0  0  0  0  0  0  0  0  0  # atno 4315 bound_to 3832
   -3.9244  -23.1230   11.0151 LP  0  0  0  0  0  0  0  0  0  0  0  0  # atno 4318 bound_to 3762
   -5.2448  -22.8153   10.1049 LP  0  0  0  0  0  0  0  0  0  0  0  0  # atno 4319 bound_to 3762
   -5.4633   -5.3174    8.7919 LP  0  0  0  0  0  0  0  0  0  0  0  0  # atno 4320 bound_to 2467
   -4.3800   -4.7994    7.6851 LP  0  0  0  0  0  0  0  0  0  0  0  0  # atno 4321 bound_to 2467

> <Gold.Score>
     Score     S(PLP)   S(hbond)     S(cho)   S(metal)  DE(clash)   DE(tors)     intcor
     45.25     -39.99       1.91       0.00       0.00       0.00       0.70       0.93

> <Gold.PLP.Fitness>
45.2458

> <Gold.PLP.PLP>
-39.9890

> <Gold.PLP.part.hbond>
-1.8255

> <Gold.PLP.part.metal>
0.0000

> <Gold.PLP.part.buried>
-4.0771

> <Gold.PLP.part.nonpolar>
-35.2300

> <Gold.PLP.part.repulsive>
0.1274

> <Gold.PLP.ligand.clash>
0.0000

> <Gold.PLP.ligand.torsion>
0.7028

> <Gold.PLP.Chemscore.Hbond>
1.9120

> <Gold.PLP.Chemscore.CHOScore>
0.0000

> <Gold.PLP.Chemscore.Metal>
0.0000

> <Gold.Chemscore.Hbonds>
donor molecule, donor type, donor heavy atom, donor atom, acceptor molecule, acceptor atom, score
      P1  H  2305  2313       L1     1  1.00
      P1  H  3712  3721       L1     3  0.91

> <Gold.PLP.Chemscore.Internal.Correction>
0.9264

