#       Name:                EN300-222254_i002
#       Creating user name   fsindt
#       Creation time:       Tue Feb 28 07:47:07 2023


#       File generated by GOLD software.
#

@<TRIPOS>MOLECULE
EN300-222254_i002|acide_2|mol2|3756|dock2
    24    25     1
SMALL
USER_CHARGES


@<TRIPOS>ATOM
      1 O1           2.1215 -14.3976   9.6590 O.co2          1 <1>               -1.0000
      2 C2           0.9056 -14.4125   9.5694 C.2            1 <1>                0.0000
      3 O3           0.2517 -15.1640  10.2725 O.co2          1 <1>                0.0000
      4 C4           0.2107 -13.4978   8.5941 C.3            1 <1>                0.0000
      5 C5           1.0724 -13.1277   7.3753 C.3            1 <1>                0.0000
      6 C6           0.4992 -11.7063   7.5004 C.3            1 <1>                0.0000
      7 C7           0.2733 -12.0131   8.9902 C.3            1 <1>                0.0000
      8 C8          -1.0286 -11.4760   9.5265 C.ar           1 <1>                0.0000
      9 C9          -2.2281 -11.9528   9.0336 C.ar           1 <1>                0.0000
     10 C10         -3.4229 -11.4604   9.5246 C.ar           1 <1>                0.0000
     11 C11         -3.4190 -10.4900  10.5106 C.ar           1 <1>                0.0000
     12 Cl12        -4.9199  -9.8726  11.1270 Cl             1 <1>                0.0000
     13 C13         -2.2190 -10.0118  11.0056 C.ar           1 <1>                0.0000
     14 C14         -1.0228 -10.5087  10.5176 C.ar           1 <1>                0.0000
     15 F15          0.1498 -10.0429  11.0005 F              1 <1>                0.0000
     16 H16         -0.7908 -13.8395   8.3332 H              1 <1>                0.0000
     17 H17          2.1443 -13.1845   7.5649 H              1 <1>                0.0000
     18 H18          0.7759 -13.6390   6.4595 H              1 <1>                0.0000
     19 H19          1.2347 -10.9217   7.3228 H              1 <1>                0.0000
     20 H20         -0.4240 -11.5569   6.9405 H              1 <1>                0.0000
     21 H21          1.1267 -11.7652   9.6214 H              1 <1>                0.0000
     22 H22         -2.2323 -12.7105   8.2638 H              1 <1>                0.0000
     23 H23         -4.3600 -11.8332   9.1382 H              1 <1>                0.0000
     24 H24         -2.2155  -9.2542  11.7753 H              1 <1>                0.0000
@<TRIPOS>BOND
    1    1    2 ar    
    2    2    3 ar    
    3    2    4 1     
    4    4    5 1     
    5    4    7 1     
    6    4   16 1     
    7    5    6 1     
    8    5   17 1     
    9    5   18 1     
   10    6    7 1     
   11    6   19 1     
   12    6   20 1     
   13    7    8 1     
   14    7   21 1     
   15    8    9 ar    
   16    8   14 ar    
   17    9   10 ar    
   18    9   22 1     
   19   10   11 ar    
   20   10   23 1     
   21   11   12 1     
   22   11   13 ar    
   23   13   14 ar    
   24   13   24 1     
   25   14   15 1     
@<TRIPOS>SUBSTRUCTURE
      1 ****           1
@<TRIPOS>COMMENT
> <Gold.Version>
2022.2.0

> <Gold.Id.Protein>
3pbl|protein|mol2

> <Gold.Protein.RotatedTorsions>
[ 1303 1298 1297 1294 ] final  -69.91 input  179.99 | X-H torsion
[ 2461 2456 2455 2452 ] final  -88.72 input   30.03 | X-H torsion
[ 2515 2510 2509 2506 ] final -173.80 input  -89.99 | X-H torsion
[ 3721 3712 3711 3710 ] final  -39.43 input -179.91 | X-H torsion
[ 3841 3832 3831 3830 ] final  163.44 input -179.91 | X-H torsion
[ 3767 3762 3761 3758 ] final  -99.98 input  -89.99 | X-H torsion
[ 2472 2467 2466 2463 ] final  -63.62 input  -89.97 | X-H torsion

> <Gold.Protein.ActiveResidues>
 VAL82   VAL86   LEU89   PHE106  VAL107  ASP110  VAL111  MET112  CYS114  THR115 
 CYS181  SER182  ILE183  PHE188  VAL189  ILE190  SER192  SER193  SER196  TRP342 
 PHE345  PHE346  HIS349  VAL350  TYR365  THR369  GLY372  TYR373 

> <Gold.Protein.RotatedAtoms>
    3.5920   -8.8436    3.7912 H   0  0  0  0  0  0  0  0  0  0  0  0  # atno 1303 bound_to 1298
    0.3492   -8.8940    7.6940 H   0  0  0  0  0  0  0  0  0  0  0  0  # atno 2461 bound_to 2456
   -3.7543   -5.2084    9.0088 H   0  0  0  0  0  0  0  0  0  0  0  0  # atno 2472 bound_to 2467
    2.3664   -9.0976    5.7723 H   0  0  0  0  0  0  0  0  0  0  0  0  # atno 2515 bound_to 2510
   -2.6584  -17.5917   14.6652 H   0  0  0  0  0  0  0  0  0  0  0  0  # atno 3721 bound_to 3712
   -5.1106  -21.9147   11.3297 H   0  0  0  0  0  0  0  0  0  0  0  0  # atno 3767 bound_to 3762
    3.0736  -20.2453    8.5146 H   0  0  0  0  0  0  0  0  0  0  0  0  # atno 3841 bound_to 3832
    4.8951   -9.0109    4.7610 LP  0  0  0  0  0  0  0  0  0  0  0  0  # atno 4297 bound_to 1298
    3.8753  -10.2670    4.5397 LP  0  0  0  0  0  0  0  0  0  0  0  0  # atno 4298 bound_to 1298
    1.8542   -8.9949    8.3202 LP  0  0  0  0  0  0  0  0  0  0  0  0  # atno 4299 bound_to 2456
    1.5341   -7.9193    7.1339 LP  0  0  0  0  0  0  0  0  0  0  0  0  # atno 4300 bound_to 2456
    2.1203   -7.5005    5.5388 LP  0  0  0  0  0  0  0  0  0  0  0  0  # atno 4301 bound_to 2510
    2.8101   -8.4008    4.3639 LP  0  0  0  0  0  0  0  0  0  0  0  0  # atno 4302 bound_to 2510
   -3.5669  -16.5619   13.8332 LP  0  0  0  0  0  0  0  0  0  0  0  0  # atno 4306 bound_to 3712
   -2.8916  -17.8545   13.0986 LP  0  0  0  0  0  0  0  0  0  0  0  0  # atno 4307 bound_to 3712
    2.1229  -21.0588    9.5198 LP  0  0  0  0  0  0  0  0  0  0  0  0  # atno 4314 bound_to 3832
    1.5559  -19.7602    8.7082 LP  0  0  0  0  0  0  0  0  0  0  0  0  # atno 4315 bound_to 3832
   -3.9072  -23.0073   11.1725 LP  0  0  0  0  0  0  0  0  0  0  0  0  # atno 4318 bound_to 3762
   -5.1097  -22.9528   10.0691 LP  0  0  0  0  0  0  0  0  0  0  0  0  # atno 4319 bound_to 3762
   -5.3785   -5.3727    8.9712 LP  0  0  0  0  0  0  0  0  0  0  0  0  # atno 4320 bound_to 2467
   -4.5840   -4.8125    7.6592 LP  0  0  0  0  0  0  0  0  0  0  0  0  # atno 4321 bound_to 2467

> <Gold.Score>
     Score     S(PLP)   S(hbond)     S(cho)   S(metal)  DE(clash)   DE(tors)     intcor
     48.61     -49.36       0.00       0.00       0.00       0.00       0.84       0.93

> <Gold.PLP.Fitness>
48.6098

> <Gold.PLP.PLP>
-49.3563

> <Gold.PLP.part.hbond>
0.0000

> <Gold.PLP.part.metal>
0.0000

> <Gold.PLP.part.buried>
-3.5978

> <Gold.PLP.part.nonpolar>
-47.3808

> <Gold.PLP.part.repulsive>
0.2760

> <Gold.PLP.ligand.clash>
0.0000

> <Gold.PLP.ligand.torsion>
0.8364

> <Gold.PLP.Chemscore.Hbond>
0.0000

> <Gold.PLP.Chemscore.CHOScore>
0.0000

> <Gold.PLP.Chemscore.Metal>
0.0000

> <Gold.PLP.Chemscore.Internal.Correction>
0.9264

