#       Name:                EN300-222254_i002
#       Creating user name   fsindt
#       Creation time:       Tue Feb 28 07:47:08 2023


#       File generated by GOLD software.
#

@<TRIPOS>MOLECULE
EN300-222254_i002|acide_2|mol2|3756|dock5
    24    25     1
SMALL
USER_CHARGES


@<TRIPOS>ATOM
      1 O1          -1.3026 -18.3279  11.9987 O.co2          1 <1>               -1.0000
      2 C2          -0.2199 -18.0240  11.5274 C.2            1 <1>                0.0000
      3 O3           0.3174 -18.7552  10.7130 O.co2          1 <1>                0.0000
      4 C4           0.4513 -16.7417  11.9469 C.3            1 <1>                0.0000
      5 C5           0.3957 -16.4843  13.4620 C.3            1 <1>                0.0000
      6 C6           0.1354 -15.0073  13.1221 C.3            1 <1>                0.0000
      7 C7          -0.4385 -15.4982  11.7826 C.3            1 <1>                0.0000
      8 C8          -0.0565 -14.6334  10.6090 C.ar           1 <1>                0.0000
      9 C9           0.7402 -15.1462   9.6033 C.ar           1 <1>                0.0000
     10 C10          1.0915 -14.3534   8.5266 C.ar           1 <1>                0.0000
     11 C11          0.6453 -13.0460   8.4545 C.ar           1 <1>                0.0000
     12 Cl12         1.0865 -12.0515   7.1016 Cl             1 <1>                0.0000
     13 C13         -0.1529 -12.5311   9.4602 C.ar           1 <1>                0.0000
     14 C14         -0.5089 -13.3266  10.5357 C.ar           1 <1>                0.0000
     15 F15         -1.2887 -12.8251  11.5183 F              1 <1>                0.0000
     16 H16          1.4479 -16.6265  11.5208 H              1 <1>                0.0000
     17 H17         -0.4434 -16.9727  13.9575 H              1 <1>                0.0000
     18 H18          1.3454 -16.6548  13.9691 H              1 <1>                0.0000
     19 H19         -0.6051 -14.5347  13.7674 H              1 <1>                0.0000
     20 H20          1.0454 -14.4165  13.0170 H              1 <1>                0.0000
     21 H21         -1.5057 -15.7171  11.8188 H              1 <1>                0.0000
     22 H22          1.0892 -16.1669   9.6586 H              1 <1>                0.0000
     23 H23          1.7149 -14.7550   7.7413 H              1 <1>                0.0000
     24 H24         -0.5014 -11.5105   9.4043 H              1 <1>                0.0000
@<TRIPOS>BOND
    1    1    2 ar    
    2    2    3 ar    
    3    2    4 1     
    4    4    5 1     
    5    4    7 1     
    6    4   16 1     
    7    5    6 1     
    8    5   17 1     
    9    5   18 1     
   10    6    7 1     
   11    6   19 1     
   12    6   20 1     
   13    7    8 1     
   14    7   21 1     
   15    8    9 ar    
   16    8   14 ar    
   17    9   10 ar    
   18    9   22 1     
   19   10   11 ar    
   20   10   23 1     
   21   11   12 1     
   22   11   13 ar    
   23   13   14 ar    
   24   13   24 1     
   25   14   15 1     
@<TRIPOS>SUBSTRUCTURE
      1 ****           1
@<TRIPOS>COMMENT
> <Gold.Version>
2022.2.0

> <Gold.Id.Protein>
3pbl|protein|mol2

> <Gold.Protein.RotatedTorsions>
[ 1303 1298 1297 1294 ] final   54.73 input  179.99 | X-H torsion
[ 2461 2456 2455 2452 ] final -161.12 input   30.03 | X-H torsion
[ 2515 2510 2509 2506 ] final    0.40 input  -89.99 | X-H torsion
[ 3721 3712 3711 3710 ] final   88.37 input -179.91 | X-H torsion
[ 3841 3832 3831 3830 ] final  -36.97 input -179.91 | X-H torsion
[ 3767 3762 3761 3758 ] final  -70.17 input  -89.99 | X-H torsion
[ 2472 2467 2466 2463 ] final   22.91 input  -89.97 | X-H torsion

> <Gold.Protein.ActiveResidues>
 VAL82   VAL86   LEU89   PHE106  VAL107  ASP110  VAL111  MET112  CYS114  THR115 
 CYS181  SER182  ILE183  PHE188  VAL189  ILE190  SER192  SER193  SER196  TRP342 
 PHE345  PHE346  HIS349  VAL350  TYR365  THR369  GLY372  TYR373 

> <Gold.Protein.RotatedAtoms>
    3.9366  -10.2715    4.5847 H   0  0  0  0  0  0  0  0  0  0  0  0  # atno 1303 bound_to 1298
    1.1510   -9.2829    8.3624 H   0  0  0  0  0  0  0  0  0  0  0  0  # atno 2461 bound_to 2456
   -4.0648   -4.8134    7.8181 H   0  0  0  0  0  0  0  0  0  0  0  0  # atno 2472 bound_to 2467
    2.5382   -7.6249    4.6123 H   0  0  0  0  0  0  0  0  0  0  0  0  # atno 2515 bound_to 2510
   -2.7720  -17.6342   13.1143 H   0  0  0  0  0  0  0  0  0  0  0  0  # atno 3721 bound_to 3712
   -5.4027  -21.9930   10.9504 H   0  0  0  0  0  0  0  0  0  0  0  0  # atno 3767 bound_to 3762
    1.5617  -20.0500    9.2758 H   0  0  0  0  0  0  0  0  0  0  0  0  # atno 3841 bound_to 3832
    3.5463   -8.9040    3.7822 LP  0  0  0  0  0  0  0  0  0  0  0  0  # atno 4297 bound_to 1298
    4.8793   -8.9455    4.7246 LP  0  0  0  0  0  0  0  0  0  0  0  0  # atno 4298 bound_to 1298
    2.0818   -8.1850    7.5905 LP  0  0  0  0  0  0  0  0  0  0  0  0  # atno 4299 bound_to 2456
    0.5049   -8.3405    7.1954 LP  0  0  0  0  0  0  0  0  0  0  0  0  # atno 4300 bound_to 2456
    2.7166   -9.2021    4.9951 LP  0  0  0  0  0  0  0  0  0  0  0  0  # atno 4301 bound_to 2510
    2.0419   -8.1725    6.0682 LP  0  0  0  0  0  0  0  0  0  0  0  0  # atno 4302 bound_to 2510
   -2.7736  -17.8103   14.7101 LP  0  0  0  0  0  0  0  0  0  0  0  0  # atno 4306 bound_to 3712
   -3.5538  -16.5570   14.0123 LP  0  0  0  0  0  0  0  0  0  0  0  0  # atno 4307 bound_to 3712
    2.6859  -19.9061    8.1393 LP  0  0  0  0  0  0  0  0  0  0  0  0  # atno 4314 bound_to 3832
    2.7394  -21.1384    9.2094 LP  0  0  0  0  0  0  0  0  0  0  0  0  # atno 4315 bound_to 3832
   -4.0137  -22.6590   11.4926 LP  0  0  0  0  0  0  0  0  0  0  0  0  # atno 4318 bound_to 3762
   -4.7113  -23.2229   10.1281 LP  0  0  0  0  0  0  0  0  0  0  0  0  # atno 4319 bound_to 3762
   -4.1431   -5.3733    9.3501 LP  0  0  0  0  0  0  0  0  0  0  0  0  # atno 4320 bound_to 2467
   -5.5090   -5.2067    8.4708 LP  0  0  0  0  0  0  0  0  0  0  0  0  # atno 4321 bound_to 2467

> <Gold.Score>
     Score     S(PLP)   S(hbond)     S(cho)   S(metal)  DE(clash)   DE(tors)     intcor
     44.84     -40.42       1.50       0.00       0.00       0.00       0.51       0.93

> <Gold.PLP.Fitness>
44.8384

> <Gold.PLP.PLP>
-40.4225

> <Gold.PLP.part.hbond>
-1.3384

> <Gold.PLP.part.metal>
0.0000

> <Gold.PLP.part.buried>
-2.4644

> <Gold.PLP.part.nonpolar>
-39.4417

> <Gold.PLP.part.repulsive>
1.9898

> <Gold.PLP.ligand.clash>
0.0000

> <Gold.PLP.ligand.torsion>
0.5108

> <Gold.PLP.Chemscore.Hbond>
1.5038

> <Gold.PLP.Chemscore.CHOScore>
0.0000

> <Gold.PLP.Chemscore.Metal>
0.0000

> <Gold.Chemscore.Hbonds>
donor molecule, donor type, donor heavy atom, donor atom, acceptor molecule, acceptor atom, score
      P1  H  3712  3721       L1     1  1.00
      P1  H  3832  3841       L1     3  0.50

> <Gold.PLP.Chemscore.Internal.Correction>
0.9264

