#       Name:                EN300-222254_i002
#       Creating user name   fsindt
#       Creation time:       Tue Feb 28 07:47:11 2023


#       File generated by GOLD software.
#

@<TRIPOS>MOLECULE
EN300-222254_i002|acide_2|mol2|3756|dock11
    24    25     1
SMALL
USER_CHARGES


@<TRIPOS>ATOM
      1 O1          -0.9329 -16.4987  13.0736 O.co2          1 <1>               -1.0000
      2 C2          -0.0890 -16.4649  13.9530 C.2            1 <1>                0.0000
      3 O3          -0.1375 -15.6005  14.8116 O.co2          1 <1>                0.0000
      4 C4           1.0102 -17.4953  13.9824 C.3            1 <1>                0.0000
      5 C5           2.4137 -16.9052  13.7655 C.3            1 <1>                0.0000
      6 C6           2.7134 -18.1403  12.8997 C.3            1 <1>                0.0000
      7 C7           1.1995 -18.2324  12.6460 C.3            1 <1>                0.0000
      8 C8           0.6707 -19.6435  12.6547 C.ar           1 <1>                0.0000
      9 C9           0.9666 -20.4857  13.7095 C.ar           1 <1>                0.0000
     10 C10          0.4823 -21.7805  13.7181 C.ar           1 <1>                0.0000
     11 C11         -0.2996 -22.2344  12.6710 C.ar           1 <1>                0.0000
     12 Cl12        -0.9077 -23.8604  12.6831 Cl             1 <1>                0.0000
     13 C13         -0.5972 -21.3925  11.6145 C.ar           1 <1>                0.0000
     14 C14         -0.1166 -20.0944  11.6084 C.ar           1 <1>                0.0000
     15 F15         -0.4069 -19.2710  10.5774 F              1 <1>                0.0000
     16 H16          0.9444 -18.1600  14.8436 H              1 <1>                0.0000
     17 H17          2.4123 -15.9697  13.2060 H              1 <1>                0.0000
     18 H18          3.0114 -16.8544  14.6755 H              1 <1>                0.0000
     19 H19          3.2933 -17.9157  12.0045 H              1 <1>                0.0000
     20 H20          3.1136 -18.9825  13.4642 H              1 <1>                0.0000
     21 H21          0.8662 -17.6598  11.7805 H              1 <1>                0.0000
     22 H22          1.5769 -20.1323  14.5275 H              1 <1>                0.0000
     23 H23          0.7147 -22.4382  14.5427 H              1 <1>                0.0000
     24 H24         -1.2075 -21.7465  10.7969 H              1 <1>                0.0000
@<TRIPOS>BOND
    1    1    2 ar    
    2    2    3 ar    
    3    2    4 1     
    4    4    5 1     
    5    4    7 1     
    6    4   16 1     
    7    5    6 1     
    8    5   17 1     
    9    5   18 1     
   10    6    7 1     
   11    6   19 1     
   12    6   20 1     
   13    7    8 1     
   14    7   21 1     
   15    8    9 ar    
   16    8   14 ar    
   17    9   10 ar    
   18    9   22 1     
   19   10   11 ar    
   20   10   23 1     
   21   11   12 1     
   22   11   13 ar    
   23   13   14 ar    
   24   13   24 1     
   25   14   15 1     
@<TRIPOS>SUBSTRUCTURE
      1 ****           1
@<TRIPOS>COMMENT
> <Gold.Version>
2022.2.0

> <Gold.Id.Protein>
3pbl|protein|mol2

> <Gold.Protein.RotatedTorsions>
[ 1303 1298 1297 1294 ] final   -7.37 input  179.99 | X-H torsion
[ 2461 2456 2455 2452 ] final  -88.33 input   30.03 | X-H torsion
[ 2515 2510 2509 2506 ] final  116.72 input  -89.99 | X-H torsion
[ 3721 3712 3711 3710 ] final   83.03 input -179.91 | X-H torsion
[ 3841 3832 3831 3830 ] final  151.35 input -179.91 | X-H torsion
[ 3767 3762 3761 3758 ] final  151.61 input  -89.99 | X-H torsion
[ 2472 2467 2466 2463 ] final  126.23 input  -89.97 | X-H torsion

> <Gold.Protein.ActiveResidues>
 VAL82   VAL86   LEU89   PHE106  VAL107  ASP110  VAL111  MET112  CYS114  THR115 
 CYS181  SER182  ILE183  PHE188  VAL189  ILE190  SER192  SER193  SER196  TRP342 
 PHE345  PHE346  HIS349  VAL350  TYR365  THR369  GLY372  TYR373 

> <Gold.Protein.RotatedAtoms>
    3.3545   -9.7725    3.9866 H   0  0  0  0  0  0  0  0  0  0  0  0  # atno 1303 bound_to 1298
    0.3480   -8.8897    7.6893 H   0  0  0  0  0  0  0  0  0  0  0  0  # atno 2461 bound_to 2456
   -5.4566   -5.1113    8.2199 H   0  0  0  0  0  0  0  0  0  0  0  0  # atno 2472 bound_to 2467
    2.0364   -8.1144    6.0520 H   0  0  0  0  0  0  0  0  0  0  0  0  # atno 2515 bound_to 2510
   -2.7341  -17.6945   13.1521 H   0  0  0  0  0  0  0  0  0  0  0  0  # atno 3721 bound_to 3712
   -3.9231  -22.8788   11.3120 H   0  0  0  0  0  0  0  0  0  0  0  0  # atno 3767 bound_to 3762
    3.1204  -20.3900    8.6151 H   0  0  0  0  0  0  0  0  0  0  0  0  # atno 3841 bound_to 3832
    4.3330   -8.4773    4.1633 LP  0  0  0  0  0  0  0  0  0  0  0  0  # atno 4297 bound_to 1298
    4.6750   -9.8713    4.9419 LP  0  0  0  0  0  0  0  0  0  0  0  0  # atno 4298 bound_to 1298
    1.8495   -8.9988    8.3224 LP  0  0  0  0  0  0  0  0  0  0  0  0  # atno 4299 bound_to 2456
    1.5400   -7.9198    7.1364 LP  0  0  0  0  0  0  0  0  0  0  0  0  # atno 4300 bound_to 2456
    2.5629   -7.6643    4.5735 LP  0  0  0  0  0  0  0  0  0  0  0  0  # atno 4301 bound_to 2510
    2.6976   -9.2205    5.0494 LP  0  0  0  0  0  0  0  0  0  0  0  0  # atno 4302 bound_to 2510
   -2.8088  -17.7419   14.7552 LP  0  0  0  0  0  0  0  0  0  0  0  0  # atno 4306 bound_to 3712
   -3.5624  -16.5558   13.9235 LP  0  0  0  0  0  0  0  0  0  0  0  0  # atno 4307 bound_to 3712
    1.9461  -20.9654    9.5457 LP  0  0  0  0  0  0  0  0  0  0  0  0  # atno 4314 bound_to 3832
    1.6787  -19.6864    8.5662 LP  0  0  0  0  0  0  0  0  0  0  0  0  # atno 4315 bound_to 3832
   -4.9618  -23.0729   10.0668 LP  0  0  0  0  0  0  0  0  0  0  0  0  # atno 4318 bound_to 3762
   -5.2422  -21.9235   11.1924 LP  0  0  0  0  0  0  0  0  0  0  0  0  # atno 4319 bound_to 3762
   -3.8599   -4.8537    7.9947 LP  0  0  0  0  0  0  0  0  0  0  0  0  # atno 4320 bound_to 2467
   -4.4006   -5.4285    9.4244 LP  0  0  0  0  0  0  0  0  0  0  0  0  # atno 4321 bound_to 2467

> <Gold.Score>
     Score     S(PLP)   S(hbond)     S(cho)   S(metal)  DE(clash)   DE(tors)     intcor
     41.15     -37.41       1.27       0.00       0.00       0.00       0.50       0.93

> <Gold.PLP.Fitness>
41.1510

> <Gold.PLP.PLP>
-37.4095

> <Gold.PLP.part.hbond>
-2.0000

> <Gold.PLP.part.metal>
0.0000

> <Gold.PLP.part.buried>
-4.0431

> <Gold.PLP.part.nonpolar>
-32.5153

> <Gold.PLP.part.repulsive>
0.1844

> <Gold.PLP.ligand.clash>
0.0000

> <Gold.PLP.ligand.torsion>
0.4981

> <Gold.PLP.Chemscore.Hbond>
1.2704

> <Gold.PLP.Chemscore.CHOScore>
0.0000

> <Gold.PLP.Chemscore.Metal>
0.0000

> <Gold.Chemscore.Hbonds>
donor molecule, donor type, donor heavy atom, donor atom, acceptor molecule, acceptor atom, score
      P1  H  2305  2313       L1     3  1.00
      P1  H  3712  3721       L1     1  0.27

> <Gold.PLP.Chemscore.Internal.Correction>
0.9264

