#       Name:                EN300-222254_i002
#       Creating user name   fsindt
#       Creation time:       Tue Feb 28 07:47:09 2023


#       File generated by GOLD software.
#

@<TRIPOS>MOLECULE
EN300-222254_i002|acide_2|mol2|3756|dock7
    24    25     1
SMALL
USER_CHARGES


@<TRIPOS>ATOM
      1 O1           1.0761 -15.2604  11.4874 O.co2          1 <1>               -1.0000
      2 C2           0.0691 -14.5794  11.3943 C.2            1 <1>                0.0000
      3 O3          -0.6133 -14.3621  12.3811 O.co2          1 <1>                0.0000
      4 C4          -0.3286 -14.0010  10.0609 C.3            1 <1>                0.0000
      5 C5           0.7881 -14.0614   9.0053 C.3            1 <1>                0.0000
      6 C6           0.3404 -12.6575   8.5654 C.3            1 <1>                0.0000
      7 C7          -0.2035 -12.4698   9.9915 C.3            1 <1>                0.0000
      8 C8          -1.5280 -11.7529  10.0428 C.ar           1 <1>                0.0000
      9 C9          -2.6243 -12.2791   9.3866 C.ar           1 <1>                0.0000
     10 C10         -3.8397 -11.6218   9.4328 C.ar           1 <1>                0.0000
     11 C11         -3.9599 -10.4369  10.1366 C.ar           1 <1>                0.0000
     12 Cl12        -5.4867  -9.6127  10.1944 Cl             1 <1>                0.0000
     13 C13         -2.8635  -9.9090  10.7946 C.ar           1 <1>                0.0000
     14 C14         -1.6479 -10.5698  10.7526 C.ar           1 <1>                0.0000
     15 F15         -0.5765 -10.0555  11.3951 F              1 <1>                0.0000
     16 H16         -1.2870 -14.3786   9.7046 H              1 <1>                0.0000
     17 H17          1.7910 -14.0862   9.4316 H              1 <1>                0.0000
     18 H18          0.6306 -14.8277   8.2463 H              1 <1>                0.0000
     19 H19          1.1683 -11.9913   8.3226 H              1 <1>                0.0000
     20 H20         -0.4354 -12.6666   7.7998 H              1 <1>                0.0000
     21 H21          0.5283 -12.0595  10.6874 H              1 <1>                0.0000
     22 H22         -2.5316 -13.2041   8.8369 H              1 <1>                0.0000
     23 H23         -4.6958 -12.0336   8.9190 H              1 <1>                0.0000
     24 H24         -2.9569  -8.9840  11.3440 H              1 <1>                0.0000
@<TRIPOS>BOND
    1    1    2 ar    
    2    2    3 ar    
    3    2    4 1     
    4    4    5 1     
    5    4    7 1     
    6    4   16 1     
    7    5    6 1     
    8    5   17 1     
    9    5   18 1     
   10    6    7 1     
   11    6   19 1     
   12    6   20 1     
   13    7    8 1     
   14    7   21 1     
   15    8    9 ar    
   16    8   14 ar    
   17    9   10 ar    
   18    9   22 1     
   19   10   11 ar    
   20   10   23 1     
   21   11   12 1     
   22   11   13 ar    
   23   13   14 ar    
   24   13   24 1     
   25   14   15 1     
@<TRIPOS>SUBSTRUCTURE
      1 ****           1
@<TRIPOS>COMMENT
> <Gold.Version>
2022.2.0

> <Gold.Id.Protein>
3pbl|protein|mol2

> <Gold.Protein.RotatedTorsions>
[ 1303 1298 1297 1294 ] final  -63.08 input  179.99 | X-H torsion
[ 2461 2456 2455 2452 ] final   11.35 input   30.03 | X-H torsion
[ 2515 2510 2509 2506 ] final  171.44 input  -89.99 | X-H torsion
[ 3721 3712 3711 3710 ] final -130.42 input -179.91 | X-H torsion
[ 3841 3832 3831 3830 ] final  -22.35 input -179.91 | X-H torsion
[ 3767 3762 3761 3758 ] final   26.59 input  -89.99 | X-H torsion
[ 2472 2467 2466 2463 ] final -169.68 input  -89.97 | X-H torsion

> <Gold.Protein.ActiveResidues>
 VAL82   VAL86   LEU89   PHE106  VAL107  ASP110  VAL111  MET112  CYS114  THR115 
 CYS181  SER182  ILE183  PHE188  VAL189  ILE190  SER192  SER193  SER196  TRP342 
 PHE345  PHE346  HIS349  VAL350  TYR365  THR369  GLY372  TYR373 

> <Gold.Protein.RotatedAtoms>
    3.5258   -8.9336    3.7801 H   0  0  0  0  0  0  0  0  0  0  0  0  # atno 1303 bound_to 1298
    1.2205   -7.9402    7.0454 H   0  0  0  0  0  0  0  0  0  0  0  0  # atno 2461 bound_to 2456
   -5.2394   -5.4213    9.1461 H   0  0  0  0  0  0  0  0  0  0  0  0  # atno 2472 bound_to 2467
    2.2671   -8.9399    5.9270 H   0  0  0  0  0  0  0  0  0  0  0  0  # atno 2515 bound_to 2510
   -3.2668  -16.5912   14.2708 H   0  0  0  0  0  0  0  0  0  0  0  0  # atno 3721 bound_to 3712
   -5.0272  -23.0224   10.0632 H   0  0  0  0  0  0  0  0  0  0  0  0  # atno 3767 bound_to 3762
    1.5944  -20.2219    9.4096 H   0  0  0  0  0  0  0  0  0  0  0  0  # atno 3841 bound_to 3832
    4.8701   -8.9157    4.7067 LP  0  0  0  0  0  0  0  0  0  0  0  0  # atno 4297 bound_to 1298
    3.9665  -10.2721    4.6051 LP  0  0  0  0  0  0  0  0  0  0  0  0  # atno 4298 bound_to 1298
    0.4662   -9.0882    7.9288 LP  0  0  0  0  0  0  0  0  0  0  0  0  # atno 4299 bound_to 2456
    2.0510   -8.7796    8.1737 LP  0  0  0  0  0  0  0  0  0  0  0  0  # atno 4300 bound_to 2456
    2.1959   -7.4254    5.3212 LP  0  0  0  0  0  0  0  0  0  0  0  0  # atno 4301 bound_to 2510
    2.8338   -8.6336    4.4267 LP  0  0  0  0  0  0  0  0  0  0  0  0  # atno 4302 bound_to 2510
   -3.1040  -17.5052   12.9608 LP  0  0  0  0  0  0  0  0  0  0  0  0  # atno 4306 bound_to 3712
   -2.6522  -18.0663   14.4264 LP  0  0  0  0  0  0  0  0  0  0  0  0  # atno 4307 bound_to 3712
    2.4809  -19.7748    8.1486 LP  0  0  0  0  0  0  0  0  0  0  0  0  # atno 4314 bound_to 3832
    2.9068  -21.0711    9.0456 LP  0  0  0  0  0  0  0  0  0  0  0  0  # atno 4315 bound_to 3832
   -5.1877  -21.9164   11.2540 LP  0  0  0  0  0  0  0  0  0  0  0  0  # atno 4318 bound_to 3762
   -3.9125  -22.9364   11.2536 LP  0  0  0  0  0  0  0  0  0  0  0  0  # atno 4319 bound_to 3762
   -4.8096   -4.8448    7.6801 LP  0  0  0  0  0  0  0  0  0  0  0  0  # atno 4320 bound_to 2467
   -3.6681   -5.1275    8.8130 LP  0  0  0  0  0  0  0  0  0  0  0  0  # atno 4321 bound_to 2467

> <Gold.Score>
     Score     S(PLP)   S(hbond)     S(cho)   S(metal)  DE(clash)   DE(tors)     intcor
     47.73     -47.89       0.00       0.00       0.00       0.00       0.54       0.93

> <Gold.PLP.Fitness>
47.7269

> <Gold.PLP.PLP>
-47.8888

> <Gold.PLP.part.hbond>
0.0000

> <Gold.PLP.part.metal>
0.0000

> <Gold.PLP.part.buried>
-3.6100

> <Gold.PLP.part.nonpolar>
-44.2016

> <Gold.PLP.part.repulsive>
0.1757

> <Gold.PLP.ligand.clash>
0.0000

> <Gold.PLP.ligand.torsion>
0.5441

> <Gold.PLP.Chemscore.Hbond>
0.0000

> <Gold.PLP.Chemscore.CHOScore>
0.0000

> <Gold.PLP.Chemscore.Metal>
0.0000

> <Gold.PLP.Chemscore.Internal.Correction>
0.9264

