#       Name:                EN300-222254_i002
#       Creating user name   fsindt
#       Creation time:       Tue Feb 28 07:47:13 2023


#       File generated by GOLD software.
#

@<TRIPOS>MOLECULE
EN300-222254_i002|acide_2|mol2|3756|dock17
    24    25     1
SMALL
USER_CHARGES


@<TRIPOS>ATOM
      1 O1          -4.5588 -10.2044  10.9279 O.co2          1 <1>               -1.0000
      2 C2          -3.8556 -10.8711  10.1878 C.2            1 <1>                0.0000
      3 O3          -4.3650 -11.6598   9.4099 O.co2          1 <1>                0.0000
      4 C4          -2.3573 -10.7158  10.2302 C.3            1 <1>                0.0000
      5 C5          -1.8263  -9.6083   9.3048 C.3            1 <1>                0.0000
      6 C6          -0.6659 -10.5581   8.9640 C.3            1 <1>                0.0000
      7 C7          -1.6087 -11.7156   9.3330 C.3            1 <1>                0.0000
      8 C8          -0.9328 -12.8243  10.0978 C.ar           1 <1>                0.0000
      9 C9          -1.3182 -13.1036  11.3950 C.ar           1 <1>                0.0000
     10 C10         -0.6983 -14.1202  12.0975 C.ar           1 <1>                0.0000
     11 C11          0.3082 -14.8595  11.5024 C.ar           1 <1>                0.0000
     12 Cl12         1.0856 -16.1362  12.3852 Cl             1 <1>                0.0000
     13 C13          0.6950 -14.5815  10.2036 C.ar           1 <1>                0.0000
     14 C14          0.0708 -13.5671   9.4985 C.ar           1 <1>                0.0000
     15 F15          0.4473 -13.2949   8.2298 F              1 <1>                0.0000
     16 H16         -1.9660 -10.6608  11.2460 H              1 <1>                0.0000
     17 H17         -2.4796  -9.3959   8.4585 H              1 <1>                0.0000
     18 H18         -1.5131  -8.7090   9.8351 H              1 <1>                0.0000
     19 H19         -0.3843 -10.5431   7.9111 H              1 <1>                0.0000
     20 H20          0.1889 -10.4609   9.6333 H              1 <1>                0.0000
     21 H21         -2.2025 -12.0794   8.4945 H              1 <1>                0.0000
     22 H22         -2.1039 -12.5270  11.8606 H              1 <1>                0.0000
     23 H23         -0.9998 -14.3373  13.1116 H              1 <1>                0.0000
     24 H24          1.4808 -15.1584   9.7387 H              1 <1>                0.0000
@<TRIPOS>BOND
    1    1    2 ar    
    2    2    3 ar    
    3    2    4 1     
    4    4    5 1     
    5    4    7 1     
    6    4   16 1     
    7    5    6 1     
    8    5   17 1     
    9    5   18 1     
   10    6    7 1     
   11    6   19 1     
   12    6   20 1     
   13    7    8 1     
   14    7   21 1     
   15    8    9 ar    
   16    8   14 ar    
   17    9   10 ar    
   18    9   22 1     
   19   10   11 ar    
   20   10   23 1     
   21   11   12 1     
   22   11   13 ar    
   23   13   14 ar    
   24   13   24 1     
   25   14   15 1     
@<TRIPOS>SUBSTRUCTURE
      1 ****           1
@<TRIPOS>COMMENT
> <Gold.Version>
2022.2.0

> <Gold.Id.Protein>
3pbl|protein|mol2

> <Gold.Protein.RotatedTorsions>
[ 1303 1298 1297 1294 ] final  -31.18 input  179.99 | X-H torsion
[ 2461 2456 2455 2452 ] final  145.92 input   30.03 | X-H torsion
[ 2515 2510 2509 2506 ] final  -63.48 input  -89.99 | X-H torsion
[ 3721 3712 3711 3710 ] final   42.35 input -179.91 | X-H torsion
[ 3841 3832 3831 3830 ] final   87.44 input -179.91 | X-H torsion
[ 3767 3762 3761 3758 ] final   13.46 input  -89.99 | X-H torsion
[ 2472 2467 2466 2463 ] final   -7.25 input  -89.97 | X-H torsion

> <Gold.Protein.ActiveResidues>
 VAL82   VAL86   LEU89   PHE106  VAL107  ASP110  VAL111  MET112  CYS114  THR115 
 CYS181  SER182  ILE183  PHE188  VAL189  ILE190  SER192  SER193  SER196  TRP342 
 PHE345  PHE346  HIS349  VAL350  TYR365  THR369  GLY372  TYR373 

> <Gold.Protein.RotatedAtoms>
    3.3400   -9.4138    3.8372 H   0  0  0  0  0  0  0  0  0  0  0  0  # atno 1303 bound_to 1298
    1.9156   -8.9407    8.2875 H   0  0  0  0  0  0  0  0  0  0  0  0  # atno 2461 bound_to 2456
   -3.7372   -4.9048    8.1718 H   0  0  0  0  0  0  0  0  0  0  0  0  # atno 2472 bound_to 2467
    2.8286   -8.5547    4.3993 H   0  0  0  0  0  0  0  0  0  0  0  0  # atno 2515 bound_to 2510
   -2.5147  -18.0050   13.6191 H   0  0  0  0  0  0  0  0  0  0  0  0  # atno 3721 bound_to 3712
   -5.1862  -22.8782   10.0840 H   0  0  0  0  0  0  0  0  0  0  0  0  # atno 3767 bound_to 3762
    2.8146  -20.9308    9.2887 H   0  0  0  0  0  0  0  0  0  0  0  0  # atno 3841 bound_to 3832
    4.6227   -8.5766    4.4031 LP  0  0  0  0  0  0  0  0  0  0  0  0  # atno 4297 bound_to 1298
    4.3999  -10.1309    4.8514 LP  0  0  0  0  0  0  0  0  0  0  0  0  # atno 4298 bound_to 1298
    1.4517   -7.9169    7.1027 LP  0  0  0  0  0  0  0  0  0  0  0  0  # atno 4299 bound_to 2456
    0.3707   -8.9506    7.7580 LP  0  0  0  0  0  0  0  0  0  0  0  0  # atno 4300 bound_to 2456
    2.3002   -8.9996    5.8787 LP  0  0  0  0  0  0  0  0  0  0  0  0  # atno 4301 bound_to 2510
    2.1678   -7.4447    5.3977 LP  0  0  0  0  0  0  0  0  0  0  0  0  # atno 4302 bound_to 2510
   -3.1311  -17.1660   14.8413 LP  0  0  0  0  0  0  0  0  0  0  0  0  # atno 4306 bound_to 3712
   -3.4933  -16.7733   13.2982 LP  0  0  0  0  0  0  0  0  0  0  0  0  # atno 4307 bound_to 3712
    1.3929  -20.1917    9.1956 LP  0  0  0  0  0  0  0  0  0  0  0  0  # atno 4314 bound_to 3832
    2.5852  -19.8354    8.1382 LP  0  0  0  0  0  0  0  0  0  0  0  0  # atno 4315 bound_to 3832
   -5.0290  -21.9236   11.3997 LP  0  0  0  0  0  0  0  0  0  0  0  0  # atno 4318 bound_to 3762
   -3.9124  -23.0734   11.0871 LP  0  0  0  0  0  0  0  0  0  0  0  0  # atno 4319 bound_to 3762
   -4.6201   -5.4548    9.4306 LP  0  0  0  0  0  0  0  0  0  0  0  0  # atno 4320 bound_to 2467
   -5.3594   -5.0338    8.0367 LP  0  0  0  0  0  0  0  0  0  0  0  0  # atno 4321 bound_to 2467

> <Gold.Score>
     Score     S(PLP)   S(hbond)     S(cho)   S(metal)  DE(clash)   DE(tors)     intcor
     46.60     -47.01       0.00       0.00       0.00       0.00       0.67       0.93

> <Gold.PLP.Fitness>
46.5991

> <Gold.PLP.PLP>
-47.0123

> <Gold.PLP.part.hbond>
0.0000

> <Gold.PLP.part.metal>
0.0000

> <Gold.PLP.part.buried>
-1.1857

> <Gold.PLP.part.nonpolar>
-47.6807

> <Gold.PLP.part.repulsive>
0.2141

> <Gold.PLP.ligand.clash>
0.0000

> <Gold.PLP.ligand.torsion>
0.6698

> <Gold.PLP.Chemscore.Hbond>
0.0000

> <Gold.PLP.Chemscore.CHOScore>
0.0000

> <Gold.PLP.Chemscore.Metal>
0.0000

> <Gold.PLP.Chemscore.Internal.Correction>
0.9264

