#       Name:                EN300-222254_i002
#       Creating user name   fsindt
#       Creation time:       Tue Feb 28 07:47:15 2023


#       File generated by GOLD software.
#

@<TRIPOS>MOLECULE
EN300-222254_i002|acide_2|mol2|3756|dock20
    24    25     1
SMALL
USER_CHARGES


@<TRIPOS>ATOM
      1 O1          -0.1937 -15.4726  12.3986 O.co2          1 <1>               -1.0000
      2 C2          -0.2904 -16.6423  12.7290 C.2            1 <1>                0.0000
      3 O3          -0.9994 -17.3999  12.0888 O.co2          1 <1>                0.0000
      4 C4           0.4712 -17.1529  13.9248 C.3            1 <1>                0.0000
      5 C5           1.6394 -16.2452  14.3447 C.3            1 <1>                0.0000
      6 C6           2.4427 -17.5309  14.6026 C.3            1 <1>                0.0000
      7 C7           1.5260 -18.2160  13.5753 C.3            1 <1>                0.0000
      8 C8           1.1243 -19.6156  13.9636 C.ar           1 <1>                0.0000
      9 C9           0.6320 -19.8668  15.2300 C.ar           1 <1>                0.0000
     10 C10          0.2636 -21.1505  15.5872 C.ar           1 <1>                0.0000
     11 C11          0.3868 -22.1850  14.6770 C.ar           1 <1>                0.0000
     12 Cl12        -0.0766 -23.7965  15.1264 Cl             1 <1>                0.0000
     13 C13          0.8790 -21.9351  13.4085 C.ar           1 <1>                0.0000
     14 C14          1.2430 -20.6489  13.0492 C.ar           1 <1>                0.0000
     15 F15          1.7234 -20.4034  11.8106 F              1 <1>                0.0000
     16 H16         -0.1798 -17.4371  14.7515 H              1 <1>                0.0000
     17 H17          2.0357 -15.6387  13.5304 H              1 <1>                0.0000
     18 H18          1.4403 -15.6665  15.2467 H              1 <1>                0.0000
     19 H19          3.4833 -17.4666  14.2848 H              1 <1>                0.0000
     20 H20          2.3314 -17.9196  15.6148 H              1 <1>                0.0000
     21 H21          1.8913 -18.1483  12.5506 H              1 <1>                0.0000
     22 H22          0.5354 -19.0599  15.9414 H              1 <1>                0.0000
     23 H23         -0.1204 -21.3460  16.5776 H              1 <1>                0.0000
     24 H24          0.9754 -22.7424  12.6977 H              1 <1>                0.0000
@<TRIPOS>BOND
    1    1    2 ar    
    2    2    3 ar    
    3    2    4 1     
    4    4    5 1     
    5    4    7 1     
    6    4   16 1     
    7    5    6 1     
    8    5   17 1     
    9    5   18 1     
   10    6    7 1     
   11    6   19 1     
   12    6   20 1     
   13    7    8 1     
   14    7   21 1     
   15    8    9 ar    
   16    8   14 ar    
   17    9   10 ar    
   18    9   22 1     
   19   10   11 ar    
   20   10   23 1     
   21   11   12 1     
   22   11   13 ar    
   23   13   14 ar    
   24   13   24 1     
   25   14   15 1     
@<TRIPOS>SUBSTRUCTURE
      1 ****           1
@<TRIPOS>COMMENT
> <Gold.Version>
2022.2.0

> <Gold.Id.Protein>
3pbl|protein|mol2

> <Gold.Protein.RotatedTorsions>
[ 1303 1298 1297 1294 ] final  146.74 input  179.99 | X-H torsion
[ 2461 2456 2455 2452 ] final -141.88 input   30.03 | X-H torsion
[ 2515 2510 2509 2506 ] final   60.48 input  -89.99 | X-H torsion
[ 3721 3712 3711 3710 ] final   67.30 input -179.91 | X-H torsion
[ 3841 3832 3831 3830 ] final    1.36 input -179.91 | X-H torsion
[ 3767 3762 3761 3758 ] final    0.28 input  -89.99 | X-H torsion
[ 2472 2467 2466 2463 ] final -128.50 input  -89.97 | X-H torsion

> <Gold.Protein.ActiveResidues>
 VAL82   VAL86   LEU89   PHE106  VAL107  ASP110  VAL111  MET112  CYS114  THR115 
 CYS181  SER182  ILE183  PHE188  VAL189  ILE190  SER192  SER193  SER196  TRP342 
 PHE345  PHE346  HIS349  VAL350  TYR365  THR369  GLY372  TYR373 

> <Gold.Protein.RotatedAtoms>
    4.8959   -9.3662    4.9001 H   0  0  0  0  0  0  0  0  0  0  0  0  # atno 1303 bound_to 1298
    0.8562   -9.2745    8.2511 H   0  0  0  0  0  0  0  0  0  0  0  0  # atno 2461 bound_to 2456
   -4.6405   -5.4571    9.4284 H   0  0  0  0  0  0  0  0  0  0  0  0  # atno 2472 bound_to 2467
    2.1477   -7.4648    5.4562 H   0  0  0  0  0  0  0  0  0  0  0  0  # atno 2515 bound_to 2510
   -2.6321  -17.8497   13.2995 H   0  0  0  0  0  0  0  0  0  0  0  0  # atno 3721 bound_to 3712
   -5.3206  -22.7201   10.1455 H   0  0  0  0  0  0  0  0  0  0  0  0  # atno 3767 bound_to 3762
    1.7487  -20.5022    9.5649 H   0  0  0  0  0  0  0  0  0  0  0  0  # atno 3841 bound_to 3832
    3.5971  -10.1555    4.3031 LP  0  0  0  0  0  0  0  0  0  0  0  0  # atno 4297 bound_to 1298
    3.8688   -8.5996    3.8882 LP  0  0  0  0  0  0  0  0  0  0  0  0  # atno 4298 bound_to 1298
    2.1580   -8.3876    7.8195 LP  0  0  0  0  0  0  0  0  0  0  0  0  # atno 4299 bound_to 2456
    0.7234   -8.1463    7.0777 LP  0  0  0  0  0  0  0  0  0  0  0  0  # atno 4300 bound_to 2456
    2.8224   -8.4925    4.3817 LP  0  0  0  0  0  0  0  0  0  0  0  0  # atno 4301 bound_to 2510
    2.3268   -9.0423    5.8373 LP  0  0  0  0  0  0  0  0  0  0  0  0  # atno 4302 bound_to 2510
   -2.9253  -17.5247   14.8443 LP  0  0  0  0  0  0  0  0  0  0  0  0  # atno 4306 bound_to 3712
   -3.5636  -16.5938   13.6642 LP  0  0  0  0  0  0  0  0  0  0  0  0  # atno 4307 bound_to 3712
    2.1242  -19.6500    8.2577 LP  0  0  0  0  0  0  0  0  0  0  0  0  # atno 4314 bound_to 3832
    3.0852  -20.8722    8.7570 LP  0  0  0  0  0  0  0  0  0  0  0  0  # atno 4315 bound_to 3832
   -4.8529  -21.9677   11.5173 LP  0  0  0  0  0  0  0  0  0  0  0  0  # atno 4318 bound_to 3762
   -3.9541  -23.1873   10.9079 LP  0  0  0  0  0  0  0  0  0  0  0  0  # atno 4319 bound_to 3762
   -5.3482   -5.0270    8.0211 LP  0  0  0  0  0  0  0  0  0  0  0  0  # atno 4320 bound_to 2467
   -3.7282   -4.9095    8.1897 LP  0  0  0  0  0  0  0  0  0  0  0  0  # atno 4321 bound_to 2467

> <Gold.Score>
     Score     S(PLP)   S(hbond)     S(cho)   S(metal)  DE(clash)   DE(tors)     intcor
     40.00     -37.15       0.98       0.00       0.00       0.00       0.50       0.93

> <Gold.PLP.Fitness>
39.9987

> <Gold.PLP.PLP>
-37.1504

> <Gold.PLP.part.hbond>
-1.0000

> <Gold.PLP.part.metal>
0.0000

> <Gold.PLP.part.buried>
-1.8776

> <Gold.PLP.part.nonpolar>
-34.7849

> <Gold.PLP.part.repulsive>
0.1377

> <Gold.PLP.ligand.clash>
0.0000

> <Gold.PLP.ligand.torsion>
0.5030

> <Gold.PLP.Chemscore.Hbond>
0.9760

> <Gold.PLP.Chemscore.CHOScore>
0.0000

> <Gold.PLP.Chemscore.Metal>
0.0000

> <Gold.Chemscore.Hbonds>
donor molecule, donor type, donor heavy atom, donor atom, acceptor molecule, acceptor atom, score
      P1  H  3712  3721       L1     3  0.98

> <Gold.PLP.Chemscore.Internal.Correction>
0.9264

