#       Name:                EN300-222254_i002
#       Creating user name   fsindt
#       Creation time:       Tue Feb 28 07:47:14 2023


#       File generated by GOLD software.
#

@<TRIPOS>MOLECULE
EN300-222254_i002|acide_2|mol2|3756|dock18
    24    25     1
SMALL
USER_CHARGES


@<TRIPOS>ATOM
      1 O1          -0.3768 -20.4679  12.8865 O.co2          1 <1>               -1.0000
      2 C2           0.3588 -19.8961  12.1000 C.2            1 <1>                0.0000
      3 O3           0.7924 -20.4910  11.1280 O.co2          1 <1>                0.0000
      4 C4           0.7269 -18.4525  12.3258 C.3            1 <1>                0.0000
      5 C5           0.6274 -18.0140  13.7965 C.3            1 <1>                0.0000
      6 C6           0.0378 -16.6909  13.2803 C.3            1 <1>                0.0000
      7 C7          -0.4218 -17.4714  12.0376 C.3            1 <1>                0.0000
      8 C8          -0.2546 -16.7078  10.7492 C.ar           1 <1>                0.0000
      9 C9           0.1983 -15.4026  10.7733 C.ar           1 <1>                0.0000
     10 C10          0.3516 -14.7012   9.5919 C.ar           1 <1>                0.0000
     11 C11          0.0523 -15.3055   8.3840 C.ar           1 <1>                0.0000
     12 Cl12         0.2456 -14.4241   6.9009 Cl             1 <1>                0.0000
     13 C13         -0.4008 -16.6123   8.3579 C.ar           1 <1>                0.0000
     14 C14         -0.5492 -17.3162   9.5405 C.ar           1 <1>                0.0000
     15 F15         -0.9911 -18.5927   9.5163 F              1 <1>                0.0000
     16 H16          1.6682 -18.1763  11.8507 H              1 <1>                0.0000
     17 H17         -0.0758 -18.6064  14.3820 H              1 <1>                0.0000
     18 H18          1.5952 -17.8998  14.2845 H              1 <1>                0.0000
     19 H19         -0.7848 -16.3131  13.8875 H              1 <1>                0.0000
     20 H20          0.7902 -15.9319  13.0657 H              1 <1>                0.0000
     21 H21         -1.4118 -17.9154  12.1422 H              1 <1>                0.0000
     22 H22          0.4322 -14.9299  11.7159 H              1 <1>                0.0000
     23 H23          0.7049 -13.6809   9.6119 H              1 <1>                0.0000
     24 H24         -0.6345 -17.0844   7.4151 H              1 <1>                0.0000
@<TRIPOS>BOND
    1    1    2 ar    
    2    2    3 ar    
    3    2    4 1     
    4    4    5 1     
    5    4    7 1     
    6    4   16 1     
    7    5    6 1     
    8    5   17 1     
    9    5   18 1     
   10    6    7 1     
   11    6   19 1     
   12    6   20 1     
   13    7    8 1     
   14    7   21 1     
   15    8    9 ar    
   16    8   14 ar    
   17    9   10 ar    
   18    9   22 1     
   19   10   11 ar    
   20   10   23 1     
   21   11   12 1     
   22   11   13 ar    
   23   13   14 ar    
   24   13   24 1     
   25   14   15 1     
@<TRIPOS>SUBSTRUCTURE
      1 ****           1
@<TRIPOS>COMMENT
> <Gold.Version>
2022.2.0

> <Gold.Id.Protein>
3pbl|protein|mol2

> <Gold.Protein.RotatedTorsions>
[ 1303 1298 1297 1294 ] final  -19.76 input  179.99 | X-H torsion
[ 2461 2456 2455 2452 ] final -139.65 input   30.03 | X-H torsion
[ 2515 2510 2509 2506 ] final -144.23 input  -89.99 | X-H torsion
[ 3721 3712 3711 3710 ] final   38.92 input -179.91 | X-H torsion
[ 3841 3832 3831 3830 ] final   -9.86 input -179.91 | X-H torsion
[ 3767 3762 3761 3758 ] final  119.39 input  -89.99 | X-H torsion
[ 2472 2467 2466 2463 ] final -127.48 input  -89.97 | X-H torsion

> <Gold.Protein.ActiveResidues>
 VAL82   VAL86   LEU89   PHE106  VAL107  ASP110  VAL111  MET112  CYS114  THR115 
 CYS181  SER182  ILE183  PHE188  VAL189  ILE190  SER192  SER193  SER196  TRP342 
 PHE345  PHE346  HIS349  VAL350  TYR365  THR369  GLY372  TYR373 

> <Gold.Protein.RotatedAtoms>
    3.3300   -9.5907    3.8989 H   0  0  0  0  0  0  0  0  0  0  0  0  # atno 1303 bound_to 1298
    0.8244   -9.2686    8.2341 H   0  0  0  0  0  0  0  0  0  0  0  0  # atno 2461 bound_to 2456
   -4.6238   -5.4558    9.4300 H   0  0  0  0  0  0  0  0  0  0  0  0  # atno 2472 bound_to 2467
    2.5714   -9.2544    5.3664 H   0  0  0  0  0  0  0  0  0  0  0  0  # atno 2515 bound_to 2510
   -2.5039  -18.0161   13.6686 H   0  0  0  0  0  0  0  0  0  0  0  0  # atno 3721 bound_to 3712
   -3.9578  -23.1935   10.8954 H   0  0  0  0  0  0  0  0  0  0  0  0  # atno 3767 bound_to 3762
    1.6610  -20.3716    9.5024 H   0  0  0  0  0  0  0  0  0  0  0  0  # atno 3841 bound_to 3832
    4.4915   -8.5104    4.2863 LP  0  0  0  0  0  0  0  0  0  0  0  0  # atno 4297 bound_to 1298
    4.5410  -10.0202    4.9065 LP  0  0  0  0  0  0  0  0  0  0  0  0  # atno 4298 bound_to 1298
    2.1603   -8.4130    7.8457 LP  0  0  0  0  0  0  0  0  0  0  0  0  # atno 4299 bound_to 2456
    0.7530   -8.1268    7.0685 LP  0  0  0  0  0  0  0  0  0  0  0  0  # atno 4300 bound_to 2456
    2.0345   -7.8075    5.8992 LP  0  0  0  0  0  0  0  0  0  0  0  0  # atno 4301 bound_to 2510
    2.6908   -7.9368    4.4096 LP  0  0  0  0  0  0  0  0  0  0  0  0  # atno 4302 bound_to 2510
   -3.1597  -17.1184   14.8269 LP  0  0  0  0  0  0  0  0  0  0  0  0  # atno 4306 bound_to 3712
   -3.4773  -16.8080   13.2555 LP  0  0  0  0  0  0  0  0  0  0  0  0  # atno 4307 bound_to 3712
    2.2939  -19.6942    8.1922 LP  0  0  0  0  0  0  0  0  0  0  0  0  # atno 4314 bound_to 3832
    3.0168  -20.9788    8.8948 LP  0  0  0  0  0  0  0  0  0  0  0  0  # atno 4315 bound_to 3832
   -5.3288  -22.7098   10.1516 LP  0  0  0  0  0  0  0  0  0  0  0  0  # atno 4318 bound_to 3762
   -4.8405  -21.9720   11.5241 LP  0  0  0  0  0  0  0  0  0  0  0  0  # atno 4319 bound_to 3762
   -5.3575   -5.0326    8.0340 LP  0  0  0  0  0  0  0  0  0  0  0  0  # atno 4320 bound_to 2467
   -3.7357   -4.9051    8.1753 LP  0  0  0  0  0  0  0  0  0  0  0  0  # atno 4321 bound_to 2467

> <Gold.Score>
     Score     S(PLP)   S(hbond)     S(cho)   S(metal)  DE(clash)   DE(tors)     intcor
     40.32     -37.93       1.00       0.00       0.00       0.00       0.77       0.93

> <Gold.PLP.Fitness>
40.3240

> <Gold.PLP.PLP>
-37.9295

> <Gold.PLP.part.hbond>
-1.0000

> <Gold.PLP.part.metal>
0.0000

> <Gold.PLP.part.buried>
-3.0349

> <Gold.PLP.part.nonpolar>
-33.7932

> <Gold.PLP.part.repulsive>
0.0779

> <Gold.PLP.ligand.clash>
0.0000

> <Gold.PLP.ligand.torsion>
0.7659

> <Gold.PLP.Chemscore.Hbond>
1.0000

> <Gold.PLP.Chemscore.CHOScore>
0.0000

> <Gold.PLP.Chemscore.Metal>
0.0000

> <Gold.Chemscore.Hbonds>
donor molecule, donor type, donor heavy atom, donor atom, acceptor molecule, acceptor atom, score
      P1  H  3832  3841       L1     3  1.00

> <Gold.PLP.Chemscore.Internal.Correction>
0.9264

