#       Name:                EN300-222254_i002
#       Creating user name   fsindt
#       Creation time:       Tue Feb 28 07:47:12 2023


#       File generated by GOLD software.
#

@<TRIPOS>MOLECULE
EN300-222254_i002|acide_2|mol2|3756|dock15
    24    25     1
SMALL
USER_CHARGES


@<TRIPOS>ATOM
      1 O1           0.1807 -15.6002  14.5867 O.co2          1 <1>               -1.0000
      2 C2          -0.4172 -16.5243  14.0621 C.2            1 <1>                0.0000
      3 O3          -0.7069 -17.5121  14.7154 O.co2          1 <1>                0.0000
      4 C4          -0.8036 -16.4428  12.6078 C.3            1 <1>                0.0000
      5 C5          -0.5518 -17.7450  11.8296 C.3            1 <1>                0.0000
      6 C6          -0.0676 -16.8637  10.6662 C.3            1 <1>                0.0000
      7 C7           0.2728 -15.7965  11.7197 C.3            1 <1>                0.0000
      8 C8          -0.0642 -14.3927  11.2876 C.ar           1 <1>                0.0000
      9 C9          -0.9924 -13.6553  11.9974 C.ar           1 <1>                0.0000
     10 C10         -1.3025 -12.3676  11.6015 C.ar           1 <1>                0.0000
     11 C11         -0.6834 -11.8154  10.4944 C.ar           1 <1>                0.0000
     12 Cl12        -1.0731 -10.1981   9.9984 Cl             1 <1>                0.0000
     13 C13          0.2466 -12.5520   9.7828 C.ar           1 <1>                0.0000
     14 C14          0.5608 -13.8395  10.1824 C.ar           1 <1>                0.0000
     15 F15          1.4692 -14.5598   9.4887 F              1 <1>                0.0000
     16 H16         -1.8011 -16.0302  12.4573 H              1 <1>                0.0000
     17 H17          0.2320 -18.3673  12.2615 H              1 <1>                0.0000
     18 H18         -1.4611 -18.3027  11.6057 H              1 <1>                0.0000
     19 H19          0.8061 -17.2625  10.1506 H              1 <1>                0.0000
     20 H20         -0.8634 -16.5654   9.9837 H              1 <1>                0.0000
     21 H21          1.2820 -15.8860  12.1216 H              1 <1>                0.0000
     22 H22         -1.4764 -14.0854  12.8619 H              1 <1>                0.0000
     23 H23         -2.0287 -11.7923  12.1566 H              1 <1>                0.0000
     24 H24          0.7301 -12.1214   8.9185 H              1 <1>                0.0000
@<TRIPOS>BOND
    1    1    2 ar    
    2    2    3 ar    
    3    2    4 1     
    4    4    5 1     
    5    4    7 1     
    6    4   16 1     
    7    5    6 1     
    8    5   17 1     
    9    5   18 1     
   10    6    7 1     
   11    6   19 1     
   12    6   20 1     
   13    7    8 1     
   14    7   21 1     
   15    8    9 ar    
   16    8   14 ar    
   17    9   10 ar    
   18    9   22 1     
   19   10   11 ar    
   20   10   23 1     
   21   11   12 1     
   22   11   13 ar    
   23   13   14 ar    
   24   13   24 1     
   25   14   15 1     
@<TRIPOS>SUBSTRUCTURE
      1 ****           1
@<TRIPOS>COMMENT
> <Gold.Version>
2022.2.0

> <Gold.Id.Protein>
3pbl|protein|mol2

> <Gold.Protein.RotatedTorsions>
[ 1303 1298 1297 1294 ] final  -10.80 input  179.99 | X-H torsion
[ 2461 2456 2455 2452 ] final  -91.29 input   30.03 | X-H torsion
[ 2515 2510 2509 2506 ] final  100.09 input  -89.99 | X-H torsion
[ 3721 3712 3711 3710 ] final   -8.57 input -179.91 | X-H torsion
[ 3841 3832 3831 3830 ] final  144.50 input -179.91 | X-H torsion
[ 3767 3762 3761 3758 ] final  124.51 input  -89.99 | X-H torsion
[ 2472 2467 2466 2463 ] final   95.32 input  -89.97 | X-H torsion

> <Gold.Protein.ActiveResidues>
 VAL82   VAL86   LEU89   PHE106  VAL107  ASP110  VAL111  MET112  CYS114  THR115 
 CYS181  SER182  ILE183  PHE188  VAL189  ILE190  SER192  SER193  SER196  TRP342 
 PHE345  PHE346  HIS349  VAL350  TYR365  THR369  GLY372  TYR373 

> <Gold.Protein.RotatedAtoms>
    3.3440   -9.7237    3.9604 H   0  0  0  0  0  0  0  0  0  0  0  0  # atno 1303 bound_to 1298
    0.3584   -8.9215    7.7248 H   0  0  0  0  0  0  0  0  0  0  0  0  # atno 2461 bound_to 2456
   -5.1707   -4.9438    7.8423 H   0  0  0  0  0  0  0  0  0  0  0  0  # atno 2472 bound_to 2467
    2.0307   -7.8665    5.9388 H   0  0  0  0  0  0  0  0  0  0  0  0  # atno 2515 bound_to 2510
   -2.5095  -17.8995   14.3563 H   0  0  0  0  0  0  0  0  0  0  0  0  # atno 3721 bound_to 3712
   -3.9356  -23.1533   10.9658 H   0  0  0  0  0  0  0  0  0  0  0  0  # atno 3767 bound_to 3762
    3.1318  -20.4700    8.6797 H   0  0  0  0  0  0  0  0  0  0  0  0  # atno 3841 bound_to 3832
    4.3782   -8.4823    4.1966 LP  0  0  0  0  0  0  0  0  0  0  0  0  # atno 4297 bound_to 1298
    4.6403   -9.9152    4.9348 LP  0  0  0  0  0  0  0  0  0  0  0  0  # atno 4298 bound_to 1298
    1.8843   -8.9693    8.3051 LP  0  0  0  0  0  0  0  0  0  0  0  0  # atno 4299 bound_to 2456
    1.4948   -7.9174    7.1183 LP  0  0  0  0  0  0  0  0  0  0  0  0  # atno 4300 bound_to 2456
    2.6667   -7.8750    4.4351 LP  0  0  0  0  0  0  0  0  0  0  0  0  # atno 4301 bound_to 2510
    2.5995   -9.2578    5.3011 LP  0  0  0  0  0  0  0  0  0  0  0  0  # atno 4302 bound_to 2510
   -3.4862  -16.6253   14.3322 LP  0  0  0  0  0  0  0  0  0  0  0  0  # atno 4306 bound_to 3712
   -3.1442  -17.4357   12.9563 LP  0  0  0  0  0  0  0  0  0  0  0  0  # atno 4307 bound_to 3712
    1.8516  -20.9009    9.5465 LP  0  0  0  0  0  0  0  0  0  0  0  0  # atno 4314 bound_to 3832
    1.7600  -19.6585    8.4908 LP  0  0  0  0  0  0  0  0  0  0  0  0  # atno 4315 bound_to 3832
   -5.2809  -22.7723   10.1221 LP  0  0  0  0  0  0  0  0  0  0  0  0  # atno 4318 bound_to 3762
   -4.9105  -21.9497   11.4832 LP  0  0  0  0  0  0  0  0  0  0  0  0  # atno 4319 bound_to 3762
   -3.6479   -4.9873    8.4301 LP  0  0  0  0  0  0  0  0  0  0  0  0  # atno 4320 bound_to 2467
   -4.8985   -5.4624    9.3666 LP  0  0  0  0  0  0  0  0  0  0  0  0  # atno 4321 bound_to 2467

> <Gold.Score>
     Score     S(PLP)   S(hbond)     S(cho)   S(metal)  DE(clash)   DE(tors)     intcor
     44.31     -39.40       1.86       0.00       0.00       0.00       0.81       0.93

> <Gold.PLP.Fitness>
44.3079

> <Gold.PLP.PLP>
-39.4042

> <Gold.PLP.part.hbond>
-2.0000

> <Gold.PLP.part.metal>
0.0000

> <Gold.PLP.part.buried>
3.0897

> <Gold.PLP.part.nonpolar>
-40.4443

> <Gold.PLP.part.repulsive>
0.1038

> <Gold.PLP.ligand.clash>
0.0000

> <Gold.PLP.ligand.torsion>
0.8073

> <Gold.PLP.Chemscore.Hbond>
1.8640

> <Gold.PLP.Chemscore.CHOScore>
0.0000

> <Gold.PLP.Chemscore.Metal>
0.0000

> <Gold.Chemscore.Hbonds>
donor molecule, donor type, donor heavy atom, donor atom, acceptor molecule, acceptor atom, score
      P1  H  2305  2313       L1     1  1.00
      P1  H  3712  3721       L1     3  0.86

> <Gold.PLP.Chemscore.Internal.Correction>
0.9264

