#       Name:                EN300-222254_i002
#       Creating user name   fsindt
#       Creation time:       Tue Feb 28 07:47:12 2023


#       File generated by GOLD software.
#

@<TRIPOS>MOLECULE
EN300-222254_i002|acide_2|mol2|3756|dock14
    24    25     1
SMALL
USER_CHARGES


@<TRIPOS>ATOM
      1 O1          -1.2592 -12.0037   8.7257 O.co2          1 <1>               -1.0000
      2 C2          -0.1390 -11.9740   8.2452 C.2            1 <1>                0.0000
      3 O3           0.2735 -10.9523   7.7231 O.co2          1 <1>                0.0000
      4 C4           0.7380 -13.1981   8.3023 C.3            1 <1>                0.0000
      5 C5           1.2662 -13.6421   6.9280 C.3            1 <1>                0.0000
      6 C6           1.0155 -15.0884   7.3865 C.3            1 <1>                0.0000
      7 C7          -0.0491 -14.5187   8.3388 C.3            1 <1>                0.0000
      8 C8          -0.0610 -15.1772   9.6942 C.ar           1 <1>                0.0000
      9 C9           0.2526 -14.4428  10.8219 C.ar           1 <1>                0.0000
     10 C10          0.2424 -15.0462  12.0657 C.ar           1 <1>                0.0000
     11 C11         -0.0822 -16.3859  12.1829 C.ar           1 <1>                0.0000
     12 Cl12        -0.0953 -17.1424  13.7453 Cl             1 <1>                0.0000
     13 C13         -0.3969 -17.1225  11.0550 C.ar           1 <1>                0.0000
     14 C14         -0.3918 -16.5170   9.8103 C.ar           1 <1>                0.0000
     15 F15         -0.6993 -17.2352   8.7081 F              1 <1>                0.0000
     16 H16          1.5125 -13.1287   9.0661 H              1 <1>                0.0000
     17 H17          0.6338 -13.3320   6.0961 H              1 <1>                0.0000
     18 H18          2.3195 -13.4107   6.7694 H              1 <1>                0.0000
     19 H19          0.6052 -15.7290   6.6058 H              1 <1>                0.0000
     20 H20          1.8657 -15.5371   7.9002 H              1 <1>                0.0000
     21 H21         -1.0411 -14.4482   7.8926 H              1 <1>                0.0000
     22 H22          0.5062 -13.3968  10.7315 H              1 <1>                0.0000
     23 H23          0.4883 -14.4715  12.9464 H              1 <1>                0.0000
     24 H24         -0.6504 -18.1683  11.1461 H              1 <1>                0.0000
@<TRIPOS>BOND
    1    1    2 ar    
    2    2    3 ar    
    3    2    4 1     
    4    4    5 1     
    5    4    7 1     
    6    4   16 1     
    7    5    6 1     
    8    5   17 1     
    9    5   18 1     
   10    6    7 1     
   11    6   19 1     
   12    6   20 1     
   13    7    8 1     
   14    7   21 1     
   15    8    9 ar    
   16    8   14 ar    
   17    9   10 ar    
   18    9   22 1     
   19   10   11 ar    
   20   10   23 1     
   21   11   12 1     
   22   11   13 ar    
   23   13   14 ar    
   24   13   24 1     
   25   14   15 1     
@<TRIPOS>SUBSTRUCTURE
      1 ****           1
@<TRIPOS>COMMENT
> <Gold.Version>
2022.2.0

> <Gold.Id.Protein>
3pbl|protein|mol2

> <Gold.Protein.RotatedTorsions>
[ 1303 1298 1297 1294 ] final -178.39 input  179.99 | X-H torsion
[ 2461 2456 2455 2452 ] final -124.22 input   30.03 | X-H torsion
[ 2515 2510 2509 2506 ] final -138.06 input  -89.99 | X-H torsion
[ 3721 3712 3711 3710 ] final -125.11 input -179.91 | X-H torsion
[ 3841 3832 3831 3830 ] final   23.91 input -179.91 | X-H torsion
[ 3767 3762 3761 3758 ] final  -51.53 input  -89.99 | X-H torsion
[ 2472 2467 2466 2463 ] final  179.48 input  -89.97 | X-H torsion

> <Gold.Protein.ActiveResidues>
 VAL82   VAL86   LEU89   PHE106  VAL107  ASP110  VAL111  MET112  CYS114  THR115 
 CYS181  SER182  ILE183  PHE188  VAL189  ILE190  SER192  SER193  SER196  TRP342 
 PHE345  PHE346  HIS349  VAL350  TYR365  THR369  GLY372  TYR373 

> <Gold.Protein.RotatedAtoms>
    4.8464   -8.8540    4.6669 H   0  0  0  0  0  0  0  0  0  0  0  0  # atno 1303 bound_to 1298
    0.6232   -9.2005    8.0959 H   0  0  0  0  0  0  0  0  0  0  0  0  # atno 2461 bound_to 2456
   -5.3515   -5.3854    9.0124 H   0  0  0  0  0  0  0  0  0  0  0  0  # atno 2472 bound_to 2467
    2.6113   -9.2571    5.2732 H   0  0  0  0  0  0  0  0  0  0  0  0  # atno 2515 bound_to 2510
   -3.2430  -16.6217   14.3411 H   0  0  0  0  0  0  0  0  0  0  0  0  # atno 3721 bound_to 3712
   -5.4950  -22.1302   10.6936 H   0  0  0  0  0  0  0  0  0  0  0  0  # atno 3767 bound_to 3762
    1.9899  -20.7328    9.6221 H   0  0  0  0  0  0  0  0  0  0  0  0  # atno 3841 bound_to 3832
    4.0303  -10.2682    4.6479 LP  0  0  0  0  0  0  0  0  0  0  0  0  # atno 4297 bound_to 1298
    3.4852   -8.9993    3.7767 LP  0  0  0  0  0  0  0  0  0  0  0  0  # atno 4298 bound_to 1298
    2.1383   -8.5953    8.0201 LP  0  0  0  0  0  0  0  0  0  0  0  0  # atno 4299 bound_to 2456
    0.9760   -8.0125    7.0322 LP  0  0  0  0  0  0  0  0  0  0  0  0  # atno 4300 bound_to 2456
    2.0293   -7.8923    5.9547 LP  0  0  0  0  0  0  0  0  0  0  0  0  # atno 4301 bound_to 2510
    2.6560   -7.8493    4.4474 LP  0  0  0  0  0  0  0  0  0  0  0  0  # atno 4302 bound_to 2510
   -3.1483  -17.4285   12.9562 LP  0  0  0  0  0  0  0  0  0  0  0  0  # atno 4306 bound_to 3712
   -2.6352  -18.1077   14.3498 LP  0  0  0  0  0  0  0  0  0  0  0  0  # atno 4307 bound_to 3712
    1.8050  -19.6481    8.4536 LP  0  0  0  0  0  0  0  0  0  0  0  0  # atno 4314 bound_to 3832
    3.1257  -20.6077    8.4950 LP  0  0  0  0  0  0  0  0  0  0  0  0  # atno 4315 bound_to 3832
   -4.1778  -22.4304   11.6111 LP  0  0  0  0  0  0  0  0  0  0  0  0  # atno 4318 bound_to 3762
   -4.4548  -23.3143   10.2663 LP  0  0  0  0  0  0  0  0  0  0  0  0  # atno 4319 bound_to 3762
   -4.6346   -4.8181    7.6593 LP  0  0  0  0  0  0  0  0  0  0  0  0  # atno 4320 bound_to 2467
   -3.7309   -5.1901    8.9675 LP  0  0  0  0  0  0  0  0  0  0  0  0  # atno 4321 bound_to 2467

> <Gold.Score>
     Score     S(PLP)   S(hbond)     S(cho)   S(metal)  DE(clash)   DE(tors)     intcor
     44.43     -41.83       1.00       0.00       0.00       0.00       0.67       0.93

> <Gold.PLP.Fitness>
44.4281

> <Gold.PLP.PLP>
-41.8328

> <Gold.PLP.part.hbond>
-1.0000

> <Gold.PLP.part.metal>
0.0000

> <Gold.PLP.part.buried>
-3.3020

> <Gold.PLP.part.nonpolar>
-36.2481

> <Gold.PLP.part.repulsive>
0.0089

> <Gold.PLP.ligand.clash>
0.0000

> <Gold.PLP.ligand.torsion>
0.6655

> <Gold.PLP.Chemscore.Hbond>
1.0000

> <Gold.PLP.Chemscore.CHOScore>
0.0000

> <Gold.PLP.Chemscore.Metal>
0.0000

> <Gold.Chemscore.Hbonds>
donor molecule, donor type, donor heavy atom, donor atom, acceptor molecule, acceptor atom, score
      P1  H  2456  2461       L1     3  1.00

> <Gold.PLP.Chemscore.Internal.Correction>
0.9264

