#       Name:                EN300-222254_i002
#       Creating user name   fsindt
#       Creation time:       Tue Feb 28 07:47:07 2023


#       File generated by GOLD software.
#

@<TRIPOS>MOLECULE
EN300-222254_i002|acide_2|mol2|3756|dock4
    24    25     1
SMALL
USER_CHARGES


@<TRIPOS>ATOM
      1 O1           1.9402 -14.7479  11.1858 O.co2          1 <1>               -1.0000
      2 C2           0.8004 -14.8911  10.7774 C.2            1 <1>                0.0000
      3 O3           0.0117 -15.5813  11.4007 O.co2          1 <1>                0.0000
      4 C4           0.3644 -14.2102   9.5059 C.3            1 <1>                0.0000
      5 C5           1.4242 -14.2481   8.3921 C.3            1 <1>                0.0000
      6 C6           1.0198 -12.8008   8.0660 C.3            1 <1>                0.0000
      7 C7           0.5555 -12.6843   9.5274 C.3            1 <1>                0.0000
      8 C8          -0.7309 -11.9171   9.6928 C.ar           1 <1>                0.0000
      9 C9          -1.9103 -12.4281   9.1855 C.ar           1 <1>                0.0000
     10 C10         -3.0908 -11.7247   9.3363 C.ar           1 <1>                0.0000
     11 C11         -3.0929 -10.5086   9.9959 C.ar           1 <1>                0.0000
     12 Cl12        -4.5761  -9.6265  10.1853 Cl             1 <1>                0.0000
     13 C13         -1.9132  -9.9958  10.5049 C.ar           1 <1>                0.0000
     14 C14         -0.7321 -10.7026  10.3583 C.ar           1 <1>                0.0000
     15 F15          0.4206 -10.2031  10.8554 F              1 <1>                0.0000
     16 H16         -0.6264 -14.5228   9.1765 H              1 <1>                0.0000
     17 H17          2.4446 -14.3433   8.7634 H              1 <1>                0.0000
     18 H18          1.1950 -14.9556   7.5952 H              1 <1>                0.0000
     19 H19          1.8642 -12.1556   7.8234 H              1 <1>                0.0000
     20 H20          0.2078 -12.7268   7.3427 H              1 <1>                0.0000
     21 H21          1.3384 -12.3520  10.2091 H              1 <1>                0.0000
     22 H22         -1.9097 -13.3774   8.6703 H              1 <1>                0.0000
     23 H23         -4.0119 -12.1247   8.9388 H              1 <1>                0.0000
     24 H24         -1.9145  -9.0466  11.0198 H              1 <1>                0.0000
@<TRIPOS>BOND
    1    1    2 ar    
    2    2    3 ar    
    3    2    4 1     
    4    4    5 1     
    5    4    7 1     
    6    4   16 1     
    7    5    6 1     
    8    5   17 1     
    9    5   18 1     
   10    6    7 1     
   11    6   19 1     
   12    6   20 1     
   13    7    8 1     
   14    7   21 1     
   15    8    9 ar    
   16    8   14 ar    
   17    9   10 ar    
   18    9   22 1     
   19   10   11 ar    
   20   10   23 1     
   21   11   12 1     
   22   11   13 ar    
   23   13   14 ar    
   24   13   24 1     
   25   14   15 1     
@<TRIPOS>SUBSTRUCTURE
      1 ****           1
@<TRIPOS>COMMENT
> <Gold.Version>
2022.2.0

> <Gold.Id.Protein>
3pbl|protein|mol2

> <Gold.Protein.RotatedTorsions>
[ 1303 1298 1297 1294 ] final  175.92 input  179.99 | X-H torsion
[ 2461 2456 2455 2452 ] final  -37.52 input   30.03 | X-H torsion
[ 2515 2510 2509 2506 ] final   98.28 input  -89.99 | X-H torsion
[ 3721 3712 3711 3710 ] final -129.10 input -179.91 | X-H torsion
[ 3841 3832 3831 3830 ] final  -48.00 input -179.91 | X-H torsion
[ 3767 3762 3761 3758 ] final  173.03 input  -89.99 | X-H torsion
[ 2472 2467 2466 2463 ] final  -81.96 input  -89.97 | X-H torsion

> <Gold.Protein.ActiveResidues>
 VAL82   VAL86   LEU89   PHE106  VAL107  ASP110  VAL111  MET112  CYS114  THR115 
 CYS181  SER182  ILE183  PHE188  VAL189  ILE190  SER192  SER193  SER196  TRP342 
 PHE345  PHE346  HIS349  VAL350  TYR365  THR369  GLY372  TYR373 

> <Gold.Protein.RotatedAtoms>
    4.8740   -8.9292    4.7152 H   0  0  0  0  0  0  0  0  0  0  0  0  # atno 1303 bound_to 1298
    0.5399   -8.3011    7.1683 H   0  0  0  0  0  0  0  0  0  0  0  0  # atno 2461 bound_to 2456
   -3.9402   -5.3063    9.2237 H   0  0  0  0  0  0  0  0  0  0  0  0  # atno 2472 bound_to 2467
    2.0321   -7.8416    5.9226 H   0  0  0  0  0  0  0  0  0  0  0  0  # atno 2515 bound_to 2510
   -3.2611  -16.5983   14.2887 H   0  0  0  0  0  0  0  0  0  0  0  0  # atno 3721 bound_to 3712
   -4.0365  -22.6189   11.5179 H   0  0  0  0  0  0  0  0  0  0  0  0  # atno 3767 bound_to 3762
    1.5708  -19.9290    9.1619 H   0  0  0  0  0  0  0  0  0  0  0  0  # atno 3841 bound_to 3832
    3.9529  -10.2721    4.5956 LP  0  0  0  0  0  0  0  0  0  0  0  0  # atno 4297 bound_to 1298
    3.5350   -8.9202    3.7806 LP  0  0  0  0  0  0  0  0  0  0  0  0  # atno 4298 bound_to 1298
    1.0941   -9.2870    8.3466 LP  0  0  0  0  0  0  0  0  0  0  0  0  # atno 4299 bound_to 2456
    2.1035   -8.2200    7.6331 LP  0  0  0  0  0  0  0  0  0  0  0  0  # atno 4300 bound_to 2456
    2.6770   -7.9006    4.4238 LP  0  0  0  0  0  0  0  0  0  0  0  0  # atno 4301 bound_to 2510
    2.5878   -9.2572    5.3285 LP  0  0  0  0  0  0  0  0  0  0  0  0  # atno 4302 bound_to 2510
   -3.1151  -17.4861   12.9589 LP  0  0  0  0  0  0  0  0  0  0  0  0  # atno 4306 bound_to 3712
   -2.6476  -18.0772   14.4076 LP  0  0  0  0  0  0  0  0  0  0  0  0  # atno 4307 bound_to 3712
    2.8229  -20.0268    8.1625 LP  0  0  0  0  0  0  0  0  0  0  0  0  # atno 4314 bound_to 3832
    2.5919  -21.1575    9.3178 LP  0  0  0  0  0  0  0  0  0  0  0  0  # atno 4315 bound_to 3832
   -4.6663  -23.2434   10.1467 LP  0  0  0  0  0  0  0  0  0  0  0  0  # atno 4318 bound_to 3762
   -5.4243  -22.0128   10.9067 LP  0  0  0  0  0  0  0  0  0  0  0  0  # atno 4319 bound_to 3762
   -5.4883   -5.2886    8.7044 LP  0  0  0  0  0  0  0  0  0  0  0  0  # atno 4320 bound_to 2467
   -4.2883   -4.7987    7.7112 LP  0  0  0  0  0  0  0  0  0  0  0  0  # atno 4321 bound_to 2467

> <Gold.Score>
     Score     S(PLP)   S(hbond)     S(cho)   S(metal)  DE(clash)   DE(tors)     intcor
     47.51     -47.95       0.00       0.00       0.00       0.00       0.69       0.93

> <Gold.PLP.Fitness>
47.5067

> <Gold.PLP.PLP>
-47.9547

> <Gold.PLP.part.hbond>
0.0000

> <Gold.PLP.part.metal>
0.0000

> <Gold.PLP.part.buried>
-2.4148

> <Gold.PLP.part.nonpolar>
-46.5787

> <Gold.PLP.part.repulsive>
0.2098

> <Gold.PLP.ligand.clash>
0.0000

> <Gold.PLP.ligand.torsion>
0.6872

> <Gold.PLP.Chemscore.Hbond>
0.0000

> <Gold.PLP.Chemscore.CHOScore>
0.0000

> <Gold.PLP.Chemscore.Metal>
0.0000

> <Gold.PLP.Chemscore.Internal.Correction>
0.9264

