#       Name:                EN300-222254_i002
#       Creating user name   fsindt
#       Creation time:       Tue Feb 28 07:47:11 2023


#       File generated by GOLD software.
#

@<TRIPOS>MOLECULE
EN300-222254_i002|acide_2|mol2|3756|dock12
    24    25     1
SMALL
USER_CHARGES


@<TRIPOS>ATOM
      1 O1          -3.9149 -10.7440   9.5973 O.co2          1 <1>               -1.0000
      2 C2          -2.7621 -10.3677   9.7236 C.2            1 <1>                0.0000
      3 O3          -2.4143  -9.2991   9.2505 O.co2          1 <1>                0.0000
      4 C4          -1.7687 -11.2204  10.4698 C.3            1 <1>                0.0000
      5 C5          -1.1715 -10.5303  11.7076 C.3            1 <1>                0.0000
      6 C6           0.1751 -11.1579  11.3106 C.3            1 <1>                0.0000
      7 C7          -0.3542 -11.1888   9.8671 C.3            1 <1>                0.0000
      8 C8           0.0106 -12.4439   9.1170 C.ar           1 <1>                0.0000
      9 C9          -0.1016 -13.6750   9.7343 C.ar           1 <1>                0.0000
     10 C10          0.2333 -14.8269   9.0472 C.ar           1 <1>                0.0000
     11 C11          0.6807 -14.7484   7.7404 C.ar           1 <1>                0.0000
     12 Cl12         1.1004 -16.1955   6.8783 Cl             1 <1>                0.0000
     13 C13          0.7931 -13.5168   7.1207 C.ar           1 <1>                0.0000
     14 C14          0.4529 -12.3639   7.8071 C.ar           1 <1>                0.0000
     15 F15          0.5618 -11.1605   7.2028 F              1 <1>                0.0000
     16 H16         -2.1383 -12.2267  10.6668 H              1 <1>                0.0000
     17 H17         -1.1805  -9.4420  11.6476 H              1 <1>                0.0000
     18 H18         -1.5673 -10.9065  12.6509 H              1 <1>                0.0000
     19 H19          1.0257 -10.4907  11.4496 H              1 <1>                0.0000
     20 H20          0.3381 -12.1477  11.7371 H              1 <1>                0.0000
     21 H21         -0.1398 -10.2805   9.3039 H              1 <1>                0.0000
     22 H22         -0.4508 -13.7373  10.7545 H              1 <1>                0.0000
     23 H23          0.1459 -15.7886   9.5308 H              1 <1>                0.0000
     24 H24          1.1424 -13.4551   6.1006 H              1 <1>                0.0000
@<TRIPOS>BOND
    1    1    2 ar    
    2    2    3 ar    
    3    2    4 1     
    4    4    5 1     
    5    4    7 1     
    6    4   16 1     
    7    5    6 1     
    8    5   17 1     
    9    5   18 1     
   10    6    7 1     
   11    6   19 1     
   12    6   20 1     
   13    7    8 1     
   14    7   21 1     
   15    8    9 ar    
   16    8   14 ar    
   17    9   10 ar    
   18    9   22 1     
   19   10   11 ar    
   20   10   23 1     
   21   11   12 1     
   22   11   13 ar    
   23   13   14 ar    
   24   13   24 1     
   25   14   15 1     
@<TRIPOS>SUBSTRUCTURE
      1 ****           1
@<TRIPOS>COMMENT
> <Gold.Version>
2022.2.0

> <Gold.Id.Protein>
3pbl|protein|mol2

> <Gold.Protein.RotatedTorsions>
[ 1303 1298 1297 1294 ] final  134.23 input  179.99 | X-H torsion
[ 2461 2456 2455 2452 ] final   52.16 input   30.03 | X-H torsion
[ 2515 2510 2509 2506 ] final  -75.58 input  -89.99 | X-H torsion
[ 3721 3712 3711 3710 ] final  143.30 input -179.91 | X-H torsion
[ 3841 3832 3831 3830 ] final  -30.14 input -179.91 | X-H torsion
[ 3767 3762 3761 3758 ] final  -18.92 input  -89.99 | X-H torsion
[ 2472 2467 2466 2463 ] final -177.28 input  -89.97 | X-H torsion

> <Gold.Protein.ActiveResidues>
 VAL82   VAL86   LEU89   PHE106  VAL107  ASP110  VAL111  MET112  CYS114  THR115 
 CYS181  SER182  ILE183  PHE188  VAL189  ILE190  SER192  SER193  SER196  TRP342 
 PHE345  PHE346  HIS349  VAL350  TYR365  THR369  GLY372  TYR373 

> <Gold.Protein.RotatedAtoms>
    4.8436   -9.5609    4.9392 H   0  0  0  0  0  0  0  0  0  0  0  0  # atno 1303 bound_to 1298
    1.8250   -7.9848    7.3009 H   0  0  0  0  0  0  0  0  0  0  0  0  # atno 2461 bound_to 2456
   -5.3207   -5.3971    9.0544 H   0  0  0  0  0  0  0  0  0  0  0  0  # atno 2472 bound_to 2467
    2.8358   -8.7380    4.4758 H   0  0  0  0  0  0  0  0  0  0  0  0  # atno 2515 bound_to 2510
   -3.1670  -16.9403   13.1432 H   0  0  0  0  0  0  0  0  0  0  0  0  # atno 3721 bound_to 3712
   -5.4573  -22.4832   10.3008 H   0  0  0  0  0  0  0  0  0  0  0  0  # atno 3767 bound_to 3762
    1.5707  -20.1292    9.3412 H   0  0  0  0  0  0  0  0  0  0  0  0  # atno 3841 bound_to 3832
    3.4811  -10.0411    4.1781 LP  0  0  0  0  0  0  0  0  0  0  0  0  # atno 4297 bound_to 1298
    4.0373   -8.5193    3.9741 LP  0  0  0  0  0  0  0  0  0  0  0  0  # atno 4298 bound_to 1298
    0.3425   -8.6534    7.4513 LP  0  0  0  0  0  0  0  0  0  0  0  0  # atno 4299 bound_to 2456
    1.5705   -9.1697    8.3958 LP  0  0  0  0  0  0  0  0  0  0  0  0  # atno 4300 bound_to 2456
    2.2231   -8.8504    5.9851 LP  0  0  0  0  0  0  0  0  0  0  0  0  # atno 4301 bound_to 2510
    2.2376   -7.4106    5.2147 LP  0  0  0  0  0  0  0  0  0  0  0  0  # atno 4302 bound_to 2510
   -2.6094  -18.2159   13.9430 LP  0  0  0  0  0  0  0  0  0  0  0  0  # atno 4306 bound_to 3712
   -3.2619  -16.9525   14.7459 LP  0  0  0  0  0  0  0  0  0  0  0  0  # atno 4307 bound_to 3712
    2.5927  -19.8402    8.1379 LP  0  0  0  0  0  0  0  0  0  0  0  0  # atno 4314 bound_to 3832
    2.8222  -21.1128    9.1352 LP  0  0  0  0  0  0  0  0  0  0  0  0  # atno 4315 bound_to 3832
   -4.5854  -22.0929   11.6253 LP  0  0  0  0  0  0  0  0  0  0  0  0  # atno 4318 bound_to 3762
   -4.0850  -23.2989   10.6447 LP  0  0  0  0  0  0  0  0  0  0  0  0  # atno 4319 bound_to 3762
   -4.6876   -4.8249    7.6622 LP  0  0  0  0  0  0  0  0  0  0  0  0  # atno 4320 bound_to 2467
   -3.7088   -5.1715    8.9226 LP  0  0  0  0  0  0  0  0  0  0  0  0  # atno 4321 bound_to 2467

> <Gold.Score>
     Score     S(PLP)   S(hbond)     S(cho)   S(metal)  DE(clash)   DE(tors)     intcor
     47.74     -47.97       0.00       0.00       0.00       0.00       0.58       0.93

> <Gold.PLP.Fitness>
47.7358

> <Gold.PLP.PLP>
-47.9715

> <Gold.PLP.part.hbond>
-1.0000

> <Gold.PLP.part.metal>
0.0000

> <Gold.PLP.part.buried>
-2.7186

> <Gold.PLP.part.nonpolar>
-45.3850

> <Gold.PLP.part.repulsive>
0.5002

> <Gold.PLP.ligand.clash>
0.0000

> <Gold.PLP.ligand.torsion>
0.5810

> <Gold.PLP.Chemscore.Hbond>
0.0000

> <Gold.PLP.Chemscore.CHOScore>
0.0000

> <Gold.PLP.Chemscore.Metal>
0.0000

> <Gold.PLP.Chemscore.Internal.Correction>
0.9264

