#       Name:                EN300-222254_i002
#       Creating user name   fsindt
#       Creation time:       Tue Feb 28 07:47:09 2023


#       File generated by GOLD software.
#

@<TRIPOS>MOLECULE
EN300-222254_i002|acide_2|mol2|3756|dock8
    24    25     1
SMALL
USER_CHARGES


@<TRIPOS>ATOM
      1 O1           0.6922 -11.0998   9.0514 O.co2          1 <1>               -1.0000
      2 C2           0.9631 -11.7784   8.0753 C.2            1 <1>                0.0000
      3 O3           1.0355 -11.2604   6.9739 O.co2          1 <1>                0.0000
      4 C4           1.2146 -13.2559   8.2311 C.3            1 <1>                0.0000
      5 C5           1.2587 -14.0176   6.8959 C.3            1 <1>                0.0000
      6 C6           0.4830 -15.1421   7.6018 C.3            1 <1>                0.0000
      7 C7          -0.0512 -14.0649   8.5604 C.3            1 <1>                0.0000
      8 C8          -0.1226 -14.5164   9.9964 C.ar           1 <1>                0.0000
      9 C9           0.2758 -15.7943  10.3394 C.ar           1 <1>                0.0000
     10 C10          0.2102 -16.2095  11.6564 C.ar           1 <1>                0.0000
     11 C11         -0.2538 -15.3459  12.6325 C.ar           1 <1>                0.0000
     12 Cl12        -0.3351 -15.8681  14.2862 Cl             1 <1>                0.0000
     13 C13         -0.6525 -14.0661  12.2909 C.ar           1 <1>                0.0000
     14 C14         -0.5820 -13.6487  10.9730 C.ar           1 <1>                0.0000
     15 F15         -0.9706 -12.3989  10.6382 F              1 <1>                0.0000
     16 H16          2.0572 -13.4751   8.8868 H              1 <1>                0.0000
     17 H17          0.6959 -13.5330   6.0980 H              1 <1>                0.0000
     18 H18          2.2646 -14.3059   6.5907 H              1 <1>                0.0000
     19 H19         -0.2894 -15.5960   6.9809 H              1 <1>                0.0000
     20 H20          1.1250 -15.8780   8.0860 H              1 <1>                0.0000
     21 H21         -0.9722 -13.5934   8.2176 H              1 <1>                0.0000
     22 H22          0.6381 -16.4693   9.5781 H              1 <1>                0.0000
     23 H23          0.5212 -17.2087  11.9235 H              1 <1>                0.0000
     24 H24         -1.0148 -13.3916  13.0526 H              1 <1>                0.0000
@<TRIPOS>BOND
    1    1    2 ar    
    2    2    3 ar    
    3    2    4 1     
    4    4    5 1     
    5    4    7 1     
    6    4   16 1     
    7    5    6 1     
    8    5   17 1     
    9    5   18 1     
   10    6    7 1     
   11    6   19 1     
   12    6   20 1     
   13    7    8 1     
   14    7   21 1     
   15    8    9 ar    
   16    8   14 ar    
   17    9   10 ar    
   18    9   22 1     
   19   10   11 ar    
   20   10   23 1     
   21   11   12 1     
   22   11   13 ar    
   23   13   14 ar    
   24   13   24 1     
   25   14   15 1     
@<TRIPOS>SUBSTRUCTURE
      1 ****           1
@<TRIPOS>COMMENT
> <Gold.Version>
2022.2.0

> <Gold.Id.Protein>
3pbl|protein|mol2

> <Gold.Protein.RotatedTorsions>
[ 1303 1298 1297 1294 ] final -106.82 input  179.99 | X-H torsion
[ 2461 2456 2455 2452 ] final -149.23 input   30.03 | X-H torsion
[ 2515 2510 2509 2506 ] final -109.89 input  -89.99 | X-H torsion
[ 3721 3712 3711 3710 ] final   35.03 input -179.91 | X-H torsion
[ 3841 3832 3831 3830 ] final -105.10 input -179.91 | X-H torsion
[ 3767 3762 3761 3758 ] final  117.88 input  -89.99 | X-H torsion
[ 2472 2467 2466 2463 ] final -106.47 input  -89.97 | X-H torsion

> <Gold.Protein.ActiveResidues>
 VAL82   VAL86   LEU89   PHE106  VAL107  ASP110  VAL111  MET112  CYS114  THR115 
 CYS181  SER182  ILE183  PHE188  VAL189  ILE190  SER192  SER193  SER196  TRP342 
 PHE345  PHE346  HIS349  VAL350  TYR365  THR369  GLY372  TYR373 

> <Gold.Protein.RotatedAtoms>
    4.0515   -8.5144    3.9827 H   0  0  0  0  0  0  0  0  0  0  0  0  # atno 1303 bound_to 1298
    0.9655   -9.2868    8.3016 H   0  0  0  0  0  0  0  0  0  0  0  0  # atno 2461 bound_to 2456
   -4.2847   -5.4079    9.4005 H   0  0  0  0  0  0  0  0  0  0  0  0  # atno 2472 bound_to 2467
    2.7609   -9.1359    4.8568 H   0  0  0  0  0  0  0  0  0  0  0  0  # atno 2515 bound_to 2510
   -2.4934  -18.0256   13.7256 H   0  0  0  0  0  0  0  0  0  0  0  0  # atno 3721 bound_to 3712
   -3.9655  -23.2046   10.8744 H   0  0  0  0  0  0  0  0  0  0  0  0  # atno 3767 bound_to 3762
    2.0283  -19.5808    8.5669 H   0  0  0  0  0  0  0  0  0  0  0  0  # atno 3841 bound_to 3832
    4.8380   -9.5772    4.9410 LP  0  0  0  0  0  0  0  0  0  0  0  0  # atno 4297 bound_to 1298
    3.4727  -10.0300    4.1680 LP  0  0  0  0  0  0  0  0  0  0  0  0  # atno 4298 bound_to 1298
    2.1407   -8.3060    7.7319 LP  0  0  0  0  0  0  0  0  0  0  0  0  # atno 4299 bound_to 2456
    0.6315   -8.2156    7.1148 LP  0  0  0  0  0  0  0  0  0  0  0  0  # atno 4300 bound_to 2456
    2.0648   -8.3283    6.0934 LP  0  0  0  0  0  0  0  0  0  0  0  0  # atno 4301 bound_to 2510
    2.4709   -7.5345    4.7253 LP  0  0  0  0  0  0  0  0  0  0  0  0  # atno 4302 bound_to 2510
   -3.1917  -17.0656   14.8066 LP  0  0  0  0  0  0  0  0  0  0  0  0  # atno 4306 bound_to 3712
   -3.4574  -16.8498   13.2099 LP  0  0  0  0  0  0  0  0  0  0  0  0  # atno 4307 bound_to 3712
    3.1208  -20.7549    8.6299 LP  0  0  0  0  0  0  0  0  0  0  0  0  # atno 4314 bound_to 3832
    1.7656  -20.8316    9.5377 LP  0  0  0  0  0  0  0  0  0  0  0  0  # atno 4315 bound_to 3832
   -5.3420  -22.6911   10.1614 LP  0  0  0  0  0  0  0  0  0  0  0  0  # atno 4318 bound_to 3762
   -4.8196  -21.9796   11.5353 LP  0  0  0  0  0  0  0  0  0  0  0  0  # atno 4319 bound_to 3762
   -5.4891   -5.1530    8.3278 LP  0  0  0  0  0  0  0  0  0  0  0  0  # atno 4320 bound_to 2467
   -3.9430   -4.8327    7.9110 LP  0  0  0  0  0  0  0  0  0  0  0  0  # atno 4321 bound_to 2467

> <Gold.Score>
     Score     S(PLP)   S(hbond)     S(cho)   S(metal)  DE(clash)   DE(tors)     intcor
     47.71     -44.89       1.00       0.00       0.00       0.00       0.55       0.93

> <Gold.PLP.Fitness>
47.7095

> <Gold.PLP.PLP>
-44.8859

> <Gold.PLP.part.hbond>
-2.0000

> <Gold.PLP.part.metal>
0.0000

> <Gold.PLP.part.buried>
-3.4248

> <Gold.PLP.part.nonpolar>
-40.3089

> <Gold.PLP.part.repulsive>
0.0302

> <Gold.PLP.ligand.clash>
0.0000

> <Gold.PLP.ligand.torsion>
0.5514

> <Gold.PLP.Chemscore.Hbond>
1.0000

> <Gold.PLP.Chemscore.CHOScore>
0.0000

> <Gold.PLP.Chemscore.Metal>
0.0000

> <Gold.Chemscore.Hbonds>
donor molecule, donor type, donor heavy atom, donor atom, acceptor molecule, acceptor atom, score
      P1  H  2456  2461       L1     1  1.00

> <Gold.PLP.Chemscore.Internal.Correction>
0.9264

