#       Name:                EN300-01000_i001
#       Creating user name   aseyller
#       Creation time:       Fri Apr 21 17:01:25 2023


#       File generated by GOLD software.
#

@<TRIPOS>MOLECULE
EN300-01000_i001|benzaldehydes|mol2|148|dock3
    28    29     1
SMALL
USER_CHARGES


@<TRIPOS>ATOM
      1 C1          29.0377  39.7552  36.2483 C.3            1 <1>                0.0000
      2 C2          30.0535  38.6429  36.2941 C.2            1 <1>                0.0000
      3 C3          31.1409  38.5486  35.5108 C.2            1 <1>                0.0000
      4 C4          31.8316  37.3136  35.9064 C.2            1 <1>                0.0000
      5 C5          33.0704  36.7759  35.3408 C.2            1 <1>                0.0000
      6 O6          33.5959  35.8047  35.8441 O.2            1 <1>                0.0000
      7 C7          31.0722  36.7630  36.9220 C.2            1 <1>                0.0000
      8 C8          31.3743  35.4831  37.6578 C.3            1 <1>                0.0000
      9 N9          30.0184  37.5723  37.1436 N.pl3          1 <1>                0.0000
     10 C10         29.0220  37.3442  38.1029 C.ar           1 <1>                0.0000
     11 C11         27.6866  37.5425  37.7791 C.ar           1 <1>                0.0000
     12 C12         26.7068  37.3171  38.7259 C.ar           1 <1>                0.0000
     13 C13         27.0552  36.8945  39.9968 C.ar           1 <1>                0.0000
     14 Cl14        25.8212  36.6120  41.1848 Cl             1 <1>                0.0000
     15 C15         28.3856  36.6960  40.3219 C.ar           1 <1>                0.0000
     16 C16         29.3685  36.9142  39.3767 C.ar           1 <1>                0.0000
     17 H17         28.2472  39.4963  35.5439 H              1 <1>                0.0000
     18 H18         28.6086  39.8964  37.2402 H              1 <1>                0.0000
     19 H19         29.5227  40.6771  35.9275 H              1 <1>                0.0000
     20 H20         31.4466  39.2430  34.7422 H              1 <1>                0.0000
     21 H21         33.5166  37.2435  34.4755 H              1 <1>                0.0000
     22 H22         31.9926  35.7018  38.5285 H              1 <1>                0.0000
     23 H23         30.4416  35.0211  37.9815 H              1 <1>                0.0000
     24 H24         31.9073  34.8005  36.9959 H              1 <1>                0.0000
     25 H25         27.4143  37.8731  36.7877 H              1 <1>                0.0000
     26 H26         25.6678  37.4713  38.4745 H              1 <1>                0.0000
     27 H27         28.6550  36.3662  41.3144 H              1 <1>                0.0000
     28 H28         30.4067  36.7591  39.6309 H              1 <1>                0.0000
@<TRIPOS>BOND
    1    1    2 1     
    2    1   17 1     
    3    1   18 1     
    4    1   19 1     
    5    2    3 2     
    6    2    9 1     
    7    3    4 1     
    8    3   20 1     
    9    4    5 1     
   10    4    7 2     
   11    5    6 2     
   12    5   21 1     
   13    7    8 1     
   14    7    9 1     
   15    8   22 1     
   16    8   23 1     
   17    8   24 1     
   18    9   10 1     
   19   10   11 ar    
   20   10   16 ar    
   21   11   12 ar    
   22   11   25 1     
   23   12   13 ar    
   24   12   26 1     
   25   13   14 1     
   26   13   15 ar    
   27   15   16 ar    
   28   15   27 1     
   29   16   28 1     
@<TRIPOS>SUBSTRUCTURE
      1 ****           1
@<TRIPOS>COMMENT
> <Gold.Version>
2022.2.0

> <Gold.Id.Protein>
1qkm|1qkm_protein|mol2

> <Gold.Protein.RotatedTorsions>
[  496  491  490  487 ] final -159.50 input  -89.99 | X-H torsion

> <Gold.Protein.ActiveResidues>
 MET295  LEU298  THR299  LEU301  ALA302  GLU305  TRP335  MET336  LEU339  MET340 
 GLY342  LEU343  ARG346  PHE356  ILE373  ILE376  PHE377  LEU380  LYS471  GLY472 
 MET473  HIS475  LEU476  LEU477  ASN478  MET479  VAL484  VAL487 

> <Gold.Protein.RotatedAtoms>
   37.2733   33.7711   40.7453 H   0  0  0  0  0  0  0  0  0  0  0  0  # atno 496  bound_to 491 

> <Gold.Score>
     Score     S(PLP)   S(hbond)     S(cho)   S(metal)  DE(clash)   DE(tors)     intcor
     54.85     -54.89       0.00       0.00       0.00       0.00       0.71       1.39

> <Gold.PLP.Fitness>
54.8488

> <Gold.PLP.PLP>
-54.8896

> <Gold.PLP.part.hbond>
0.0000

> <Gold.PLP.part.metal>
0.0000

> <Gold.PLP.part.buried>
-2.6827

> <Gold.PLP.part.nonpolar>
-53.1345

> <Gold.PLP.part.repulsive>
0.0627

> <Gold.PLP.ligand.clash>
0.0000

> <Gold.PLP.ligand.torsion>
0.7136

> <Gold.PLP.Chemscore.Hbond>
0.0000

> <Gold.PLP.Chemscore.CHOScore>
0.0000

> <Gold.PLP.Chemscore.Metal>
0.0000

> <Gold.PLP.Chemscore.Internal.Correction>
1.3865

