#       Name:                EN300-01000_i001
#       Creating user name   aseyller
#       Creation time:       Fri Apr 21 17:01:31 2023


#       File generated by GOLD software.
#

@<TRIPOS>MOLECULE
EN300-01000_i001|benzaldehydes|mol2|148|dock17
    28    29     1
SMALL
USER_CHARGES


@<TRIPOS>ATOM
      1 C1          29.2059  39.1570  37.3022 C.3            1 <1>                0.0000
      2 C2          29.9587  37.8708  37.5264 C.2            1 <1>                0.0000
      3 C3          31.0989  37.5182  36.9097 C.2            1 <1>                0.0000
      4 C4          31.4646  36.1966  37.4371 C.2            1 <1>                0.0000
      5 C5          32.6325  35.3930  37.0707 C.2            1 <1>                0.0000
      6 O6          32.6662  34.2113  37.3449 O.2            1 <1>                0.0000
      7 C7          30.4802  35.8669  38.3501 C.2            1 <1>                0.0000
      8 C8          30.4144  34.5978  39.1600 C.3            1 <1>                0.0000
      9 N9          29.5931  36.8797  38.3943 N.pl3          1 <1>                0.0000
     10 C10         28.4520  36.9091  39.2079 C.ar           1 <1>                0.0000
     11 C11         27.2198  37.2482  38.6655 C.ar           1 <1>                0.0000
     12 C12         26.0970  37.2765  39.4691 C.ar           1 <1>                0.0000
     13 C13         26.1995  36.9676  40.8142 C.ar           1 <1>                0.0000
     14 Cl14        24.7863  37.0041  41.8218 Cl             1 <1>                0.0000
     15 C15         27.4266  36.6292  41.3572 C.ar           1 <1>                0.0000
     16 C16         28.5511  36.5936  40.5563 C.ar           1 <1>                0.0000
     17 H17         28.4808  39.0184  36.5004 H              1 <1>                0.0000
     18 H18         28.6858  39.4378  38.2180 H              1 <1>                0.0000
     19 H19         29.9068  39.9448  37.0262 H              1 <1>                0.0000
     20 H20         31.6395  38.0926  36.1719 H              1 <1>                0.0000
     21 H21         33.4639  35.8518  36.5564 H              1 <1>                0.0000
     22 H22         30.9421  34.7408  40.1030 H              1 <1>                0.0000
     23 H23         29.3724  34.3486  39.3609 H              1 <1>                0.0000
     24 H24         30.8810  33.7860  38.6019 H              1 <1>                0.0000
     25 H25         27.1395  37.4901  37.6160 H              1 <1>                0.0000
     26 H26         25.1383  37.5402  39.0476 H              1 <1>                0.0000
     27 H27         27.5041  36.3886  42.4072 H              1 <1>                0.0000
     28 H28         29.5086  36.3294  40.9805 H              1 <1>                0.0000
@<TRIPOS>BOND
    1    1    2 1     
    2    1   17 1     
    3    1   18 1     
    4    1   19 1     
    5    2    3 2     
    6    2    9 1     
    7    3    4 1     
    8    3   20 1     
    9    4    5 1     
   10    4    7 2     
   11    5    6 2     
   12    5   21 1     
   13    7    8 1     
   14    7    9 1     
   15    8   22 1     
   16    8   23 1     
   17    8   24 1     
   18    9   10 1     
   19   10   11 ar    
   20   10   16 ar    
   21   11   12 ar    
   22   11   25 1     
   23   12   13 ar    
   24   12   26 1     
   25   13   14 1     
   26   13   15 ar    
   27   15   16 ar    
   28   15   27 1     
   29   16   28 1     
@<TRIPOS>SUBSTRUCTURE
      1 ****           1
@<TRIPOS>COMMENT
> <Gold.Version>
2022.2.0

> <Gold.Id.Protein>
1qkm|1qkm_protein|mol2

> <Gold.Protein.RotatedTorsions>
[  496  491  490  487 ] final  -65.36 input  -89.99 | X-H torsion

> <Gold.Protein.ActiveResidues>
 MET295  LEU298  THR299  LEU301  ALA302  GLU305  TRP335  MET336  LEU339  MET340 
 GLY342  LEU343  ARG346  PHE356  ILE373  ILE376  PHE377  LEU380  LYS471  GLY472 
 MET473  HIS475  LEU476  LEU477  ASN478  MET479  VAL484  VAL487 

> <Gold.Protein.RotatedAtoms>
   36.5396   34.7358   41.4076 H   0  0  0  0  0  0  0  0  0  0  0  0  # atno 496  bound_to 491 

> <Gold.Score>
     Score     S(PLP)   S(hbond)     S(cho)   S(metal)  DE(clash)   DE(tors)     intcor
     50.56     -50.97       0.00       0.00       0.00       0.00       0.89       1.39

> <Gold.PLP.Fitness>
50.5627

> <Gold.PLP.PLP>
-50.9657

> <Gold.PLP.part.hbond>
0.0000

> <Gold.PLP.part.metal>
0.0000

> <Gold.PLP.part.buried>
4.2652

> <Gold.PLP.part.nonpolar>
-55.4718

> <Gold.PLP.part.repulsive>
0.0041

> <Gold.PLP.ligand.clash>
0.0000

> <Gold.PLP.ligand.torsion>
0.8947

> <Gold.PLP.Chemscore.Hbond>
0.0000

> <Gold.PLP.Chemscore.CHOScore>
0.0000

> <Gold.PLP.Chemscore.Metal>
0.0000

> <Gold.PLP.Chemscore.Internal.Correction>
1.3865

