#       Name:                EN300-01000_i001
#       Creating user name   aseyller
#       Creation time:       Fri Apr 21 17:01:24 2023


#       File generated by GOLD software.
#

@<TRIPOS>MOLECULE
EN300-01000_i001|benzaldehydes|mol2|148|dock1
    28    29     1
SMALL
USER_CHARGES


@<TRIPOS>ATOM
      1 C1          31.3508  34.3693  38.8131 C.3            1 <1>                0.0000
      2 C2          31.3759  35.5411  37.8658 C.2            1 <1>                0.0000
      3 C3          32.3303  35.7834  36.9519 C.2            1 <1>                0.0000
      4 C4          31.9414  37.0221  36.2640 C.2            1 <1>                0.0000
      5 C5          32.6646  37.6952  35.1834 C.2            1 <1>                0.0000
      6 O6          32.0863  38.4849  34.4660 O.2            1 <1>                0.0000
      7 C7          30.7529  37.4220  36.8459 C.2            1 <1>                0.0000
      8 C8          29.9558  38.6466  36.4773 C.3            1 <1>                0.0000
      9 N9          30.4279  36.5237  37.7957 N.pl3          1 <1>                0.0000
     10 C10         29.2846  36.5919  38.6040 C.ar           1 <1>                0.0000
     11 C11         29.3796  36.3385  39.9657 C.ar           1 <1>                0.0000
     12 C12         28.2519  36.4063  40.7599 C.ar           1 <1>                0.0000
     13 C13         27.0276  36.7260  40.1994 C.ar           1 <1>                0.0000
     14 Cl14        25.6118  36.8103  41.2004 Cl             1 <1>                0.0000
     15 C15         26.9304  36.9790  38.8424 C.ar           1 <1>                0.0000
     16 C16         28.0564  36.9185  38.0451 C.ar           1 <1>                0.0000
     17 H17         31.8685  34.6359  39.7345 H              1 <1>                0.0000
     18 H18         30.3173  34.1074  39.0397 H              1 <1>                0.0000
     19 H19         31.8484  33.5172  38.3501 H              1 <1>                0.0000
     20 H20         33.2095  35.1860  36.7609 H              1 <1>                0.0000
     21 H21         33.7129  37.4891  35.0248 H              1 <1>                0.0000
     22 H22         29.2399  38.3925  35.6955 H              1 <1>                0.0000
     23 H23         29.4214  39.0102  37.3550 H              1 <1>                0.0000
     24 H24         30.6295  39.4230  36.1146 H              1 <1>                0.0000
     25 H25         30.3347  36.0882  40.4035 H              1 <1>                0.0000
     26 H26         28.3253  36.2092  41.8193 H              1 <1>                0.0000
     27 H27         25.9738  37.2283  38.4072 H              1 <1>                0.0000
     28 H28         27.9800  37.1161  36.9860 H              1 <1>                0.0000
@<TRIPOS>BOND
    1    1    2 1     
    2    1   17 1     
    3    1   18 1     
    4    1   19 1     
    5    2    3 2     
    6    2    9 1     
    7    3    4 1     
    8    3   20 1     
    9    4    5 1     
   10    4    7 2     
   11    5    6 2     
   12    5   21 1     
   13    7    8 1     
   14    7    9 1     
   15    8   22 1     
   16    8   23 1     
   17    8   24 1     
   18    9   10 1     
   19   10   11 ar    
   20   10   16 ar    
   21   11   12 ar    
   22   11   25 1     
   23   12   13 ar    
   24   12   26 1     
   25   13   14 1     
   26   13   15 ar    
   27   15   16 ar    
   28   15   27 1     
   29   16   28 1     
@<TRIPOS>SUBSTRUCTURE
      1 ****           1
@<TRIPOS>COMMENT
> <Gold.Version>
2022.2.0

> <Gold.Id.Protein>
1qkm|1qkm_protein|mol2

> <Gold.Protein.RotatedTorsions>
[  496  491  490  487 ] final   46.21 input  -89.99 | X-H torsion

> <Gold.Protein.ActiveResidues>
 MET295  LEU298  THR299  LEU301  ALA302  GLU305  TRP335  MET336  LEU339  MET340 
 GLY342  LEU343  ARG346  PHE356  ILE373  ILE376  PHE377  LEU380  LYS471  GLY472 
 MET473  HIS475  LEU476  LEU477  ASN478  MET479  VAL484  VAL487 

> <Gold.Protein.RotatedAtoms>
   36.4454   33.5090   42.3664 H   0  0  0  0  0  0  0  0  0  0  0  0  # atno 496  bound_to 491 

> <Gold.Score>
     Score     S(PLP)   S(hbond)     S(cho)   S(metal)  DE(clash)   DE(tors)     intcor
     57.53     -57.75       0.00       0.00       0.00       0.00       0.80       1.39

> <Gold.PLP.Fitness>
57.5331

> <Gold.PLP.PLP>
-57.7490

> <Gold.PLP.part.hbond>
0.0000

> <Gold.PLP.part.metal>
0.0000

> <Gold.PLP.part.buried>
-3.0837

> <Gold.PLP.part.nonpolar>
-55.4577

> <Gold.PLP.part.repulsive>
0.1094

> <Gold.PLP.ligand.clash>
0.0000

> <Gold.PLP.ligand.torsion>
0.8012

> <Gold.PLP.Chemscore.Hbond>
0.0000

> <Gold.PLP.Chemscore.CHOScore>
0.0000

> <Gold.PLP.Chemscore.Metal>
0.0000

> <Gold.PLP.Chemscore.Internal.Correction>
1.3865

