#       Name:                EN300-01000_i001
#       Creating user name   aseyller
#       Creation time:       Fri Apr 21 17:01:28 2023


#       File generated by GOLD software.
#

@<TRIPOS>MOLECULE
EN300-01000_i001|benzaldehydes|mol2|148|dock9
    28    29     1
SMALL
USER_CHARGES


@<TRIPOS>ATOM
      1 C1          30.2710  35.5291  39.7038 C.3            1 <1>                0.0000
      2 C2          28.9570  36.2368  39.4945 C.2            1 <1>                0.0000
      3 C3          27.8901  36.1543  40.3067 C.2            1 <1>                0.0000
      4 C4          26.8488  37.0030  39.7116 C.2            1 <1>                0.0000
      5 C5          25.5001  37.2388  40.2303 C.2            1 <1>                0.0000
      6 O6          25.2508  37.0154  41.3968 O.2            1 <1>                0.0000
      7 C7          27.4032  37.5333  38.5615 C.2            1 <1>                0.0000
      8 C8          26.7190  38.4722  37.6017 C.3            1 <1>                0.0000
      9 N9          28.6630  37.0696  38.4509 N.pl3          1 <1>                0.0000
     10 C10         29.5445  37.3884  37.4086 C.ar           1 <1>                0.0000
     11 C11         29.6412  38.6973  36.9556 C.ar           1 <1>                0.0000
     12 C12         30.5104  39.0090  35.9287 C.ar           1 <1>                0.0000
     13 C13         31.2842  38.0178  35.3507 C.ar           1 <1>                0.0000
     14 Cl14        32.3758  38.4128  34.0599 Cl             1 <1>                0.0000
     15 C15         31.1897  36.7125  35.8005 C.ar           1 <1>                0.0000
     16 C16         30.3265  36.3970  36.8314 C.ar           1 <1>                0.0000
     17 H17         30.2406  34.5548  39.2161 H              1 <1>                0.0000
     18 H18         31.0768  36.1250  39.2753 H              1 <1>                0.0000
     19 H19         30.4458  35.3958  40.7714 H              1 <1>                0.0000
     20 H20         27.8130  35.5780  41.2168 H              1 <1>                0.0000
     21 H21         24.7269  37.6118  39.5750 H              1 <1>                0.0000
     22 H22         26.9015  39.5022  37.9086 H              1 <1>                0.0000
     23 H23         27.1141  38.3170  36.5977 H              1 <1>                0.0000
     24 H24         25.6467  38.2769  37.6044 H              1 <1>                0.0000
     25 H25         29.0370  39.4710  37.4058 H              1 <1>                0.0000
     26 H26         30.5859  40.0270  35.5759 H              1 <1>                0.0000
     27 H27         31.7946  35.9407  35.3479 H              1 <1>                0.0000
     28 H28         30.2530  35.3782  37.1821 H              1 <1>                0.0000
@<TRIPOS>BOND
    1    1    2 1     
    2    1   17 1     
    3    1   18 1     
    4    1   19 1     
    5    2    3 2     
    6    2    9 1     
    7    3    4 1     
    8    3   20 1     
    9    4    5 1     
   10    4    7 2     
   11    5    6 2     
   12    5   21 1     
   13    7    8 1     
   14    7    9 1     
   15    8   22 1     
   16    8   23 1     
   17    8   24 1     
   18    9   10 1     
   19   10   11 ar    
   20   10   16 ar    
   21   11   12 ar    
   22   11   25 1     
   23   12   13 ar    
   24   12   26 1     
   25   13   14 1     
   26   13   15 ar    
   27   15   16 ar    
   28   15   27 1     
   29   16   28 1     
@<TRIPOS>SUBSTRUCTURE
      1 ****           1
@<TRIPOS>COMMENT
> <Gold.Version>
2022.2.0

> <Gold.Id.Protein>
1qkm|1qkm_protein|mol2

> <Gold.Protein.RotatedTorsions>
[  496  491  490  487 ] final  115.90 input  -89.99 | X-H torsion

> <Gold.Protein.ActiveResidues>
 MET295  LEU298  THR299  LEU301  ALA302  GLU305  TRP335  MET336  LEU339  MET340 
 GLY342  LEU343  ARG346  PHE356  ILE373  ILE376  PHE377  LEU380  LYS471  GLY472 
 MET473  HIS475  LEU476  LEU477  ASN478  MET479  VAL484  VAL487 

> <Gold.Protein.RotatedAtoms>
   37.0482   32.9397   41.6778 H   0  0  0  0  0  0  0  0  0  0  0  0  # atno 496  bound_to 491 

> <Gold.Score>
     Score     S(PLP)   S(hbond)     S(cho)   S(metal)  DE(clash)   DE(tors)     intcor
     50.44     -50.33       0.09       0.00       0.00       0.00       0.77       1.39

> <Gold.PLP.Fitness>
50.4368

> <Gold.PLP.PLP>
-50.3348

> <Gold.PLP.part.hbond>
-1.0000

> <Gold.PLP.part.metal>
0.0000

> <Gold.PLP.part.buried>
-0.2837

> <Gold.PLP.part.nonpolar>
-49.8358

> <Gold.PLP.part.repulsive>
0.2280

> <Gold.PLP.ligand.clash>
0.0000

> <Gold.PLP.ligand.torsion>
0.7740

> <Gold.PLP.Chemscore.Hbond>
0.0879

> <Gold.PLP.Chemscore.CHOScore>
0.0000

> <Gold.PLP.Chemscore.Metal>
0.0000

> <Gold.Chemscore.Hbonds>
donor molecule, donor type, donor heavy atom, donor atom, acceptor molecule, acceptor atom, score
      P1  H  1258  1270       L1     6  0.09

> <Gold.PLP.Chemscore.Internal.Correction>
1.3865

