#       Name:                EN300-01000_i001
#       Creating user name   aseyller
#       Creation time:       Fri Apr 21 17:01:29 2023


#       File generated by GOLD software.
#

@<TRIPOS>MOLECULE
EN300-01000_i001|benzaldehydes|mol2|148|dock12
    28    29     1
SMALL
USER_CHARGES


@<TRIPOS>ATOM
      1 C1          31.8304  33.4713  38.4866 C.3            1 <1>                0.0000
      2 C2          31.9264  34.7094  37.6327 C.2            1 <1>                0.0000
      3 C3          32.7954  34.8950  36.6251 C.2            1 <1>                0.0000
      4 C4          32.5251  36.2345  36.0853 C.2            1 <1>                0.0000
      5 C5          33.2143  36.8932  34.9740 C.2            1 <1>                0.0000
      6 O6          32.7023  37.8442  34.4207 O.2            1 <1>                0.0000
      7 C7          31.4867  36.7457  36.8415 C.2            1 <1>                0.0000
      8 C8          30.8503  38.1007  36.6684 C.3            1 <1>                0.0000
      9 N9          31.1389  35.8201  37.7562 N.pl3          1 <1>                0.0000
     10 C10         30.1200  35.9771  38.7061 C.ar           1 <1>                0.0000
     11 C11         29.1947  34.9618  38.9075 C.ar           1 <1>                0.0000
     12 C12         28.1918  35.1188  39.8439 C.ar           1 <1>                0.0000
     13 C13         28.1083  36.2872  40.5808 C.ar           1 <1>                0.0000
     14 Cl14        26.8465  36.4817  41.7571 Cl             1 <1>                0.0000
     15 C15         29.0295  37.3006  40.3819 C.ar           1 <1>                0.0000
     16 C16         30.0378  37.1458  39.4510 C.ar           1 <1>                0.0000
     17 H17         32.4852  33.5752  39.3518 H              1 <1>                0.0000
     18 H18         30.8019  33.3408  38.8229 H              1 <1>                0.0000
     19 H19         32.1348  32.6027  37.9027 H              1 <1>                0.0000
     20 H20         33.5446  34.1977  36.2804 H              1 <1>                0.0000
     21 H21         34.1784  36.5329  34.6468 H              1 <1>                0.0000
     22 H22         30.0189  38.0248  35.9674 H              1 <1>                0.0000
     23 H23         30.4824  38.4550  37.6313 H              1 <1>                0.0000
     24 H24         31.5891  38.8023  36.2811 H              1 <1>                0.0000
     25 H25         29.2590  34.0501  38.3322 H              1 <1>                0.0000
     26 H26         27.4718  34.3293  40.0010 H              1 <1>                0.0000
     27 H27         28.9623  38.2116  40.9581 H              1 <1>                0.0000
     28 H28         30.7566  37.9370  39.2961 H              1 <1>                0.0000
@<TRIPOS>BOND
    1    1    2 1     
    2    1   17 1     
    3    1   18 1     
    4    1   19 1     
    5    2    3 2     
    6    2    9 1     
    7    3    4 1     
    8    3   20 1     
    9    4    5 1     
   10    4    7 2     
   11    5    6 2     
   12    5   21 1     
   13    7    8 1     
   14    7    9 1     
   15    8   22 1     
   16    8   23 1     
   17    8   24 1     
   18    9   10 1     
   19   10   11 ar    
   20   10   16 ar    
   21   11   12 ar    
   22   11   25 1     
   23   12   13 ar    
   24   12   26 1     
   25   13   14 1     
   26   13   15 ar    
   27   15   16 ar    
   28   15   27 1     
   29   16   28 1     
@<TRIPOS>SUBSTRUCTURE
      1 ****           1
@<TRIPOS>COMMENT
> <Gold.Version>
2022.2.0

> <Gold.Id.Protein>
1qkm|1qkm_protein|mol2

> <Gold.Protein.RotatedTorsions>
[  496  491  490  487 ] final  -68.24 input  -89.99 | X-H torsion

> <Gold.Protein.ActiveResidues>
 MET295  LEU298  THR299  LEU301  ALA302  GLU305  TRP335  MET336  LEU339  MET340 
 GLY342  LEU343  ARG346  PHE356  ILE373  ILE376  PHE377  LEU380  LYS471  GLY472 
 MET473  HIS475  LEU476  LEU477  ASN478  MET479  VAL484  VAL487 

> <Gold.Protein.RotatedAtoms>
   36.5634   34.7346   41.3666 H   0  0  0  0  0  0  0  0  0  0  0  0  # atno 496  bound_to 491 

> <Gold.Score>
     Score     S(PLP)   S(hbond)     S(cho)   S(metal)  DE(clash)   DE(tors)     intcor
     50.75     -51.12       0.00       0.00       0.00       0.00       0.88       1.39

> <Gold.PLP.Fitness>
50.7538

> <Gold.PLP.PLP>
-51.1213

> <Gold.PLP.part.hbond>
0.0000

> <Gold.PLP.part.metal>
0.0000

> <Gold.PLP.part.buried>
-1.5289

> <Gold.PLP.part.nonpolar>
-50.1956

> <Gold.PLP.part.repulsive>
0.1610

> <Gold.PLP.ligand.clash>
0.0000

> <Gold.PLP.ligand.torsion>
0.8770

> <Gold.PLP.Chemscore.Hbond>
0.0000

> <Gold.PLP.Chemscore.CHOScore>
0.0000

> <Gold.PLP.Chemscore.Metal>
0.0000

> <Gold.PLP.Chemscore.Internal.Correction>
1.3865

