#       Name:                EN300-01000_i001
#       Creating user name   aseyller
#       Creation time:       Fri Apr 21 17:01:27 2023


#       File generated by GOLD software.
#

@<TRIPOS>MOLECULE
EN300-01000_i001|benzaldehydes|mol2|148|dock6
    28    29     1
SMALL
USER_CHARGES


@<TRIPOS>ATOM
      1 C1          31.5457  34.0433  38.9632 C.3            1 <1>                0.0000
      2 C2          31.7827  35.0141  37.8351 C.2            1 <1>                0.0000
      3 C3          32.8372  34.9985  37.0029 C.2            1 <1>                0.0000
      4 C4          32.6478  36.1192  36.0717 C.2            1 <1>                0.0000
      5 C5          33.5348  36.5153  34.9763 C.2            1 <1>                0.0000
      6 O6          33.2855  37.5062  34.3216 O.2            1 <1>                0.0000
      7 C7          31.4605  36.7231  36.4417 C.2            1 <1>                0.0000
      8 C8          30.8362  37.9250  35.7808 C.3            1 <1>                0.0000
      9 N9          30.9557  36.0473  37.4919 N.pl3          1 <1>                0.0000
     10 C10         29.7570  36.3641  38.1460 C.ar           1 <1>                0.0000
     11 C11         28.6301  36.7002  37.4081 C.ar           1 <1>                0.0000
     12 C12         27.4503  37.0119  38.0548 C.ar           1 <1>                0.0000
     13 C13         27.3909  36.9899  39.4372 C.ar           1 <1>                0.0000
     14 Cl14        25.9064  37.3822  40.2472 Cl             1 <1>                0.0000
     15 C15         28.5128  36.6551  40.1749 C.ar           1 <1>                0.0000
     16 C16         29.6932  36.3367  39.5326 C.ar           1 <1>                0.0000
     17 H17         32.0024  34.4278  39.8752 H              1 <1>                0.0000
     18 H18         30.4738  33.9204  39.1175 H              1 <1>                0.0000
     19 H19         31.9896  33.0799  38.7127 H              1 <1>                0.0000
     20 H20         33.6613  34.3006  37.0160 H              1 <1>                0.0000
     21 H21         34.4112  35.9257  34.7508 H              1 <1>                0.0000
     22 H22         30.1719  37.5960  34.9816 H              1 <1>                0.0000
     23 H23         30.2656  38.4896  36.5182 H              1 <1>                0.0000
     24 H24         31.6195  38.5585  35.3646 H              1 <1>                0.0000
     25 H25         28.6761  36.7182  36.3293 H              1 <1>                0.0000
     26 H26         26.5733  37.2734  37.4812 H              1 <1>                0.0000
     27 H27         28.4641  36.6387  41.2537 H              1 <1>                0.0000
     28 H28         30.5686  36.0754  40.1088 H              1 <1>                0.0000
@<TRIPOS>BOND
    1    1    2 1     
    2    1   17 1     
    3    1   18 1     
    4    1   19 1     
    5    2    3 2     
    6    2    9 1     
    7    3    4 1     
    8    3   20 1     
    9    4    5 1     
   10    4    7 2     
   11    5    6 2     
   12    5   21 1     
   13    7    8 1     
   14    7    9 1     
   15    8   22 1     
   16    8   23 1     
   17    8   24 1     
   18    9   10 1     
   19   10   11 ar    
   20   10   16 ar    
   21   11   12 ar    
   22   11   25 1     
   23   12   13 ar    
   24   12   26 1     
   25   13   14 1     
   26   13   15 ar    
   27   15   16 ar    
   28   15   27 1     
   29   16   28 1     
@<TRIPOS>SUBSTRUCTURE
      1 ****           1
@<TRIPOS>COMMENT
> <Gold.Version>
2022.2.0

> <Gold.Id.Protein>
1qkm|1qkm_protein|mol2

> <Gold.Protein.RotatedTorsions>
[  496  491  490  487 ] final   35.61 input  -89.99 | X-H torsion

> <Gold.Protein.ActiveResidues>
 MET295  LEU298  THR299  LEU301  ALA302  GLU305  TRP335  MET336  LEU339  MET340 
 GLY342  LEU343  ARG346  PHE356  ILE373  ILE376  PHE377  LEU380  LYS471  GLY472 
 MET473  HIS475  LEU476  LEU477  ASN478  MET479  VAL484  VAL487 

> <Gold.Protein.RotatedAtoms>
   36.3770   33.6684   42.3832 H   0  0  0  0  0  0  0  0  0  0  0  0  # atno 496  bound_to 491 

> <Gold.Score>
     Score     S(PLP)   S(hbond)     S(cho)   S(metal)  DE(clash)   DE(tors)     intcor
     52.72     -52.72       0.00       0.00       0.00       0.00       0.70       1.39

> <Gold.PLP.Fitness>
52.7174

> <Gold.PLP.PLP>
-52.7229

> <Gold.PLP.part.hbond>
0.0000

> <Gold.PLP.part.metal>
0.0000

> <Gold.PLP.part.buried>
-3.4640

> <Gold.PLP.part.nonpolar>
-52.4782

> <Gold.PLP.part.repulsive>
2.0878

> <Gold.PLP.ligand.clash>
0.0000

> <Gold.PLP.ligand.torsion>
0.6960

> <Gold.PLP.Chemscore.Hbond>
0.0000

> <Gold.PLP.Chemscore.CHOScore>
0.0000

> <Gold.PLP.Chemscore.Metal>
0.0000

> <Gold.PLP.Chemscore.Internal.Correction>
1.3865

