#       Name:                EN300-01000_i001
#       Creating user name   aseyller
#       Creation time:       Fri Apr 21 17:01:26 2023


#       File generated by GOLD software.
#

@<TRIPOS>MOLECULE
EN300-01000_i001|benzaldehydes|mol2|148|dock5
    28    29     1
SMALL
USER_CHARGES


@<TRIPOS>ATOM
      1 C1          30.8562  35.0314  38.7721 C.3            1 <1>                0.0000
      2 C2          30.6670  36.2368  37.8876 C.2            1 <1>                0.0000
      3 C3          31.5034  36.6245  36.9104 C.2            1 <1>                0.0000
      4 C4          30.9203  37.8380  36.3221 C.2            1 <1>                0.0000
      5 C5          31.4654  38.6339  35.2207 C.2            1 <1>                0.0000
      6 O6          32.3581  38.1854  34.5317 O.2            1 <1>                0.0000
      7 C7          29.7515  38.0746  37.0216 C.2            1 <1>                0.0000
      8 C8          28.7944  39.2142  36.7846 C.3            1 <1>                0.0000
      9 N9          29.6139  37.1064  37.9479 N.pl3          1 <1>                0.0000
     10 C10         28.5467  37.0095  38.8517 C.ar           1 <1>                0.0000
     11 C11         28.7903  36.7130  40.1860 C.ar           1 <1>                0.0000
     12 C12         27.7374  36.6181  41.0745 C.ar           1 <1>                0.0000
     13 C13         26.4401  36.8177  40.6358 C.ar           1 <1>                0.0000
     14 Cl14        25.1186  36.6977  41.7551 Cl             1 <1>                0.0000
     15 C15         26.1948  37.1135  39.3064 C.ar           1 <1>                0.0000
     16 C16         27.2450  37.2155  38.4153 C.ar           1 <1>                0.0000
     17 H17         31.4214  35.3169  39.6593 H              1 <1>                0.0000
     18 H18         29.8823  34.6437  39.0710 H              1 <1>                0.0000
     19 H19         31.4016  34.2618  38.2259 H              1 <1>                0.0000
     20 H20         32.4227  36.1402  36.6158 H              1 <1>                0.0000
     21 H21         31.0730  39.6201  35.0211 H              1 <1>                0.0000
     22 H22         28.0441  38.9126  36.0537 H              1 <1>                0.0000
     23 H23         28.3036  39.4774  37.7216 H              1 <1>                0.0000
     24 H24         29.3431  40.0771  36.4070 H              1 <1>                0.0000
     25 H25         29.8025  36.5563  40.5287 H              1 <1>                0.0000
     26 H26         27.9264  36.3874  42.1126 H              1 <1>                0.0000
     27 H27         25.1815  37.2689  38.9663 H              1 <1>                0.0000
     28 H28         27.0530  37.4464  37.3778 H              1 <1>                0.0000
@<TRIPOS>BOND
    1    1    2 1     
    2    1   17 1     
    3    1   18 1     
    4    1   19 1     
    5    2    3 2     
    6    2    9 1     
    7    3    4 1     
    8    3   20 1     
    9    4    5 1     
   10    4    7 2     
   11    5    6 2     
   12    5   21 1     
   13    7    8 1     
   14    7    9 1     
   15    8   22 1     
   16    8   23 1     
   17    8   24 1     
   18    9   10 1     
   19   10   11 ar    
   20   10   16 ar    
   21   11   12 ar    
   22   11   25 1     
   23   12   13 ar    
   24   12   26 1     
   25   13   14 1     
   26   13   15 ar    
   27   15   16 ar    
   28   15   27 1     
   29   16   28 1     
@<TRIPOS>SUBSTRUCTURE
      1 ****           1
@<TRIPOS>COMMENT
> <Gold.Version>
2022.2.0

> <Gold.Id.Protein>
1qkm|1qkm_protein|mol2

> <Gold.Protein.RotatedTorsions>
[  496  491  490  487 ] final -179.50 input  -89.99 | X-H torsion

> <Gold.Protein.ActiveResidues>
 MET295  LEU298  THR299  LEU301  ALA302  GLU305  TRP335  MET336  LEU339  MET340 
 GLY342  LEU343  ARG346  PHE356  ILE373  ILE376  PHE377  LEU380  LYS471  GLY472 
 MET473  HIS475  LEU476  LEU477  ASN478  MET479  VAL484  VAL487 

> <Gold.Protein.RotatedAtoms>
   37.3176   33.4688   40.8633 H   0  0  0  0  0  0  0  0  0  0  0  0  # atno 496  bound_to 491 

> <Gold.Score>
     Score     S(PLP)   S(hbond)     S(cho)   S(metal)  DE(clash)   DE(tors)     intcor
     53.51     -53.63       0.00       0.00       0.00       0.00       0.76       1.39

> <Gold.PLP.Fitness>
53.5075

> <Gold.PLP.PLP>
-53.6345

> <Gold.PLP.part.hbond>
0.0000

> <Gold.PLP.part.metal>
0.0000

> <Gold.PLP.part.buried>
1.3464

> <Gold.PLP.part.nonpolar>
-55.2351

> <Gold.PLP.part.repulsive>
0.1295

> <Gold.PLP.ligand.clash>
0.0000

> <Gold.PLP.ligand.torsion>
0.7567

> <Gold.PLP.Chemscore.Hbond>
0.0000

> <Gold.PLP.Chemscore.CHOScore>
0.0000

> <Gold.PLP.Chemscore.Metal>
0.0000

> <Gold.PLP.Chemscore.Internal.Correction>
1.3865

