#       Name:                EN300-01000_i001
#       Creating user name   aseyller
#       Creation time:       Fri Apr 21 17:01:25 2023


#       File generated by GOLD software.
#

@<TRIPOS>MOLECULE
EN300-01000_i001|benzaldehydes|mol2|148|dock2
    28    29     1
SMALL
USER_CHARGES


@<TRIPOS>ATOM
      1 C1          29.5556  39.2849  36.8907 C.3            1 <1>                0.0000
      2 C2          30.4311  38.0831  37.1364 C.2            1 <1>                0.0000
      3 C3          31.6101  37.8433  36.5387 C.2            1 <1>                0.0000
      4 C4          32.0996  36.5692  37.0824 C.2            1 <1>                0.0000
      5 C5          33.3479  35.8853  36.7393 C.2            1 <1>                0.0000
      6 O6          33.8833  36.0992  35.6715 O.2            1 <1>                0.0000
      7 C7          31.1401  36.1482  37.9843 C.2            1 <1>                0.0000
      8 C8          31.1910  34.8847  38.8041 C.3            1 <1>                0.0000
      9 N9          30.1547  37.0663  38.0075 N.pl3          1 <1>                0.0000
     10 C10         29.0046  36.9859  38.8048 C.ar           1 <1>                0.0000
     11 C11         29.1087  36.6223  40.1407 C.ar           1 <1>                0.0000
     12 C12         27.9742  36.5438  40.9243 C.ar           1 <1>                0.0000
     13 C13         26.7342  36.8267  40.3788 C.ar           1 <1>                0.0000
     14 Cl14        25.3099  36.7271  41.3663 Cl             1 <1>                0.0000
     15 C15         26.6279  37.1894  39.0476 C.ar           1 <1>                0.0000
     16 C16         27.7602  37.2753  38.2616 C.ar           1 <1>                0.0000
     17 H17         28.8600  39.0680  36.0800 H              1 <1>                0.0000
     18 H18         28.9962  39.5182  37.7967 H              1 <1>                0.0000
     19 H19         30.1772  40.1376  36.6178 H              1 <1>                0.0000
     20 H20         32.1007  38.4642  35.8036 H              1 <1>                0.0000
     21 H21         33.7925  35.1907  37.4366 H              1 <1>                0.0000
     22 H22         31.6875  35.0870  39.7531 H              1 <1>                0.0000
     23 H23         30.1767  34.5328  38.9926 H              1 <1>                0.0000
     24 H24         31.7454  34.1203  38.2595 H              1 <1>                0.0000
     25 H25         30.0761  36.4007  40.5666 H              1 <1>                0.0000
     26 H26         28.0547  36.2610  41.9635 H              1 <1>                0.0000
     27 H27         25.6591  37.4097  38.6241 H              1 <1>                0.0000
     28 H28         27.6767  37.5585  37.2226 H              1 <1>                0.0000
@<TRIPOS>BOND
    1    1    2 1     
    2    1   17 1     
    3    1   18 1     
    4    1   19 1     
    5    2    3 2     
    6    2    9 1     
    7    3    4 1     
    8    3   20 1     
    9    4    5 1     
   10    4    7 2     
   11    5    6 2     
   12    5   21 1     
   13    7    8 1     
   14    7    9 1     
   15    8   22 1     
   16    8   23 1     
   17    8   24 1     
   18    9   10 1     
   19   10   11 ar    
   20   10   16 ar    
   21   11   12 ar    
   22   11   25 1     
   23   12   13 ar    
   24   12   26 1     
   25   13   14 1     
   26   13   15 ar    
   27   15   16 ar    
   28   15   27 1     
   29   16   28 1     
@<TRIPOS>SUBSTRUCTURE
      1 ****           1
@<TRIPOS>COMMENT
> <Gold.Version>
2022.2.0

> <Gold.Id.Protein>
1qkm|1qkm_protein|mol2

> <Gold.Protein.RotatedTorsions>
[  496  491  490  487 ] final  111.42 input  -89.99 | X-H torsion

> <Gold.Protein.ActiveResidues>
 MET295  LEU298  THR299  LEU301  ALA302  GLU305  TRP335  MET336  LEU339  MET340 
 GLY342  LEU343  ARG346  PHE356  ILE373  ILE376  PHE377  LEU380  LYS471  GLY472 
 MET473  HIS475  LEU476  LEU477  ASN478  MET479  VAL484  VAL487 

> <Gold.Protein.RotatedAtoms>
   37.0113   32.9410   41.7417 H   0  0  0  0  0  0  0  0  0  0  0  0  # atno 496  bound_to 491 

> <Gold.Score>
     Score     S(PLP)   S(hbond)     S(cho)   S(metal)  DE(clash)   DE(tors)     intcor
     56.41     -56.74       0.00       0.00       0.00       0.00       0.86       1.39

> <Gold.PLP.Fitness>
56.4113

> <Gold.PLP.PLP>
-56.7448

> <Gold.PLP.part.hbond>
0.0000

> <Gold.PLP.part.metal>
0.0000

> <Gold.PLP.part.buried>
-0.7267

> <Gold.PLP.part.nonpolar>
-56.9517

> <Gold.PLP.part.repulsive>
0.0839

> <Gold.PLP.ligand.clash>
0.0000

> <Gold.PLP.ligand.torsion>
0.8600

> <Gold.PLP.Chemscore.Hbond>
0.0000

> <Gold.PLP.Chemscore.CHOScore>
0.0000

> <Gold.PLP.Chemscore.Metal>
0.0000

> <Gold.PLP.Chemscore.Internal.Correction>
1.3865

