#       Name:                EN300-01000_i001
#       Creating user name   aseyller
#       Creation time:       Fri Apr 21 17:01:24 2023


#       File generated by GOLD software.
#

@<TRIPOS>MOLECULE
EN300-01000_i001
    28    29     1
SMALL
USER_CHARGES


@<TRIPOS>ATOM
      1 C1           0.4865   2.7021  -0.3928 C.3            1 <1>                0.0000
      2 C2           1.1220   1.3499  -0.1958 C.2            1 <1>                0.0000
      3 C3           2.4430   1.1085  -0.1569 C.2            1 <1>                0.0000
      4 C4           2.5947  -0.3378   0.0528 C.2            1 <1>                0.0000
      5 C5           3.8482  -1.0861   0.1647 C.2            1 <1>                0.0000
      6 O6           4.9108  -0.5056   0.0835 O.2            1 <1>                0.0000
      7 C7           1.3115  -0.8475   0.1227 C.2            1 <1>                0.0000
      8 C8           0.9448  -2.2942   0.3313 C.3            1 <1>                0.0000
      9 N9           0.4459   0.1744  -0.0222 N.pl3          1 <1>                0.0000
     10 C10         -0.9502   0.0489  -0.0065 C.ar           1 <1>                0.0000
     11 C11         -1.6900   0.6392   1.0093 C.ar           1 <1>                0.0000
     12 C12         -3.0653   0.5142   1.0226 C.ar           1 <1>                0.0000
     13 C13         -3.7061  -0.1992   0.0248 C.ar           1 <1>                0.0000
     14 Cl14        -5.4350  -0.3546   0.0443 Cl             1 <1>                0.0000
     15 C15         -2.9709  -0.7884  -0.9888 C.ar           1 <1>                0.0000
     16 C16         -1.5959  -0.6610  -1.0098 C.ar           1 <1>                0.0000
     17 H17          0.3360   2.8811  -1.4574 H              1 <1>                0.0000
     18 H18         -0.4750   2.7298   0.1198 H              1 <1>                0.0000
     19 H19          1.1389   3.4733   0.0167 H              1 <1>                0.0000
     20 H20          3.2364   1.8340  -0.2598 H              1 <1>                0.0000
     21 H21          3.8273  -2.1547   0.3197 H              1 <1>                0.0000
     22 H22          0.8536  -2.4957   1.3987 H              1 <1>                0.0000
     23 H23         -0.0055  -2.5027  -0.1602 H              1 <1>                0.0000
     24 H24          1.7210  -2.9307  -0.0936 H              1 <1>                0.0000
     25 H25         -1.1903   1.1954   1.7886 H              1 <1>                0.0000
     26 H26         -3.6412   0.9732   1.8126 H              1 <1>                0.0000
     27 H27         -3.4732  -1.3447  -1.7664 H              1 <1>                0.0000
     28 H28         -1.0225  -1.1210  -1.8011 H              1 <1>                0.0000
@<TRIPOS>BOND
    1    1    2 1     
    2    1   17 1     
    3    1   18 1     
    4    1   19 1     
    5    2    3 2     
    6    2    9 1     
    7    3    4 1     
    8    3   20 1     
    9    4    5 1     
   10    4    7 2     
   11    5    6 2     
   12    5   21 1     
   13    7    8 1     
   14    7    9 1     
   15    8   22 1     
   16    8   23 1     
   17    8   24 1     
   18    9   10 1     
   19   10   11 ar    
   20   10   16 ar    
   21   11   12 ar    
   22   11   25 1     
   23   12   13 ar    
   24   12   26 1     
   25   13   14 1     
   26   13   15 ar    
   27   15   16 ar    
   28   15   27 1     
   29   16   28 1     
@<TRIPOS>SUBSTRUCTURE
      1 ****           1
