#       Name:                EN300-01000_i001
#       Creating user name   aseyller
#       Creation time:       Fri Apr 21 17:01:27 2023


#       File generated by GOLD software.
#

@<TRIPOS>MOLECULE
EN300-01000_i001|benzaldehydes|mol2|148|dock7
    28    29     1
SMALL
USER_CHARGES


@<TRIPOS>ATOM
      1 C1          27.6024  38.1521  36.8558 C.3            1 <1>                0.0000
      2 C2          27.3300  37.5470  38.2089 C.2            1 <1>                0.0000
      3 C3          26.1693  37.6311  38.8802 C.2            1 <1>                0.0000
      4 C4          26.3641  36.8994  40.1394 C.2            1 <1>                0.0000
      5 C5          25.3829  36.7079  41.2090 C.2            1 <1>                0.0000
      6 O6          25.4853  37.3312  42.2452 O.2            1 <1>                0.0000
      7 C7          27.6636  36.4288  40.1074 C.2            1 <1>                0.0000
      8 C8          28.3358  35.6140  41.1822 C.3            1 <1>                0.0000
      9 N9          28.2229  36.8201  38.9461 N.pl3          1 <1>                0.0000
     10 C10         29.5371  36.5308  38.5532 C.ar           1 <1>                0.0000
     11 C11         30.3298  37.5234  37.9929 C.ar           1 <1>                0.0000
     12 C12         31.6242  37.2360  37.6067 C.ar           1 <1>                0.0000
     13 C13         32.1311  35.9596  37.7773 C.ar           1 <1>                0.0000
     14 Cl14        33.7586  35.6014  37.2908 Cl             1 <1>                0.0000
     15 C15         31.3430  34.9686  38.3357 C.ar           1 <1>                0.0000
     16 C16         30.0500  35.2527  38.7291 C.ar           1 <1>                0.0000
     17 H17         27.9923  39.1621  36.9814 H              1 <1>                0.0000
     18 H18         28.3349  37.5430  36.3263 H              1 <1>                0.0000
     19 H19         26.6768  38.1887  36.2813 H              1 <1>                0.0000
     20 H20         25.2710  38.1367  38.5581 H              1 <1>                0.0000
     21 H21         24.5677  36.0121  41.0760 H              1 <1>                0.0000
     22 H22         28.1735  34.5535  40.9893 H              1 <1>                0.0000
     23 H23         29.4054  35.8238  41.1818 H              1 <1>                0.0000
     24 H24         27.9146  35.8753  42.1531 H              1 <1>                0.0000
     25 H25         29.9343  38.5194  37.8588 H              1 <1>                0.0000
     26 H26         32.2412  38.0078  37.1707 H              1 <1>                0.0000
     27 H27         31.7409  33.9733  38.4678 H              1 <1>                0.0000
     28 H28         29.4353  34.4790  39.1649 H              1 <1>                0.0000
@<TRIPOS>BOND
    1    1    2 1     
    2    1   17 1     
    3    1   18 1     
    4    1   19 1     
    5    2    3 2     
    6    2    9 1     
    7    3    4 1     
    8    3   20 1     
    9    4    5 1     
   10    4    7 2     
   11    5    6 2     
   12    5   21 1     
   13    7    8 1     
   14    7    9 1     
   15    8   22 1     
   16    8   23 1     
   17    8   24 1     
   18    9   10 1     
   19   10   11 ar    
   20   10   16 ar    
   21   11   12 ar    
   22   11   25 1     
   23   12   13 ar    
   24   12   26 1     
   25   13   14 1     
   26   13   15 ar    
   27   15   16 ar    
   28   15   27 1     
   29   16   28 1     
@<TRIPOS>SUBSTRUCTURE
      1 ****           1
@<TRIPOS>COMMENT
> <Gold.Version>
2022.2.0

> <Gold.Id.Protein>
1qkm|1qkm_protein|mol2

> <Gold.Protein.RotatedTorsions>
[  496  491  490  487 ] final  134.25 input  -89.99 | X-H torsion

> <Gold.Protein.ActiveResidues>
 MET295  LEU298  THR299  LEU301  ALA302  GLU305  TRP335  MET336  LEU339  MET340 
 GLY342  LEU343  ARG346  PHE356  ILE373  ILE376  PHE377  LEU380  LYS471  GLY472 
 MET473  HIS475  LEU476  LEU477  ASN478  MET479  VAL484  VAL487 

> <Gold.Protein.RotatedAtoms>
   37.1805   32.9910   41.4127 H   0  0  0  0  0  0  0  0  0  0  0  0  # atno 496  bound_to 491 

> <Gold.Score>
     Score     S(PLP)   S(hbond)     S(cho)   S(metal)  DE(clash)   DE(tors)     intcor
     55.04     -56.26       0.08       0.00       0.00       0.00       1.42       1.39

> <Gold.PLP.Fitness>
55.0404

> <Gold.PLP.PLP>
-56.2562

> <Gold.PLP.part.hbond>
-1.0000

> <Gold.PLP.part.metal>
0.0000

> <Gold.PLP.part.buried>
-3.6289

> <Gold.PLP.part.nonpolar>
-53.5028

> <Gold.PLP.part.repulsive>
0.2672

> <Gold.PLP.ligand.clash>
0.0000

> <Gold.PLP.ligand.torsion>
1.4228

> <Gold.PLP.Chemscore.Hbond>
0.0811

> <Gold.PLP.Chemscore.CHOScore>
0.0000

> <Gold.PLP.Chemscore.Metal>
0.0000

> <Gold.Chemscore.Hbonds>
donor molecule, donor type, donor heavy atom, donor atom, acceptor molecule, acceptor atom, score
      P1  H  1258  1270       L1     6  0.08

> <Gold.PLP.Chemscore.Internal.Correction>
1.3865

