#       Name:                EN300-01000_i001
#       Creating user name   aseyller
#       Creation time:       Fri Apr 21 17:01:32 2023


#       File generated by GOLD software.
#

@<TRIPOS>MOLECULE
EN300-01000_i001|benzaldehydes|mol2|148|dock18
    28    29     1
SMALL
USER_CHARGES


@<TRIPOS>ATOM
      1 C1          30.0638  39.3607  36.4173 C.3            1 <1>                0.0000
      2 C2          30.9808  38.1649  36.4389 C.2            1 <1>                0.0000
      3 C3          32.0884  38.0193  35.6927 C.2            1 <1>                0.0000
      4 C4          32.6568  36.7109  36.0444 C.2            1 <1>                0.0000
      5 C5          33.8692  36.0998  35.4963 C.2            1 <1>                0.0000
      6 O6          34.5066  36.6780  34.6406 O.2            1 <1>                0.0000
      7 C7          31.8124  36.1747  36.9987 C.2            1 <1>                0.0000
      8 C8          31.9760  34.8369  37.6729 C.3            1 <1>                0.0000
      9 N9          30.8212  37.0582  37.2256 N.pl3          1 <1>                0.0000
     10 C10         29.7701  36.8661  38.1329 C.ar           1 <1>                0.0000
     11 C11         28.4703  37.1931  37.7706 C.ar           1 <1>                0.0000
     12 C12         27.4364  37.0028  38.6662 C.ar           1 <1>                0.0000
     13 C13         27.6951  36.4872  39.9241 C.ar           1 <1>                0.0000
     14 Cl14        26.3934  36.2492  41.0477 Cl             1 <1>                0.0000
     15 C15         28.9898  36.1604  40.2875 C.ar           1 <1>                0.0000
     16 C16         30.0262  36.3431  39.3932 C.ar           1 <1>                0.0000
     17 H17         29.2847  39.2074  35.6706 H              1 <1>                0.0000
     18 H18         29.6068  39.4859  37.3988 H              1 <1>                0.0000
     19 H19         30.6368  40.2534  36.1667 H              1 <1>                0.0000
     20 H20         32.4827  38.7244  34.9759 H              1 <1>                0.0000
     21 H21         34.1965  35.1346  35.8535 H              1 <1>                0.0000
     22 H22         32.5734  34.9561  38.5769 H              1 <1>                0.0000
     23 H23         30.9954  34.4399  37.9353 H              1 <1>                0.0000
     24 H24         32.4776  34.1470  36.9943 H              1 <1>                0.0000
     25 H25         28.2680  37.5962  36.7893 H              1 <1>                0.0000
     26 H26         26.4251  37.2571  38.3848 H              1 <1>                0.0000
     27 H27         29.1893  35.7582  41.2698 H              1 <1>                0.0000
     28 H28         31.0365  36.0879  39.6773 H              1 <1>                0.0000
@<TRIPOS>BOND
    1    1    2 1     
    2    1   17 1     
    3    1   18 1     
    4    1   19 1     
    5    2    3 2     
    6    2    9 1     
    7    3    4 1     
    8    3   20 1     
    9    4    5 1     
   10    4    7 2     
   11    5    6 2     
   12    5   21 1     
   13    7    8 1     
   14    7    9 1     
   15    8   22 1     
   16    8   23 1     
   17    8   24 1     
   18    9   10 1     
   19   10   11 ar    
   20   10   16 ar    
   21   11   12 ar    
   22   11   25 1     
   23   12   13 ar    
   24   12   26 1     
   25   13   14 1     
   26   13   15 ar    
   27   15   16 ar    
   28   15   27 1     
   29   16   28 1     
@<TRIPOS>SUBSTRUCTURE
      1 ****           1
@<TRIPOS>COMMENT
> <Gold.Version>
2022.2.0

> <Gold.Id.Protein>
1qkm|1qkm_protein|mol2

> <Gold.Protein.RotatedTorsions>
[  496  491  490  487 ] final -133.19 input  -89.99 | X-H torsion

> <Gold.Protein.ActiveResidues>
 MET295  LEU298  THR299  LEU301  ALA302  GLU305  TRP335  MET336  LEU339  MET340 
 GLY342  LEU343  ARG346  PHE356  ILE373  ILE376  PHE377  LEU380  LYS471  GLY472 
 MET473  HIS475  LEU476  LEU477  ASN478  MET479  VAL484  VAL487 

> <Gold.Protein.RotatedAtoms>
   37.1280   34.1750   40.7389 H   0  0  0  0  0  0  0  0  0  0  0  0  # atno 496  bound_to 491 

> <Gold.Score>
     Score     S(PLP)   S(hbond)     S(cho)   S(metal)  DE(clash)   DE(tors)     intcor
     49.59     -49.62       0.00       0.00       0.00       0.00       0.71       1.39

> <Gold.PLP.Fitness>
49.5898

> <Gold.PLP.PLP>
-49.6167

> <Gold.PLP.part.hbond>
-0.1369

> <Gold.PLP.part.metal>
0.0000

> <Gold.PLP.part.buried>
-0.6651

> <Gold.PLP.part.nonpolar>
-51.7831

> <Gold.PLP.part.repulsive>
2.5096

> <Gold.PLP.ligand.clash>
0.0000

> <Gold.PLP.ligand.torsion>
0.7067

> <Gold.PLP.Chemscore.Hbond>
0.0000

> <Gold.PLP.Chemscore.CHOScore>
0.0000

> <Gold.PLP.Chemscore.Metal>
0.0000

> <Gold.PLP.Chemscore.Internal.Correction>
1.3865

