#       Name:                EN300-01000_i001
#       Creating user name   aseyller
#       Creation time:       Fri Apr 21 17:01:31 2023


#       File generated by GOLD software.
#

@<TRIPOS>MOLECULE
EN300-01000_i001|benzaldehydes|mol2|148|dock16
    28    29     1
SMALL
USER_CHARGES


@<TRIPOS>ATOM
      1 C1          28.1578  39.4078  36.8870 C.3            1 <1>                0.0000
      2 C2          29.4208  38.6533  36.5603 C.2            1 <1>                0.0000
      3 C3          30.2511  38.9293  35.5409 C.2            1 <1>                0.0000
      4 C4          31.3379  37.9431  35.6121 C.2            1 <1>                0.0000
      5 C5          32.4887  37.8324  34.7136 C.2            1 <1>                0.0000
      6 O6          33.3127  36.9587  34.8879 O.2            1 <1>                0.0000
      7 C7          31.0515  37.1411  36.7011 C.2            1 <1>                0.0000
      8 C8          31.8792  35.9786  37.1853 C.3            1 <1>                0.0000
      9 N9          29.9071  37.5828  37.2578 N.pl3          1 <1>                0.0000
     10 C10         29.2967  37.0190  38.3867 C.ar           1 <1>                0.0000
     11 C11         27.9902  36.5553  38.3120 C.ar           1 <1>                0.0000
     12 C12         27.3909  36.0001  39.4256 C.ar           1 <1>                0.0000
     13 C13         28.0914  35.9063  40.6154 C.ar           1 <1>                0.0000
     14 Cl14        27.3354  35.2080  42.0134 Cl             1 <1>                0.0000
     15 C15         29.3938  36.3677  40.6923 C.ar           1 <1>                0.0000
     16 C16         29.9995  36.9180  39.5798 C.ar           1 <1>                0.0000
     17 H17         27.3180  38.9562  36.3588 H              1 <1>                0.0000
     18 H18         27.9767  39.3653  37.9610 H              1 <1>                0.0000
     19 H19         28.2651  40.4474  36.5775 H              1 <1>                0.0000
     20 H20         30.1412  39.7195  34.8129 H              1 <1>                0.0000
     21 H21         32.6041  38.5280  33.8956 H              1 <1>                0.0000
     22 H22         32.6138  36.3319  37.9090 H              1 <1>                0.0000
     23 H23         31.2295  35.2416  37.6574 H              1 <1>                0.0000
     24 H24         32.3931  35.5213  36.3397 H              1 <1>                0.0000
     25 H25         27.4429  36.6289  37.3839 H              1 <1>                0.0000
     26 H26         26.3746  35.6393  39.3679 H              1 <1>                0.0000
     27 H27         29.9385  36.2935  41.6220 H              1 <1>                0.0000
     28 H28         31.0160  37.2780  39.6403 H              1 <1>                0.0000
@<TRIPOS>BOND
    1    1    2 1     
    2    1   17 1     
    3    1   18 1     
    4    1   19 1     
    5    2    3 2     
    6    2    9 1     
    7    3    4 1     
    8    3   20 1     
    9    4    5 1     
   10    4    7 2     
   11    5    6 2     
   12    5   21 1     
   13    7    8 1     
   14    7    9 1     
   15    8   22 1     
   16    8   23 1     
   17    8   24 1     
   18    9   10 1     
   19   10   11 ar    
   20   10   16 ar    
   21   11   12 ar    
   22   11   25 1     
   23   12   13 ar    
   24   12   26 1     
   25   13   14 1     
   26   13   15 ar    
   27   15   16 ar    
   28   15   27 1     
   29   16   28 1     
@<TRIPOS>SUBSTRUCTURE
      1 ****           1
@<TRIPOS>COMMENT
> <Gold.Version>
2022.2.0

> <Gold.Id.Protein>
1qkm|1qkm_protein|mol2

> <Gold.Protein.RotatedTorsions>
[  496  491  490  487 ] final  -45.78 input  -89.99 | X-H torsion

> <Gold.Protein.ActiveResidues>
 MET295  LEU298  THR299  LEU301  ALA302  GLU305  TRP335  MET336  LEU339  MET340 
 GLY342  LEU343  ARG346  PHE356  ILE373  ILE376  PHE377  LEU380  LYS471  GLY472 
 MET473  HIS475  LEU476  LEU477  ASN478  MET479  VAL484  VAL487 

> <Gold.Protein.RotatedAtoms>
   36.3972   34.6844   41.6904 H   0  0  0  0  0  0  0  0  0  0  0  0  # atno 496  bound_to 491 

> <Gold.Score>
     Score     S(PLP)   S(hbond)     S(cho)   S(metal)  DE(clash)   DE(tors)     intcor
     47.65     -48.38       0.00       0.00       0.00       0.00       1.06       1.39

> <Gold.PLP.Fitness>
47.6528

> <Gold.PLP.PLP>
-48.3826

> <Gold.PLP.part.hbond>
0.0000

> <Gold.PLP.part.metal>
0.0000

> <Gold.PLP.part.buried>
4.6456

> <Gold.PLP.part.nonpolar>
-53.2071

> <Gold.PLP.part.repulsive>
0.1555

> <Gold.PLP.ligand.clash>
0.0000

> <Gold.PLP.ligand.torsion>
1.0581

> <Gold.PLP.Chemscore.Hbond>
0.0000

> <Gold.PLP.Chemscore.CHOScore>
0.0000

> <Gold.PLP.Chemscore.Metal>
0.0000

> <Gold.PLP.Chemscore.Internal.Correction>
1.3865

