#       Name:                EN300-01000_i001
#       Creating user name   aseyller
#       Creation time:       Fri Apr 21 17:01:33 2023


#       File generated by GOLD software.
#

@<TRIPOS>MOLECULE
EN300-01000_i001|benzaldehydes|mol2|148|dock20
    28    29     1
SMALL
USER_CHARGES


@<TRIPOS>ATOM
      1 C1          27.2515  39.0372  36.9825 C.3            1 <1>                0.0000
      2 C2          27.2474  38.0352  38.1081 C.2            1 <1>                0.0000
      3 C3          26.2546  37.8671  38.9974 C.2            1 <1>                0.0000
      4 C4          26.6837  36.7901  39.9000 C.2            1 <1>                0.0000
      5 C5          25.9405  36.2436  41.0370 C.2            1 <1>                0.0000
      6 O6          24.9607  36.8237  41.4568 O.2            1 <1>                0.0000
      7 C7          27.9330  36.3984  39.4560 C.2            1 <1>                0.0000
      8 C8          28.7880  35.3161  40.0631 C.3            1 <1>                0.0000
      9 N9          28.2508  37.1483  38.3831 N.pl3          1 <1>                0.0000
     10 C10         29.4451  37.0407  37.6570 C.ar           1 <1>                0.0000
     11 C11         29.4217  37.0847  36.2695 C.ar           1 <1>                0.0000
     12 C12         30.5997  36.9786  35.5564 C.ar           1 <1>                0.0000
     13 C13         31.8027  36.8280  36.2237 C.ar           1 <1>                0.0000
     14 Cl14        33.2817  36.6948  35.3246 Cl             1 <1>                0.0000
     15 C15         31.8286  36.7840  37.6067 C.ar           1 <1>                0.0000
     16 C16         30.6539  36.8959  38.3243 C.ar           1 <1>                0.0000
     17 H17         27.6903  39.9724  37.3303 H              1 <1>                0.0000
     18 H18         27.8388  38.6474  36.1512 H              1 <1>                0.0000
     19 H19         26.2285  39.2166  36.6520 H              1 <1>                0.0000
     20 H20         25.3251  38.4155  39.0406 H              1 <1>                0.0000
     21 H21         26.2640  35.3241  41.5020 H              1 <1>                0.0000
     22 H22         28.5563  34.3618  39.5900 H              1 <1>                0.0000
     23 H23         29.8402  35.5534  39.9061 H              1 <1>                0.0000
     24 H24         28.5859  35.2503  41.1322 H              1 <1>                0.0000
     25 H25         28.4831  37.2014  35.7483 H              1 <1>                0.0000
     26 H26         30.5820  37.0127  34.4771 H              1 <1>                0.0000
     27 H27         32.7686  36.6664  38.1252 H              1 <1>                0.0000
     28 H28         30.6746  36.8615  39.4036 H              1 <1>                0.0000
@<TRIPOS>BOND
    1    1    2 1     
    2    1   17 1     
    3    1   18 1     
    4    1   19 1     
    5    2    3 2     
    6    2    9 1     
    7    3    4 1     
    8    3   20 1     
    9    4    5 1     
   10    4    7 2     
   11    5    6 2     
   12    5   21 1     
   13    7    8 1     
   14    7    9 1     
   15    8   22 1     
   16    8   23 1     
   17    8   24 1     
   18    9   10 1     
   19   10   11 ar    
   20   10   16 ar    
   21   11   12 ar    
   22   11   25 1     
   23   12   13 ar    
   24   12   26 1     
   25   13   14 1     
   26   13   15 ar    
   27   15   16 ar    
   28   15   27 1     
   29   16   28 1     
@<TRIPOS>SUBSTRUCTURE
      1 ****           1
@<TRIPOS>COMMENT
> <Gold.Version>
2022.2.0

> <Gold.Id.Protein>
1qkm|1qkm_protein|mol2

> <Gold.Protein.RotatedTorsions>
[  496  491  490  487 ] final  -64.99 input  -89.99 | X-H torsion

> <Gold.Protein.ActiveResidues>
 MET295  LEU298  THR299  LEU301  ALA302  GLU305  TRP335  MET336  LEU339  MET340 
 GLY342  LEU343  ARG346  PHE356  ILE373  ILE376  PHE377  LEU380  LYS471  GLY472 
 MET473  HIS475  LEU476  LEU477  ASN478  MET479  VAL484  VAL487 

> <Gold.Protein.RotatedAtoms>
   36.5366   34.7358   41.4129 H   0  0  0  0  0  0  0  0  0  0  0  0  # atno 496  bound_to 491 

> <Gold.Score>
     Score     S(PLP)   S(hbond)     S(cho)   S(metal)  DE(clash)   DE(tors)     intcor
     49.91     -48.69       0.43       0.00       0.00       0.00       0.73       1.38

> <Gold.PLP.Fitness>
49.9080

> <Gold.PLP.PLP>
-48.6908

> <Gold.PLP.part.hbond>
-1.0000

> <Gold.PLP.part.metal>
0.0000

> <Gold.PLP.part.buried>
-2.9720

> <Gold.PLP.part.nonpolar>
-45.9992

> <Gold.PLP.part.repulsive>
0.5049

> <Gold.PLP.ligand.clash>
0.0000

> <Gold.PLP.ligand.torsion>
0.7322

> <Gold.PLP.Chemscore.Hbond>
0.4332

> <Gold.PLP.Chemscore.CHOScore>
0.0000

> <Gold.PLP.Chemscore.Metal>
0.0000

> <Gold.Chemscore.Hbonds>
donor molecule, donor type, donor heavy atom, donor atom, acceptor molecule, acceptor atom, score
      P1  H  1258  1270       L1     6  0.43

> <Gold.PLP.Chemscore.Internal.Correction>
1.3820

