#       Name:                EN300-01000_i001
#       Creating user name   aseyller
#       Creation time:       Fri Apr 21 17:01:30 2023


#       File generated by GOLD software.
#

@<TRIPOS>MOLECULE
EN300-01000_i001|benzaldehydes|mol2|148|dock14
    28    29     1
SMALL
USER_CHARGES


@<TRIPOS>ATOM
      1 C1          30.5592  34.0436  39.3924 C.3            1 <1>                0.0000
      2 C2          30.7953  35.3253  38.6356 C.2            1 <1>                0.0000
      3 C3          31.8474  35.5766  37.8388 C.2            1 <1>                0.0000
      4 C4          31.6581  36.9375  37.3182 C.2            1 <1>                0.0000
      5 C5          32.5429  37.6635  36.4052 C.2            1 <1>                0.0000
      6 O6          32.0842  38.4918  35.6461 O.2            1 <1>                0.0000
      7 C7          30.4734  37.3920  37.8669 C.2            1 <1>                0.0000
      8 C8          29.8501  38.7434  37.6298 C.3            1 <1>                0.0000
      9 N9          29.9699  36.4151  38.6458 N.pl3          1 <1>                0.0000
     10 C10         28.7739  36.5064  39.3712 C.ar           1 <1>                0.0000
     11 C11         27.5641  36.6409  38.7034 C.ar           1 <1>                0.0000
     12 C12         26.3871  36.7306  39.4203 C.ar           1 <1>                0.0000
     13 C13         26.4129  36.6871  40.8032 C.ar           1 <1>                0.0000
     14 Cl14        24.9317  36.8002  41.7016 Cl             1 <1>                0.0000
     15 C15         27.6175  36.5530  41.4712 C.ar           1 <1>                0.0000
     16 C16         28.7965  36.4567  40.7585 C.ar           1 <1>                0.0000
     17 H17         31.0194  34.1137  40.3780 H              1 <1>                0.0000
     18 H18         29.4874  33.8791  39.5027 H              1 <1>                0.0000
     19 H19         31.0000  33.2113  38.8438 H              1 <1>                0.0000
     20 H20         32.6698  34.9104  37.6240 H              1 <1>                0.0000
     21 H21         33.6040  37.4622  36.4073 H              1 <1>                0.0000
     22 H22         29.1827  38.6899  36.7696 H              1 <1>                0.0000
     23 H23         29.2831  39.0418  38.5116 H              1 <1>                0.0000
     24 H24         30.6338  39.4761  37.4367 H              1 <1>                0.0000
     25 H25         27.5436  36.6757  37.6242 H              1 <1>                0.0000
     26 H26         25.4459  36.8353  38.9012 H              1 <1>                0.0000
     27 H27         27.6351  36.5193  42.5505 H              1 <1>                0.0000
     28 H28         29.7364  36.3520  41.2802 H              1 <1>                0.0000
@<TRIPOS>BOND
    1    1    2 1     
    2    1   17 1     
    3    1   18 1     
    4    1   19 1     
    5    2    3 2     
    6    2    9 1     
    7    3    4 1     
    8    3   20 1     
    9    4    5 1     
   10    4    7 2     
   11    5    6 2     
   12    5   21 1     
   13    7    8 1     
   14    7    9 1     
   15    8   22 1     
   16    8   23 1     
   17    8   24 1     
   18    9   10 1     
   19   10   11 ar    
   20   10   16 ar    
   21   11   12 ar    
   22   11   25 1     
   23   12   13 ar    
   24   12   26 1     
   25   13   14 1     
   26   13   15 ar    
   27   15   16 ar    
   28   15   27 1     
   29   16   28 1     
@<TRIPOS>SUBSTRUCTURE
      1 ****           1
@<TRIPOS>COMMENT
> <Gold.Version>
2022.2.0

> <Gold.Id.Protein>
1qkm|1qkm_protein|mol2

> <Gold.Protein.RotatedTorsions>
[  496  491  490  487 ] final   51.23 input  -89.99 | X-H torsion

> <Gold.Protein.ActiveResidues>
 MET295  LEU298  THR299  LEU301  ALA302  GLU305  TRP335  MET336  LEU339  MET340 
 GLY342  LEU343  ARG346  PHE356  ILE373  ILE376  PHE377  LEU380  LYS471  GLY472 
 MET473  HIS475  LEU476  LEU477  ASN478  MET479  VAL484  VAL487 

> <Gold.Protein.RotatedAtoms>
   36.4820   33.4372   42.3486 H   0  0  0  0  0  0  0  0  0  0  0  0  # atno 496  bound_to 491 

> <Gold.Score>
     Score     S(PLP)   S(hbond)     S(cho)   S(metal)  DE(clash)   DE(tors)     intcor
     50.48     -51.88       0.00       0.00       0.00       0.00       1.39       1.39

> <Gold.PLP.Fitness>
50.4807

> <Gold.PLP.PLP>
-51.8770

> <Gold.PLP.part.hbond>
0.0000

> <Gold.PLP.part.metal>
0.0000

> <Gold.PLP.part.buried>
3.0879

> <Gold.PLP.part.nonpolar>
-54.8070

> <Gold.PLP.part.repulsive>
0.0289

> <Gold.PLP.ligand.clash>
0.0000

> <Gold.PLP.ligand.torsion>
1.3914

> <Gold.PLP.Chemscore.Hbond>
0.0000

> <Gold.PLP.Chemscore.CHOScore>
0.0000

> <Gold.PLP.Chemscore.Metal>
0.0000

> <Gold.PLP.Chemscore.Internal.Correction>
1.3865

