#       Name:                EN300-01000_i001
#       Creating user name   aseyller
#       Creation time:       Fri Apr 21 17:01:28 2023


#       File generated by GOLD software.
#

@<TRIPOS>MOLECULE
EN300-01000_i001|benzaldehydes|mol2|148|dock10
    28    29     1
SMALL
USER_CHARGES


@<TRIPOS>ATOM
      1 C1          28.4483  39.4892  36.4925 C.3            1 <1>                0.0000
      2 C2          28.1169  38.3488  37.4203 C.2            1 <1>                0.0000
      3 C3          26.9836  38.2278  38.1316 C.2            1 <1>                0.0000
      4 C4          27.0985  36.9716  38.8850 C.2            1 <1>                0.0000
      5 C5          26.1129  36.4022  39.8059 C.2            1 <1>                0.0000
      6 O6          25.5018  37.1260  40.5644 O.2            1 <1>                0.0000
      7 C7          28.3280  36.4376  38.5466 C.2            1 <1>                0.0000
      8 C8          28.9039  35.1454  39.0657 C.3            1 <1>                0.0000
      9 N9          28.9191  37.2698  37.6677 N.pl3          1 <1>                0.0000
     10 C10         30.1819  37.0634  37.0951 C.ar           1 <1>                0.0000
     11 C11         31.2356  36.6129  37.8789 C.ar           1 <1>                0.0000
     12 C12         32.4787  36.4103  37.3125 C.ar           1 <1>                0.0000
     13 C13         32.6748  36.6563  35.9649 C.ar           1 <1>                0.0000
     14 Cl14        34.2386  36.4007  35.2558 Cl             1 <1>                0.0000
     15 C15         31.6260  37.1053  35.1815 C.ar           1 <1>                0.0000
     16 C16         30.3795  37.3035  35.7420 C.ar           1 <1>                0.0000
     17 H17         28.9639  40.2720  37.0487 H              1 <1>                0.0000
     18 H18         29.0922  39.1292  35.6901 H              1 <1>                0.0000
     19 H19         27.5284  39.8909  36.0676 H              1 <1>                0.0000
     20 H20         26.1527  38.9175  38.1468 H              1 <1>                0.0000
     21 H21         25.9295  35.3379  39.8102 H              1 <1>                0.0000
     22 H22         28.6071  34.3261  38.4107 H              1 <1>                0.0000
     23 H23         29.9914  35.2158  39.0893 H              1 <1>                0.0000
     24 H24         28.5299  34.9594  40.0725 H              1 <1>                0.0000
     25 H25         31.0832  36.4215  38.9308 H              1 <1>                0.0000
     26 H26         33.2987  36.0599  37.9219 H              1 <1>                0.0000
     27 H27         31.7815  37.2967  34.1300 H              1 <1>                0.0000
     28 H28         29.5613  37.6539  35.1302 H              1 <1>                0.0000
@<TRIPOS>BOND
    1    1    2 1     
    2    1   17 1     
    3    1   18 1     
    4    1   19 1     
    5    2    3 2     
    6    2    9 1     
    7    3    4 1     
    8    3   20 1     
    9    4    5 1     
   10    4    7 2     
   11    5    6 2     
   12    5   21 1     
   13    7    8 1     
   14    7    9 1     
   15    8   22 1     
   16    8   23 1     
   17    8   24 1     
   18    9   10 1     
   19   10   11 ar    
   20   10   16 ar    
   21   11   12 ar    
   22   11   25 1     
   23   12   13 ar    
   24   12   26 1     
   25   13   14 1     
   26   13   15 ar    
   27   15   16 ar    
   28   15   27 1     
   29   16   28 1     
@<TRIPOS>SUBSTRUCTURE
      1 ****           1
@<TRIPOS>COMMENT
> <Gold.Version>
2022.2.0

> <Gold.Id.Protein>
1qkm|1qkm_protein|mol2

> <Gold.Protein.RotatedTorsions>
[  496  491  490  487 ] final   82.19 input  -89.99 | X-H torsion

> <Gold.Protein.ActiveResidues>
 MET295  LEU298  THR299  LEU301  ALA302  GLU305  TRP335  MET336  LEU339  MET340 
 GLY342  LEU343  ARG346  PHE356  ILE373  ILE376  PHE377  LEU380  LYS471  GLY472 
 MET473  HIS475  LEU476  LEU477  ASN478  MET479  VAL484  VAL487 

> <Gold.Protein.RotatedAtoms>
   36.7480   33.0806   42.1129 H   0  0  0  0  0  0  0  0  0  0  0  0  # atno 496  bound_to 491 

> <Gold.Score>
     Score     S(PLP)   S(hbond)     S(cho)   S(metal)  DE(clash)   DE(tors)     intcor
     50.44     -51.09       0.00       0.00       0.00       0.01       1.01       1.39

> <Gold.PLP.Fitness>
50.4409

> <Gold.PLP.PLP>
-51.0860

> <Gold.PLP.part.hbond>
0.0000

> <Gold.PLP.part.metal>
0.0000

> <Gold.PLP.part.buried>
-3.2399

> <Gold.PLP.part.nonpolar>
-47.6707

> <Gold.PLP.part.repulsive>
0.1334

> <Gold.PLP.ligand.clash>
0.0071

> <Gold.PLP.ligand.torsion>
1.0123

> <Gold.PLP.Chemscore.Hbond>
0.0000

> <Gold.PLP.Chemscore.CHOScore>
0.0000

> <Gold.PLP.Chemscore.Metal>
0.0000

> <Gold.PLP.Chemscore.Internal.Correction>
1.3865

