#       Name:                EN300-01000_i001
#       Creating user name   aseyller
#       Creation time:       Fri Apr 21 17:01:26 2023


#       File generated by GOLD software.
#

@<TRIPOS>MOLECULE
EN300-01000_i001|benzaldehydes|mol2|148|dock4
    28    29     1
SMALL
USER_CHARGES


@<TRIPOS>ATOM
      1 C1          31.0056  33.4894  39.3811 C.3            1 <1>                0.0000
      2 C2          31.3420  34.6468  38.4764 C.2            1 <1>                0.0000
      3 C3          32.3854  34.6972  37.6317 C.2            1 <1>                0.0000
      4 C4          32.3149  36.0033  36.9623 C.2            1 <1>                0.0000
      5 C5          33.2354  36.5271  35.9514 C.2            1 <1>                0.0000
      6 O6          32.9306  37.5060  35.3021 O.2            1 <1>                0.0000
      7 C7          31.2015  36.6364  37.4826 C.2            1 <1>                0.0000
      8 C8          30.7085  38.0098  37.1061 C.3            1 <1>                0.0000
      9 N9          30.6305  35.8102  38.3803 N.pl3          1 <1>                0.0000
     10 C10         29.4756  36.1054  39.1182 C.ar           1 <1>                0.0000
     11 C11         29.4947  36.0186  40.5037 C.ar           1 <1>                0.0000
     12 C12         28.3557  36.3098  41.2284 C.ar           1 <1>                0.0000
     13 C13         27.1959  36.6875  40.5747 C.ar           1 <1>                0.0000
     14 Cl14        25.7659  37.0530  41.4885 Cl             1 <1>                0.0000
     15 C15         27.1745  36.7749  39.1938 C.ar           1 <1>                0.0000
     16 C16         28.3127  36.4905  38.4650 C.ar           1 <1>                0.0000
     17 H17         31.5047  33.6217  40.3410 H              1 <1>                0.0000
     18 H18         29.9272  33.4499  39.5347 H              1 <1>                0.0000
     19 H19         31.3415  32.5598  38.9219 H              1 <1>                0.0000
     20 H20         33.1291  33.9297  37.4758 H              1 <1>                0.0000
     21 H21         34.1859  36.0425  35.7835 H              1 <1>                0.0000
     22 H22         30.0094  37.9293  36.2736 H              1 <1>                0.0000
     23 H23         30.2053  38.4622  37.9606 H              1 <1>                0.0000
     24 H24         31.5542  38.6313  36.8116 H              1 <1>                0.0000
     25 H25         30.3993  35.7231  41.0143 H              1 <1>                0.0000
     26 H26         28.3701  36.2424  42.3063 H              1 <1>                0.0000
     27 H27         26.2682  37.0698  38.6858 H              1 <1>                0.0000
     28 H28         28.2955  36.5589  37.3873 H              1 <1>                0.0000
@<TRIPOS>BOND
    1    1    2 1     
    2    1   17 1     
    3    1   18 1     
    4    1   19 1     
    5    2    3 2     
    6    2    9 1     
    7    3    4 1     
    8    3   20 1     
    9    4    5 1     
   10    4    7 2     
   11    5    6 2     
   12    5   21 1     
   13    7    8 1     
   14    7    9 1     
   15    8   22 1     
   16    8   23 1     
   17    8   24 1     
   18    9   10 1     
   19   10   11 ar    
   20   10   16 ar    
   21   11   12 ar    
   22   11   25 1     
   23   12   13 ar    
   24   12   26 1     
   25   13   14 1     
   26   13   15 ar    
   27   15   16 ar    
   28   15   27 1     
   29   16   28 1     
@<TRIPOS>SUBSTRUCTURE
      1 ****           1
@<TRIPOS>COMMENT
> <Gold.Version>
2022.2.0

> <Gold.Id.Protein>
1qkm|1qkm_protein|mol2

> <Gold.Protein.RotatedTorsions>
[  496  491  490  487 ] final   23.29 input  -89.99 | X-H torsion

> <Gold.Protein.ActiveResidues>
 MET295  LEU298  THR299  LEU301  ALA302  GLU305  TRP335  MET336  LEU339  MET340 
 GLY342  LEU343  ARG346  PHE356  ILE373  ILE376  PHE377  LEU380  LYS471  GLY472 
 MET473  HIS475  LEU476  LEU477  ASN478  MET479  VAL484  VAL487 

> <Gold.Protein.RotatedAtoms>
   36.3153   33.8605   42.3671 H   0  0  0  0  0  0  0  0  0  0  0  0  # atno 496  bound_to 491 

> <Gold.Score>
     Score     S(PLP)   S(hbond)     S(cho)   S(metal)  DE(clash)   DE(tors)     intcor
     54.88     -55.55       0.00       0.00       0.00       0.00       1.03       1.39

> <Gold.PLP.Fitness>
54.8797

> <Gold.PLP.PLP>
-55.5475

> <Gold.PLP.part.hbond>
0.0000

> <Gold.PLP.part.metal>
0.0000

> <Gold.PLP.part.buried>
-0.5347

> <Gold.PLP.part.nonpolar>
-54.8273

> <Gold.PLP.part.repulsive>
0.1096

> <Gold.PLP.ligand.clash>
0.0000

> <Gold.PLP.ligand.torsion>
1.0272

> <Gold.PLP.Chemscore.Hbond>
0.0000

> <Gold.PLP.Chemscore.CHOScore>
0.0000

> <Gold.PLP.Chemscore.Metal>
0.0000

> <Gold.PLP.Chemscore.Internal.Correction>
1.3865

