#       Name:                EN300-01000_i001
#       Creating user name   aseyller
#       Creation time:       Fri Apr 21 17:01:30 2023


#       File generated by GOLD software.
#

@<TRIPOS>MOLECULE
EN300-01000_i001|benzaldehydes|mol2|148|dock13
    28    29     1
SMALL
USER_CHARGES


@<TRIPOS>ATOM
      1 C1          26.6039  38.5483  37.2209 C.3            1 <1>                0.0000
      2 C2          26.7723  37.7792  38.5060 C.2            1 <1>                0.0000
      3 C3          25.8136  37.5802  39.4258 C.2            1 <1>                0.0000
      4 C4          26.4259  36.7840  40.4981 C.2            1 <1>                0.0000
      5 C5          25.7806  36.3123  41.7248 C.2            1 <1>                0.0000
      6 O6          24.6857  36.7336  42.0351 O.2            1 <1>                0.0000
      7 C7          27.7362  36.5716  40.1117 C.2            1 <1>                0.0000
      8 C8          28.7731  35.8012  40.8877 C.3            1 <1>                0.0000
      9 N9          27.9234  37.1678  38.9184 N.pl3          1 <1>                0.0000
     10 C10         29.1301  37.1689  38.2050 C.ar           1 <1>                0.0000
     11 C11         29.5775  38.3344  37.5974 C.ar           1 <1>                0.0000
     12 C12         30.7667  38.3330  36.8951 C.ar           1 <1>                0.0000
     13 C13         31.5120  37.1712  36.7963 C.ar           1 <1>                0.0000
     14 Cl14        33.0063  37.1727  35.9129 Cl             1 <1>                0.0000
     15 C15         31.0682  36.0083  37.4012 C.ar           1 <1>                0.0000
     16 C16         29.8827  36.0062  38.1097 C.ar           1 <1>                0.0000
     17 H17         26.8452  39.5975  37.3913 H              1 <1>                0.0000
     18 H18         27.2724  38.1401  36.4630 H              1 <1>                0.0000
     19 H19         25.5723  38.4635  36.8793 H              1 <1>                0.0000
     20 H20         24.7945  37.9356  39.3852 H              1 <1>                0.0000
     21 H21         26.2789  35.5893  42.3536 H              1 <1>                0.0000
     22 H22         28.7411  34.7518  40.5945 H              1 <1>                0.0000
     23 H23         29.7620  36.2077  40.6755 H              1 <1>                0.0000
     24 H24         28.5664  35.8868  41.9546 H              1 <1>                0.0000
     25 H25         28.9959  39.2411  37.6736 H              1 <1>                0.0000
     26 H26         31.1151  39.2394  36.4223 H              1 <1>                0.0000
     27 H27         31.6515  35.1028  37.3227 H              1 <1>                0.0000
     28 H28         29.5368  35.0983  38.5816 H              1 <1>                0.0000
@<TRIPOS>BOND
    1    1    2 1     
    2    1   17 1     
    3    1   18 1     
    4    1   19 1     
    5    2    3 2     
    6    2    9 1     
    7    3    4 1     
    8    3   20 1     
    9    4    5 1     
   10    4    7 2     
   11    5    6 2     
   12    5   21 1     
   13    7    8 1     
   14    7    9 1     
   15    8   22 1     
   16    8   23 1     
   17    8   24 1     
   18    9   10 1     
   19   10   11 ar    
   20   10   16 ar    
   21   11   12 ar    
   22   11   25 1     
   23   12   13 ar    
   24   12   26 1     
   25   13   14 1     
   26   13   15 ar    
   27   15   16 ar    
   28   15   27 1     
   29   16   28 1     
@<TRIPOS>SUBSTRUCTURE
      1 ****           1
@<TRIPOS>COMMENT
> <Gold.Version>
2022.2.0

> <Gold.Id.Protein>
1qkm|1qkm_protein|mol2

> <Gold.Protein.RotatedTorsions>
[  496  491  490  487 ] final  178.11 input  -89.99 | X-H torsion

> <Gold.Protein.ActiveResidues>
 MET295  LEU298  THR299  LEU301  ALA302  GLU305  TRP335  MET336  LEU339  MET340 
 GLY342  LEU343  ARG346  PHE356  ILE373  ILE376  PHE377  LEU380  LYS471  GLY472 
 MET473  HIS475  LEU476  LEU477  ASN478  MET479  VAL484  VAL487 

> <Gold.Protein.RotatedAtoms>
   37.3186   33.4350   40.8833 H   0  0  0  0  0  0  0  0  0  0  0  0  # atno 496  bound_to 491 

> <Gold.Score>
     Score     S(PLP)   S(hbond)     S(cho)   S(metal)  DE(clash)   DE(tors)     intcor
     49.82     -48.10       0.61       0.00       0.00       0.05       0.72       1.39

> <Gold.PLP.Fitness>
49.8232

> <Gold.PLP.PLP>
-48.0989

> <Gold.PLP.part.hbond>
-0.2619

> <Gold.PLP.part.metal>
0.0000

> <Gold.PLP.part.buried>
0.0294

> <Gold.PLP.part.nonpolar>
-49.1972

> <Gold.PLP.part.repulsive>
0.5123

> <Gold.PLP.ligand.clash>
0.0511

> <Gold.PLP.ligand.torsion>
0.7175

> <Gold.PLP.Chemscore.Hbond>
0.6080

> <Gold.PLP.Chemscore.CHOScore>
0.0000

> <Gold.PLP.Chemscore.Metal>
0.0000

> <Gold.Chemscore.Hbonds>
donor molecule, donor type, donor heavy atom, donor atom, acceptor molecule, acceptor atom, score
      P1  H  1258  1270       L1     6  0.61

> <Gold.PLP.Chemscore.Internal.Correction>
1.3865

