#       Name:                EN300-01000_i001
#       Creating user name   aseyller
#       Creation time:       Fri Apr 21 17:01:27 2023


#       File generated by GOLD software.
#

@<TRIPOS>MOLECULE
EN300-01000_i001|benzaldehydes|mol2|148|dock8
    28    29     1
SMALL
USER_CHARGES


@<TRIPOS>ATOM
      1 C1          29.1003  40.2615  36.5245 C.3            1 <1>                0.0000
      2 C2          30.1229  39.2255  36.1344 C.2            1 <1>                0.0000
      3 C3          31.0789  39.3864  35.2044 C.2            1 <1>                0.0000
      4 C4          31.8349  38.1272  35.1639 C.2            1 <1>                0.0000
      5 C5          32.9784  37.8122  34.3055 C.2            1 <1>                0.0000
      6 O6          33.4691  36.7026  34.3314 O.2            1 <1>                0.0000
      7 C7          31.2452  37.3006  36.1021 C.2            1 <1>                0.0000
      8 C8          31.6696  35.8926  36.4314 C.3            1 <1>                0.0000
      9 N9          30.2292  37.9743  36.6751 N.pl3          1 <1>                0.0000
     10 C10         29.3934  37.4618  37.6770 C.ar           1 <1>                0.0000
     11 C11         28.0180  37.6296  37.5885 C.ar           1 <1>                0.0000
     12 C12         27.1967  37.1238  38.5768 C.ar           1 <1>                0.0000
     13 C13         27.7436  36.4505  39.6551 C.ar           1 <1>                0.0000
     14 Cl14        26.7085  35.8158  40.8959 Cl             1 <1>                0.0000
     15 C15         29.1141  36.2818  39.7456 C.ar           1 <1>                0.0000
     16 C16         29.9391  36.7805  38.7566 C.ar           1 <1>                0.0000
     17 H17         28.2143  40.1507  35.8993 H              1 <1>                0.0000
     18 H18         28.8262  40.1256  37.5706 H              1 <1>                0.0000
     19 H19         29.5209  41.2574  36.3855 H              1 <1>                0.0000
     20 H20         31.2563  40.2670  34.6048 H              1 <1>                0.0000
     21 H21         33.3852  38.5672  33.6491 H              1 <1>                0.0000
     22 H22         32.4113  35.9139  37.2300 H              1 <1>                0.0000
     23 H23         30.8022  35.3182  36.7565 H              1 <1>                0.0000
     24 H24         32.1025  35.4271  35.5459 H              1 <1>                0.0000
     25 H25         27.5909  38.1556  36.7475 H              1 <1>                0.0000
     26 H26         26.1268  37.2541  38.5083 H              1 <1>                0.0000
     27 H27         29.5386  35.7561  40.5881 H              1 <1>                0.0000
     28 H28         31.0087  36.6486  38.8276 H              1 <1>                0.0000
@<TRIPOS>BOND
    1    1    2 1     
    2    1   17 1     
    3    1   18 1     
    4    1   19 1     
    5    2    3 2     
    6    2    9 1     
    7    3    4 1     
    8    3   20 1     
    9    4    5 1     
   10    4    7 2     
   11    5    6 2     
   12    5   21 1     
   13    7    8 1     
   14    7    9 1     
   15    8   22 1     
   16    8   23 1     
   17    8   24 1     
   18    9   10 1     
   19   10   11 ar    
   20   10   16 ar    
   21   11   12 ar    
   22   11   25 1     
   23   12   13 ar    
   24   12   26 1     
   25   13   14 1     
   26   13   15 ar    
   27   15   16 ar    
   28   15   27 1     
   29   16   28 1     
@<TRIPOS>SUBSTRUCTURE
      1 ****           1
@<TRIPOS>COMMENT
> <Gold.Version>
2022.2.0

> <Gold.Id.Protein>
1qkm|1qkm_protein|mol2

> <Gold.Protein.RotatedTorsions>
[  496  491  490  487 ] final -121.14 input  -89.99 | X-H torsion

> <Gold.Protein.ActiveResidues>
 MET295  LEU298  THR299  LEU301  ALA302  GLU305  TRP335  MET336  LEU339  MET340 
 GLY342  LEU343  ARG346  PHE356  ILE373  ILE376  PHE377  LEU380  LYS471  GLY472 
 MET473  HIS475  LEU476  LEU477  ASN478  MET479  VAL484  VAL487 

> <Gold.Protein.RotatedAtoms>
   37.0354   34.3414   40.7935 H   0  0  0  0  0  0  0  0  0  0  0  0  # atno 496  bound_to 491 

> <Gold.Score>
     Score     S(PLP)   S(hbond)     S(cho)   S(metal)  DE(clash)   DE(tors)     intcor
     52.55     -52.69       0.00       0.00       0.00       0.00       0.76       1.39

> <Gold.PLP.Fitness>
52.5495

> <Gold.PLP.PLP>
-52.6914

> <Gold.PLP.part.hbond>
-0.0748

> <Gold.PLP.part.metal>
0.0000

> <Gold.PLP.part.buried>
-0.2532

> <Gold.PLP.part.nonpolar>
-53.5481

> <Gold.PLP.part.repulsive>
0.5615

> <Gold.PLP.ligand.clash>
0.0000

> <Gold.PLP.ligand.torsion>
0.7642

> <Gold.PLP.Chemscore.Hbond>
0.0000

> <Gold.PLP.Chemscore.CHOScore>
0.0000

> <Gold.PLP.Chemscore.Metal>
0.0000

> <Gold.PLP.Chemscore.Internal.Correction>
1.3865

