#       Name:                EN300-01000_i001
#       Creating user name   aseyller
#       Creation time:       Fri Apr 21 17:01:30 2023


#       File generated by GOLD software.
#

@<TRIPOS>MOLECULE
EN300-01000_i001|benzaldehydes|mol2|148|dock15
    28    29     1
SMALL
USER_CHARGES


@<TRIPOS>ATOM
      1 C1          28.4192  39.2903  36.8247 C.3            1 <1>                0.0000
      2 C2          29.5965  38.3513  36.8812 C.2            1 <1>                0.0000
      3 C3          30.6087  38.3175  35.9985 C.2            1 <1>                0.0000
      4 C4          31.5177  37.2549  36.4496 C.2            1 <1>                0.0000
      5 C5          32.7682  36.8353  35.8142 C.2            1 <1>                0.0000
      6 O6          33.1930  37.4408  34.8521 O.2            1 <1>                0.0000
      7 C7          30.9503  36.7323  37.5969 C.2            1 <1>                0.0000
      8 C8          31.5154  35.6122  38.4317 C.3            1 <1>                0.0000
      9 N9          29.8076  37.4021  37.8422 N.pl3          1 <1>                0.0000
     10 C10         28.9516  37.1547  38.9244 C.ar           1 <1>                0.0000
     11 C11         27.5772  37.1220  38.7304 C.ar           1 <1>                0.0000
     12 C12         26.7359  36.8780  39.7980 C.ar           1 <1>                0.0000
     13 C13         27.2616  36.6667  41.0606 C.ar           1 <1>                0.0000
     14 Cl14        26.2015  36.3603  42.4007 Cl             1 <1>                0.0000
     15 C15         28.6312  36.6987  41.2564 C.ar           1 <1>                0.0000
     16 C16         29.4769  36.9362  40.1908 C.ar           1 <1>                0.0000
     17 H17         27.6177  38.8335  36.2442 H              1 <1>                0.0000
     18 H18         28.0661  39.4915  37.8361 H              1 <1>                0.0000
     19 H19         28.7223  40.2250  36.3531 H              1 <1>                0.0000
     20 H20         30.7301  38.9467  35.1291 H              1 <1>                0.0000
     21 H21         33.3128  35.9869  36.2016 H              1 <1>                0.0000
     22 H22         32.1691  36.0255  39.1998 H              1 <1>                0.0000
     23 H23         30.7002  35.0645  38.9046 H              1 <1>                0.0000
     24 H24         32.0857  34.9362  37.7945 H              1 <1>                0.0000
     25 H25         27.1664  37.2876  37.7454 H              1 <1>                0.0000
     26 H26         25.6667  36.8525  39.6476 H              1 <1>                0.0000
     27 H27         29.0392  36.5335  42.2427 H              1 <1>                0.0000
     28 H28         30.5457  36.9610  40.3441 H              1 <1>                0.0000
@<TRIPOS>BOND
    1    1    2 1     
    2    1   17 1     
    3    1   18 1     
    4    1   19 1     
    5    2    3 2     
    6    2    9 1     
    7    3    4 1     
    8    3   20 1     
    9    4    5 1     
   10    4    7 2     
   11    5    6 2     
   12    5   21 1     
   13    7    8 1     
   14    7    9 1     
   15    8   22 1     
   16    8   23 1     
   17    8   24 1     
   18    9   10 1     
   19   10   11 ar    
   20   10   16 ar    
   21   11   12 ar    
   22   11   25 1     
   23   12   13 ar    
   24   12   26 1     
   25   13   14 1     
   26   13   15 ar    
   27   15   16 ar    
   28   15   27 1     
   29   16   28 1     
@<TRIPOS>SUBSTRUCTURE
      1 ****           1
@<TRIPOS>COMMENT
> <Gold.Version>
2022.2.0

> <Gold.Id.Protein>
1qkm|1qkm_protein|mol2

> <Gold.Protein.RotatedTorsions>
[  496  491  490  487 ] final -158.75 input  -89.99 | X-H torsion

> <Gold.Protein.ActiveResidues>
 MET295  LEU298  THR299  LEU301  ALA302  GLU305  TRP335  MET336  LEU339  MET340 
 GLY342  LEU343  ARG346  PHE356  ILE373  ILE376  PHE377  LEU380  LYS471  GLY472 
 MET473  HIS475  LEU476  LEU477  ASN478  MET479  VAL484  VAL487 

> <Gold.Protein.RotatedAtoms>
   37.2705   33.7828   40.7427 H   0  0  0  0  0  0  0  0  0  0  0  0  # atno 496  bound_to 491 

> <Gold.Score>
     Score     S(PLP)   S(hbond)     S(cho)   S(metal)  DE(clash)   DE(tors)     intcor
     50.63     -50.64       0.00       0.00       0.00       0.00       0.70       1.39

> <Gold.PLP.Fitness>
50.6255

> <Gold.PLP.PLP>
-50.6403

> <Gold.PLP.part.hbond>
0.0000

> <Gold.PLP.part.metal>
0.0000

> <Gold.PLP.part.buried>
2.8264

> <Gold.PLP.part.nonpolar>
-53.8660

> <Gold.PLP.part.repulsive>
0.1522

> <Gold.PLP.ligand.clash>
0.0000

> <Gold.PLP.ligand.torsion>
0.7006

> <Gold.PLP.Chemscore.Hbond>
0.0000

> <Gold.PLP.Chemscore.CHOScore>
0.0000

> <Gold.PLP.Chemscore.Metal>
0.0000

> <Gold.PLP.Chemscore.Internal.Correction>
1.3865

