#       Name:                EN300-01000_i001
#       Creating user name   aseyller
#       Creation time:       Fri Apr 21 17:01:32 2023


#       File generated by GOLD software.
#

@<TRIPOS>MOLECULE
EN300-01000_i001|benzaldehydes|mol2|148|dock19
    28    29     1
SMALL
USER_CHARGES


@<TRIPOS>ATOM
      1 C1          31.5719  35.3781  38.8010 C.3            1 <1>                0.0000
      2 C2          30.1559  35.8750  38.9397 C.2            1 <1>                0.0000
      3 C3          29.2919  35.5066  39.9002 C.2            1 <1>                0.0000
      4 C4          28.0448  36.2384  39.6397 C.2            1 <1>                0.0000
      5 C5          26.8047  36.1721  40.4154 C.2            1 <1>                0.0000
      6 O6          25.8419  36.8292  40.0778 O.2            1 <1>                0.0000
      7 C7          28.2818  37.0024  38.5121 C.2            1 <1>                0.0000
      8 C8          27.2968  37.9310  37.8500 C.3            1 <1>                0.0000
      9 N9          29.5480  36.7770  38.1115 N.pl3          1 <1>                0.0000
     10 C10         30.1535  37.3755  36.9978 C.ar           1 <1>                0.0000
     11 C11         29.9916  38.7346  36.7649 C.ar           1 <1>                0.0000
     12 C12         30.5891  39.3219  35.6671 C.ar           1 <1>                0.0000
     13 C13         31.3482  38.5568  34.7990 C.ar           1 <1>                0.0000
     14 Cl14        32.0980  39.2980  33.4198 Cl             1 <1>                0.0000
     15 C15         31.5110  37.2019  35.0290 C.ar           1 <1>                0.0000
     16 C16         30.9206  36.6112  36.1289 C.ar           1 <1>                0.0000
     17 H17         31.5841  34.4861  38.1748 H              1 <1>                0.0000
     18 H18         32.1854  36.1530  38.3415 H              1 <1>                0.0000
     19 H19         31.9701  35.1360  39.7863 H              1 <1>                0.0000
     20 H20         29.4773  34.8101  40.7045 H              1 <1>                0.0000
     21 H21         26.7467  35.5383  41.2879 H              1 <1>                0.0000
     22 H22         27.3888  38.9271  38.2832 H              1 <1>                0.0000
     23 H23         27.5048  37.9791  36.7811 H              1 <1>                0.0000
     24 H24         26.2845  37.5587  38.0068 H              1 <1>                0.0000
     25 H25         29.3987  39.3319  37.4417 H              1 <1>                0.0000
     26 H26         30.4635  40.3791  35.4856 H              1 <1>                0.0000
     27 H27         32.1039  36.6069  34.3501 H              1 <1>                0.0000
     28 H28         31.0480  35.5538  36.3080 H              1 <1>                0.0000
@<TRIPOS>BOND
    1    1    2 1     
    2    1   17 1     
    3    1   18 1     
    4    1   19 1     
    5    2    3 2     
    6    2    9 1     
    7    3    4 1     
    8    3   20 1     
    9    4    5 1     
   10    4    7 2     
   11    5    6 2     
   12    5   21 1     
   13    7    8 1     
   14    7    9 1     
   15    8   22 1     
   16    8   23 1     
   17    8   24 1     
   18    9   10 1     
   19   10   11 ar    
   20   10   16 ar    
   21   11   12 ar    
   22   11   25 1     
   23   12   13 ar    
   24   12   26 1     
   25   13   14 1     
   26   13   15 ar    
   27   15   16 ar    
   28   15   27 1     
   29   16   28 1     
@<TRIPOS>SUBSTRUCTURE
      1 ****           1
@<TRIPOS>COMMENT
> <Gold.Version>
2022.2.0

> <Gold.Id.Protein>
1qkm|1qkm_protein|mol2

> <Gold.Protein.RotatedTorsions>
[  496  491  490  487 ] final  -42.32 input  -89.99 | X-H torsion

> <Gold.Protein.ActiveResidues>
 MET295  LEU298  THR299  LEU301  ALA302  GLU305  TRP335  MET336  LEU339  MET340 
 GLY342  LEU343  ARG346  PHE356  ILE373  ILE376  PHE377  LEU380  LYS471  GLY472 
 MET473  HIS475  LEU476  LEU477  ASN478  MET479  VAL484  VAL487 

> <Gold.Protein.RotatedAtoms>
   36.3764   34.6648   41.7396 H   0  0  0  0  0  0  0  0  0  0  0  0  # atno 496  bound_to 491 

> <Gold.Score>
     Score     S(PLP)   S(hbond)     S(cho)   S(metal)  DE(clash)   DE(tors)     intcor
     46.65     -46.70       0.00       0.00       0.00       0.00       0.72       1.38

> <Gold.PLP.Fitness>
46.6476

> <Gold.PLP.PLP>
-46.7044

> <Gold.PLP.part.hbond>
0.0000

> <Gold.PLP.part.metal>
0.0000

> <Gold.PLP.part.buried>
-2.9542

> <Gold.PLP.part.nonpolar>
-44.4373

> <Gold.PLP.part.repulsive>
0.1149

> <Gold.PLP.ligand.clash>
0.0000

> <Gold.PLP.ligand.torsion>
0.7194

> <Gold.PLP.Chemscore.Hbond>
0.0000

> <Gold.PLP.Chemscore.CHOScore>
0.0000

> <Gold.PLP.Chemscore.Metal>
0.0000

> <Gold.PLP.Chemscore.Internal.Correction>
1.3820

