#       Name:                EN300-01000_i001
#       Creating user name   aseyller
#       Creation time:       Fri Apr 21 17:01:29 2023


#       File generated by GOLD software.
#

@<TRIPOS>MOLECULE
EN300-01000_i001|benzaldehydes|mol2|148|dock11
    28    29     1
SMALL
USER_CHARGES


@<TRIPOS>ATOM
      1 C1          28.1828  39.3829  36.9991 C.3            1 <1>                0.0000
      2 C2          29.3305  38.4240  37.1843 C.2            1 <1>                0.0000
      3 C3          30.4894  38.4561  36.5056 C.2            1 <1>                0.0000
      4 C4          31.3001  37.3418  37.0155 C.2            1 <1>                0.0000
      5 C5          32.6478  36.9630  36.5865 C.2            1 <1>                0.0000
      6 O6          33.2200  36.0400  37.1282 O.2            1 <1>                0.0000
      7 C7          30.5298  36.7241  37.9832 C.2            1 <1>                0.0000
      8 C8          30.9313  35.5225  38.7991 C.3            1 <1>                0.0000
      9 N9          29.3604  37.3865  38.0742 N.pl3          1 <1>                0.0000
     10 C10         28.3181  37.0534  38.9505 C.ar           1 <1>                0.0000
     11 C11         27.0046  37.0545  38.5009 C.ar           1 <1>                0.0000
     12 C12         25.9795  36.7260  39.3661 C.ar           1 <1>                0.0000
     13 C13         26.2607  36.3965  40.6804 C.ar           1 <1>                0.0000
     14 Cl14        24.9700  35.9841  41.7656 Cl             1 <1>                0.0000
     15 C15         27.5692  36.3946  41.1309 C.ar           1 <1>                0.0000
     16 C16         28.5982  36.7164  40.2679 C.ar           1 <1>                0.0000
     17 H17         27.5042  38.9948  36.2395 H              1 <1>                0.0000
     18 H18         27.6472  39.4950  37.9417 H              1 <1>                0.0000
     19 H19         28.5670  40.3524  36.6819 H              1 <1>                0.0000
     20 H20         30.7696  39.1612  35.7370 H              1 <1>                0.0000
     21 H21         33.1326  37.5047  35.7879 H              1 <1>                0.0000
     22 H22         31.4298  35.8523  39.7107 H              1 <1>                0.0000
     23 H23         30.0431  34.9465  39.0589 H              1 <1>                0.0000
     24 H24         31.6113  34.8995  38.2181 H              1 <1>                0.0000
     25 H25         26.7846  37.3123  37.4754 H              1 <1>                0.0000
     26 H26         24.9575  36.7267  39.0168 H              1 <1>                0.0000
     27 H27         27.7862  36.1372  42.1571 H              1 <1>                0.0000
     28 H28         29.6193  36.7148  40.6199 H              1 <1>                0.0000
@<TRIPOS>BOND
    1    1    2 1     
    2    1   17 1     
    3    1   18 1     
    4    1   19 1     
    5    2    3 2     
    6    2    9 1     
    7    3    4 1     
    8    3   20 1     
    9    4    5 1     
   10    4    7 2     
   11    5    6 2     
   12    5   21 1     
   13    7    8 1     
   14    7    9 1     
   15    8   22 1     
   16    8   23 1     
   17    8   24 1     
   18    9   10 1     
   19   10   11 ar    
   20   10   16 ar    
   21   11   12 ar    
   22   11   25 1     
   23   12   13 ar    
   24   12   26 1     
   25   13   14 1     
   26   13   15 ar    
   27   15   16 ar    
   28   15   27 1     
   29   16   28 1     
@<TRIPOS>SUBSTRUCTURE
      1 ****           1
@<TRIPOS>COMMENT
> <Gold.Version>
2022.2.0

> <Gold.Id.Protein>
1qkm|1qkm_protein|mol2

> <Gold.Protein.RotatedTorsions>
[  496  491  490  487 ] final -162.08 input  -89.99 | X-H torsion

> <Gold.Protein.ActiveResidues>
 MET295  LEU298  THR299  LEU301  ALA302  GLU305  TRP335  MET336  LEU339  MET340 
 GLY342  LEU343  ARG346  PHE356  ILE373  ILE376  PHE377  LEU380  LYS471  GLY472 
 MET473  HIS475  LEU476  LEU477  ASN478  MET479  VAL484  VAL487 

> <Gold.Protein.RotatedAtoms>
   37.2825   33.7309   40.7552 H   0  0  0  0  0  0  0  0  0  0  0  0  # atno 496  bound_to 491 

> <Gold.Score>
     Score     S(PLP)   S(hbond)     S(cho)   S(metal)  DE(clash)   DE(tors)     intcor
     51.79     -51.81       0.00       0.00       0.00       0.00       0.71       1.39

> <Gold.PLP.Fitness>
51.7855

> <Gold.PLP.PLP>
-51.8091

> <Gold.PLP.part.hbond>
0.0000

> <Gold.PLP.part.metal>
0.0000

> <Gold.PLP.part.buried>
3.3158

> <Gold.PLP.part.nonpolar>
-54.8011

> <Gold.PLP.part.repulsive>
0.0000

> <Gold.PLP.ligand.clash>
0.0000

> <Gold.PLP.ligand.torsion>
0.7050

> <Gold.PLP.Chemscore.Hbond>
0.0000

> <Gold.PLP.Chemscore.CHOScore>
0.0000

> <Gold.PLP.Chemscore.Metal>
0.0000

> <Gold.PLP.Chemscore.Internal.Correction>
1.3865

