#       Name:                EN300-29226_i001
#       Creating user name   aseyller
#       Creation time:       Fri Apr 21 16:41:25 2023


#       File generated by GOLD software.
#

@<TRIPOS>MOLECULE
EN300-29226_i001|Sulfonylchlorides|mol2|60|dock12
    29    29     1
SMALL
USER_CHARGES


@<TRIPOS>ATOM
      1 C1          26.0871  37.0336  40.5848 C.3            1 <1>                0.0000
      2 C2          25.7045  37.1098  39.1054 C.3            1 <1>                0.0000
      3 O3          26.7768  37.7452  38.3603 O.3            1 <1>                0.0000
      4 C4          27.9721  37.1345  38.3723 C.2            1 <1>                0.0000
      5 O5          28.0932  36.0539  38.8989 O.2            1 <1>                0.0000
      6 C6          29.1631  37.7968  37.7287 C.3            1 <1>                0.0000
      7 C7          28.7343  39.1295  37.1107 C.3            1 <1>                0.0000
      8 C8          29.9497  39.8183  36.4854 C.3            1 <1>                0.0000
      9 C9          30.5188  38.9307  35.3741 C.3            1 <1>                0.0000
     10 N10         30.7988  37.5994  35.9288 N.pl3          1 <1>                0.0000
     11 C11         29.7233  36.8864  36.6315 C.3            1 <1>                0.0000
     12 S12         32.2980  36.9153  35.7651 S.o2           1 <1>                0.0000
     13 O13         32.0921  35.6282  35.1991 O.2            1 <1>                0.0000
     14 O14         33.1269  37.9033  35.1683 O.2            1 <1>                0.0000
     15 Cl15        33.0228  36.6109  37.6258 Cl             1 <1>                0.0000
     16 H16         27.0010  36.4498  40.6942 H              1 <1>                0.0000
     17 H17         26.2505  38.0401  40.9701 H              1 <1>                0.0000
     18 H18         25.2823  36.5567  41.1441 H              1 <1>                0.0000
     19 H19         25.5412  36.1033  38.7200 H              1 <1>                0.0000
     20 H20         24.7906  37.6935  38.9959 H              1 <1>                0.0000
     21 H21         29.9310  37.9751  38.4814 H              1 <1>                0.0000
     22 H22         27.9839  38.9483  36.3412 H              1 <1>                0.0000
     23 H23         28.3126  39.7701  37.8852 H              1 <1>                0.0000
     24 H24         29.6480  40.7781  36.0660 H              1 <1>                0.0000
     25 H25         30.7105  39.9775  37.2495 H              1 <1>                0.0000
     26 H26         29.7916  38.8447  34.5667 H              1 <1>                0.0000
     27 H27         31.4411  39.3690  34.9927 H              1 <1>                0.0000
     28 H28         30.1207  35.9758  37.0798 H              1 <1>                0.0000
     29 H29         28.9312  36.6335  35.9266 H              1 <1>                0.0000
@<TRIPOS>BOND
    1    1    2 1     
    2    1   16 1     
    3    1   17 1     
    4    1   18 1     
    5    2    3 1     
    6    2   19 1     
    7    2   20 1     
    8    3    4 1     
    9    4    5 2     
   10    4    6 1     
   11    6    7 1     
   12    6   11 1     
   13    6   21 1     
   14    7    8 1     
   15    7   22 1     
   16    7   23 1     
   17    8    9 1     
   18    8   24 1     
   19    8   25 1     
   20    9   10 1     
   21    9   26 1     
   22    9   27 1     
   23   10   11 1     
   24   10   12 1     
   25   11   28 1     
   26   11   29 1     
   27   12   13 2     
   28   12   14 2     
   29   12   15 1     
@<TRIPOS>SUBSTRUCTURE
      1 ****           1
@<TRIPOS>COMMENT
> <Gold.Version>
2022.2.0

> <Gold.Id.Protein>
1qkm|1qkm_protein|mol2

> <Gold.Protein.RotatedTorsions>
[  496  491  490  487 ] final  -66.58 input  -89.99 | X-H torsion

> <Gold.Protein.ActiveResidues>
 MET295  LEU298  THR299  LEU301  ALA302  GLU305  TRP335  MET336  LEU339  MET340 
 GLY342  LEU343  ARG346  PHE356  ILE373  ILE376  PHE377  LEU380  LYS471  GLY472 
 MET473  HIS475  LEU476  LEU477  ASN478  MET479  VAL484  VAL487 

> <Gold.Protein.RotatedAtoms>
   36.5496   34.7356   41.3902 H   0  0  0  0  0  0  0  0  0  0  0  0  # atno 496  bound_to 491 

> <Gold.Score>
     Score     S(PLP)   S(hbond)     S(cho)   S(metal)  DE(clash)   DE(tors)     intcor
     42.40     -42.59       0.00       0.00       0.00       0.00       1.09       1.99

> <Gold.PLP.Fitness>
42.4012

> <Gold.PLP.PLP>
-42.5943

> <Gold.PLP.part.hbond>
0.0000

> <Gold.PLP.part.metal>
0.0000

> <Gold.PLP.part.buried>
-4.0034

> <Gold.PLP.part.nonpolar>
-39.4128

> <Gold.PLP.part.repulsive>
0.2163

> <Gold.PLP.ligand.clash>
0.0000

> <Gold.PLP.ligand.torsion>
1.0900

> <Gold.PLP.Chemscore.Hbond>
0.0000

> <Gold.PLP.Chemscore.CHOScore>
0.0000

> <Gold.PLP.Chemscore.Metal>
0.0000

> <Gold.PLP.Chemscore.Internal.Correction>
1.9868

