#       Name:                EN300-29226_i001
#       Creating user name   aseyller
#       Creation time:       Fri Apr 21 16:41:16 2023


#       File generated by GOLD software.
#

@<TRIPOS>MOLECULE
EN300-29226_i001|Sulfonylchlorides|mol2|60|dock2
    29    29     1
SMALL
USER_CHARGES


@<TRIPOS>ATOM
      1 C1          25.6997  37.3981  39.5176 C.3            1 <1>                0.0000
      2 C2          26.4423  36.4019  40.4104 C.3            1 <1>                0.0000
      3 O3          27.4196  35.6770  39.6181 O.3            1 <1>                0.0000
      4 C4          28.7117  35.9820  39.8161 C.2            1 <1>                0.0000
      5 O5          29.0827  36.3652  40.9003 O.2            1 <1>                0.0000
      6 C6          29.6997  35.8464  38.6862 C.3            1 <1>                0.0000
      7 C7          30.8198  34.8890  39.0993 C.3            1 <1>                0.0000
      8 C8          31.8063  34.7251  37.9407 C.3            1 <1>                0.0000
      9 C9          32.4298  36.0848  37.6101 C.3            1 <1>                0.0000
     10 N10         31.3518  37.0495  37.3529 N.pl3          1 <1>                0.0000
     11 C11         30.2993  37.2188  38.3641 C.3            1 <1>                0.0000
     12 S12         31.3236  37.9291  35.9502 S.o2           1 <1>                0.0000
     13 O13         32.6790  38.1155  35.5661 O.2            1 <1>                0.0000
     14 O14         30.3553  37.3149  35.1108 O.2            1 <1>                0.0000
     15 Cl15        30.6032  39.7601  36.4069 Cl             1 <1>                0.0000
     16 H16         26.4124  38.1016  39.0871 H              1 <1>                0.0000
     17 H17         25.1917  36.8601  38.7173 H              1 <1>                0.0000
     18 H18         24.9661  37.9423  40.1123 H              1 <1>                0.0000
     19 H19         26.9504  36.9399  41.2108 H              1 <1>                0.0000
     20 H20         25.7296  35.6985  40.8409 H              1 <1>                0.0000
     21 H21         29.1926  35.4544  37.8046 H              1 <1>                0.0000
     22 H22         31.3420  35.2936  39.9664 H              1 <1>                0.0000
     23 H23         30.3931  33.9186  39.3528 H              1 <1>                0.0000
     24 H24         32.5910  34.0251  38.2274 H              1 <1>                0.0000
     25 H25         31.2797  34.3440  37.0658 H              1 <1>                0.0000
     26 H26         33.0316  36.4254  38.4527 H              1 <1>                0.0000
     27 H27         33.0572  35.9932  36.7235 H              1 <1>                0.0000
     28 H28         29.5211  37.8753  37.9750 H              1 <1>                0.0000
     29 H29         30.7274  37.6519  39.2681 H              1 <1>                0.0000
@<TRIPOS>BOND
    1    1    2 1     
    2    1   16 1     
    3    1   17 1     
    4    1   18 1     
    5    2    3 1     
    6    2   19 1     
    7    2   20 1     
    8    3    4 1     
    9    4    5 2     
   10    4    6 1     
   11    6    7 1     
   12    6   11 1     
   13    6   21 1     
   14    7    8 1     
   15    7   22 1     
   16    7   23 1     
   17    8    9 1     
   18    8   24 1     
   19    8   25 1     
   20    9   10 1     
   21    9   26 1     
   22    9   27 1     
   23   10   11 1     
   24   10   12 1     
   25   11   28 1     
   26   11   29 1     
   27   12   13 2     
   28   12   14 2     
   29   12   15 1     
@<TRIPOS>SUBSTRUCTURE
      1 ****           1
@<TRIPOS>COMMENT
> <Gold.Version>
2022.2.0

> <Gold.Id.Protein>
1qkm|1qkm_protein|mol2

> <Gold.Protein.RotatedTorsions>
[  496  491  490  487 ] final   33.75 input  -89.99 | X-H torsion

> <Gold.Protein.ActiveResidues>
 MET295  LEU298  THR299  LEU301  ALA302  GLU305  TRP335  MET336  LEU339  MET340 
 GLY342  LEU343  ARG346  PHE356  ILE373  ILE376  PHE377  LEU380  LYS471  GLY472 
 MET473  HIS475  LEU476  LEU477  ASN478  MET479  VAL484  VAL487 

> <Gold.Protein.RotatedAtoms>
   36.3664   33.6971   42.3832 H   0  0  0  0  0  0  0  0  0  0  0  0  # atno 496  bound_to 491 

> <Gold.Score>
     Score     S(PLP)   S(hbond)     S(cho)   S(metal)  DE(clash)   DE(tors)     intcor
     44.43     -46.23       0.00       0.00       0.00       0.00       1.89       1.99

> <Gold.PLP.Fitness>
44.4333

> <Gold.PLP.PLP>
-46.2258

> <Gold.PLP.part.hbond>
0.0000

> <Gold.PLP.part.metal>
0.0000

> <Gold.PLP.part.buried>
-4.3843

> <Gold.PLP.part.nonpolar>
-42.1648

> <Gold.PLP.part.repulsive>
0.2570

> <Gold.PLP.ligand.clash>
0.0000

> <Gold.PLP.ligand.torsion>
1.8896

> <Gold.PLP.Chemscore.Hbond>
0.0000

> <Gold.PLP.Chemscore.CHOScore>
0.0000

> <Gold.PLP.Chemscore.Metal>
0.0000

> <Gold.PLP.Chemscore.Internal.Correction>
1.9868

