#       Name:                EN300-29226_i001
#       Creating user name   aseyller
#       Creation time:       Fri Apr 21 16:41:21 2023


#       File generated by GOLD software.
#

@<TRIPOS>MOLECULE
EN300-29226_i001|Sulfonylchlorides|mol2|60|dock7
    29    29     1
SMALL
USER_CHARGES


@<TRIPOS>ATOM
      1 C1          25.7043  37.3168  41.1514 C.3            1 <1>                0.0000
      2 C2          25.5244  37.0572  39.6544 C.3            1 <1>                0.0000
      3 O3          26.8107  37.1568  38.9879 O.3            1 <1>                0.0000
      4 C4          27.7301  36.2286  39.2960 C.2            1 <1>                0.0000
      5 O5          27.5584  35.4995  40.2440 O.2            1 <1>                0.0000
      6 C6          28.9766  36.0959  38.4594 C.3            1 <1>                0.0000
      7 C7          29.9864  35.2043  39.1853 C.3            1 <1>                0.0000
      8 C8          31.2396  35.0422  38.3219 C.3            1 <1>                0.0000
      9 C9          31.8809  36.4152  38.0970 C.3            1 <1>                0.0000
     10 N10         30.8719  37.3216  37.5320 N.pl3          1 <1>                0.0000
     11 C11         29.5921  37.4808  38.2360 C.3            1 <1>                0.0000
     12 S12         31.1714  38.1479  36.1285 S.o2           1 <1>                0.0000
     13 O13         32.5837  38.1781  35.9743 O.2            1 <1>                0.0000
     14 O14         30.2941  37.6077  35.1499 O.2            1 <1>                0.0000
     15 Cl15        30.5888  40.0593  36.4240 Cl             1 <1>                0.0000
     16 H16         26.3880  36.5777  41.5688 H              1 <1>                0.0000
     17 H17         26.1142  38.3158  41.3002 H              1 <1>                0.0000
     18 H18         24.7389  37.2420  41.6518 H              1 <1>                0.0000
     19 H19         25.1146  36.0581  39.5056 H              1 <1>                0.0000
     20 H20         24.8407  37.7962  39.2370 H              1 <1>                0.0000
     21 H21         28.7233  35.6505  37.4974 H              1 <1>                0.0000
     22 H22         30.2576  35.6625  40.1365 H              1 <1>                0.0000
     23 H23         29.5420  34.2258  39.3674 H              1 <1>                0.0000
     24 H24         31.9488  34.3882  38.8293 H              1 <1>                0.0000
     25 H25         30.9655  34.6069  37.3610 H              1 <1>                0.0000
     26 H26         32.2373  36.8121  39.0475 H              1 <1>                0.0000
     27 H27         32.7156  36.3193  37.4026 H              1 <1>                0.0000
     28 H28         28.9167  38.0881  37.6334 H              1 <1>                0.0000
     29 H29         29.7620  37.9648  39.1979 H              1 <1>                0.0000
@<TRIPOS>BOND
    1    1    2 1     
    2    1   16 1     
    3    1   17 1     
    4    1   18 1     
    5    2    3 1     
    6    2   19 1     
    7    2   20 1     
    8    3    4 1     
    9    4    5 2     
   10    4    6 1     
   11    6    7 1     
   12    6   11 1     
   13    6   21 1     
   14    7    8 1     
   15    7   22 1     
   16    7   23 1     
   17    8    9 1     
   18    8   24 1     
   19    8   25 1     
   20    9   10 1     
   21    9   26 1     
   22    9   27 1     
   23   10   11 1     
   24   10   12 1     
   25   11   28 1     
   26   11   29 1     
   27   12   13 2     
   28   12   14 2     
   29   12   15 1     
@<TRIPOS>SUBSTRUCTURE
      1 ****           1
@<TRIPOS>COMMENT
> <Gold.Version>
2022.2.0

> <Gold.Id.Protein>
1qkm|1qkm_protein|mol2

> <Gold.Protein.RotatedTorsions>
[  496  491  490  487 ] final  -45.16 input  -89.99 | X-H torsion

> <Gold.Protein.ActiveResidues>
 MET295  LEU298  THR299  LEU301  ALA302  GLU305  TRP335  MET336  LEU339  MET340 
 GLY342  LEU343  ARG346  PHE356  ILE373  ILE376  PHE377  LEU380  LYS471  GLY472 
 MET473  HIS475  LEU476  LEU477  ASN478  MET479  VAL484  VAL487 

> <Gold.Protein.RotatedAtoms>
   36.3934   34.6812   41.6992 H   0  0  0  0  0  0  0  0  0  0  0  0  # atno 496  bound_to 491 

> <Gold.Score>
     Score     S(PLP)   S(hbond)     S(cho)   S(metal)  DE(clash)   DE(tors)     intcor
     42.83     -43.92       0.00       0.00       0.00       0.00       1.54       1.99

> <Gold.PLP.Fitness>
42.8324

> <Gold.PLP.PLP>
-43.9227

> <Gold.PLP.part.hbond>
0.0000

> <Gold.PLP.part.metal>
0.0000

> <Gold.PLP.part.buried>
-4.3758

> <Gold.PLP.part.nonpolar>
-40.1415

> <Gold.PLP.part.repulsive>
0.1635

> <Gold.PLP.ligand.clash>
0.0000

> <Gold.PLP.ligand.torsion>
1.5385

> <Gold.PLP.Chemscore.Hbond>
0.0000

> <Gold.PLP.Chemscore.CHOScore>
0.0000

> <Gold.PLP.Chemscore.Metal>
0.0000

> <Gold.PLP.Chemscore.Internal.Correction>
1.9868

