#       Name:                EN300-29226_i001
#       Creating user name   aseyller
#       Creation time:       Fri Apr 21 16:41:24 2023


#       File generated by GOLD software.
#

@<TRIPOS>MOLECULE
EN300-29226_i001|Sulfonylchlorides|mol2|60|dock10
    29    29     1
SMALL
USER_CHARGES


@<TRIPOS>ATOM
      1 C1          25.8408  37.0261  40.4473 C.3            1 <1>                0.0000
      2 C2          26.7242  35.8095  40.7310 C.3            1 <1>                0.0000
      3 O3          27.6581  35.6233  39.6348 O.3            1 <1>                0.0000
      4 C4          28.8340  36.2650  39.7205 C.2            1 <1>                0.0000
      5 O5          29.1272  36.8564  40.7325 O.2            1 <1>                0.0000
      6 C6          29.7886  36.2476  38.5544 C.3            1 <1>                0.0000
      7 C7          31.1128  35.6149  38.9878 C.3            1 <1>                0.0000
      8 C8          32.0715  35.5669  37.7958 C.3            1 <1>                0.0000
      9 C9          32.3523  36.9937  37.3139 C.3            1 <1>                0.0000
     10 N10         31.0725  37.6583  37.0326 N.pl3          1 <1>                0.0000
     11 C11         30.0434  37.6821  38.0811 C.3            1 <1>                0.0000
     12 S12         30.7951  38.3671  35.5619 S.o2           1 <1>                0.0000
     13 O13         29.8154  37.5699  34.9107 O.2            1 <1>                0.0000
     14 O14         30.6265  39.7559  35.8112 O.2            1 <1>                0.0000
     15 Cl15        32.4911  38.1835  34.4802 Cl             1 <1>                0.0000
     16 H16         26.4658  37.9135  40.3477 H              1 <1>                0.0000
     17 H17         25.2876  36.8656  39.5220 H              1 <1>                0.0000
     18 H18         25.1398  37.1659  41.2701 H              1 <1>                0.0000
     19 H19         27.2775  35.9700  41.6564 H              1 <1>                0.0000
     20 H20         26.0993  34.9220  40.8306 H              1 <1>                0.0000
     21 H21         29.3570  35.6664  37.7396 H              1 <1>                0.0000
     22 H22         31.5557  36.2102  39.7863 H              1 <1>                0.0000
     23 H23         30.9308  34.6024  39.3483 H              1 <1>                0.0000
     24 H24         33.0060  35.0950  38.0994 H              1 <1>                0.0000
     25 H25         31.6188  34.9925  36.9878 H              1 <1>                0.0000
     26 H26         32.8865  37.5428  38.0892 H              1 <1>                0.0000
     27 H27         32.9542  36.9608  36.4057 H              1 <1>                0.0000
     28 H28         29.1220  38.1034  37.6792 H              1 <1>                0.0000
     29 H29         30.3894  38.2874  38.9190 H              1 <1>                0.0000
@<TRIPOS>BOND
    1    1    2 1     
    2    1   16 1     
    3    1   17 1     
    4    1   18 1     
    5    2    3 1     
    6    2   19 1     
    7    2   20 1     
    8    3    4 1     
    9    4    5 2     
   10    4    6 1     
   11    6    7 1     
   12    6   11 1     
   13    6   21 1     
   14    7    8 1     
   15    7   22 1     
   16    7   23 1     
   17    8    9 1     
   18    8   24 1     
   19    8   25 1     
   20    9   10 1     
   21    9   26 1     
   22    9   27 1     
   23   10   11 1     
   24   10   12 1     
   25   11   28 1     
   26   11   29 1     
   27   12   13 2     
   28   12   14 2     
   29   12   15 1     
@<TRIPOS>SUBSTRUCTURE
      1 ****           1
@<TRIPOS>COMMENT
> <Gold.Version>
2022.2.0

> <Gold.Id.Protein>
1qkm|1qkm_protein|mol2

> <Gold.Protein.RotatedTorsions>
[  496  491  490  487 ] final  161.98 input  -89.99 | X-H torsion

> <Gold.Protein.ActiveResidues>
 MET295  LEU298  THR299  LEU301  ALA302  GLU305  TRP335  MET336  LEU339  MET340 
 GLY342  LEU343  ARG346  PHE356  ILE373  ILE376  PHE377  LEU380  LYS471  GLY472 
 MET473  HIS475  LEU476  LEU477  ASN478  MET479  VAL484  VAL487 

> <Gold.Protein.RotatedAtoms>
   37.3016   33.2278   41.0471 H   0  0  0  0  0  0  0  0  0  0  0  0  # atno 496  bound_to 491 

> <Gold.Score>
     Score     S(PLP)   S(hbond)     S(cho)   S(metal)  DE(clash)   DE(tors)     intcor
     42.50     -43.49       0.00       0.00       0.00       0.00       1.49       1.99

> <Gold.PLP.Fitness>
42.5044

> <Gold.PLP.PLP>
-43.4912

> <Gold.PLP.part.hbond>
0.0000

> <Gold.PLP.part.metal>
0.0000

> <Gold.PLP.part.buried>
-2.9845

> <Gold.PLP.part.nonpolar>
-41.4405

> <Gold.PLP.part.repulsive>
0.1431

> <Gold.PLP.ligand.clash>
0.0000

> <Gold.PLP.ligand.torsion>
1.4868

> <Gold.PLP.Chemscore.Hbond>
0.0000

> <Gold.PLP.Chemscore.CHOScore>
0.0000

> <Gold.PLP.Chemscore.Metal>
0.0000

> <Gold.PLP.Chemscore.Internal.Correction>
1.9868

