#       Name:                EN300-29226_i001
#       Creating user name   aseyller
#       Creation time:       Fri Apr 21 16:41:28 2023


#       File generated by GOLD software.
#

@<TRIPOS>MOLECULE
EN300-29226_i001|Sulfonylchlorides|mol2|60|dock15
    29    29     1
SMALL
USER_CHARGES


@<TRIPOS>ATOM
      1 C1          25.7774  37.2974  40.7874 C.3            1 <1>                0.0000
      2 C2          26.8740  36.2966  41.1572 C.3            1 <1>                0.0000
      3 O3          28.1261  36.7020  40.5439 O.3            1 <1>                0.0000
      4 C4          28.1542  36.7701  39.2036 C.2            1 <1>                0.0000
      5 O5          27.1926  36.4211  38.5607 O.2            1 <1>                0.0000
      6 C6          29.3851  37.2819  38.5007 C.3            1 <1>                0.0000
      7 C7          29.0040  38.4504  37.5889 C.3            1 <1>                0.0000
      8 C8          30.2585  38.9920  36.8996 C.3            1 <1>                0.0000
      9 C9          30.8792  37.8883  36.0373 C.3            1 <1>                0.0000
     10 N10         31.1153  36.7073  36.8788 N.pl3          1 <1>                0.0000
     11 C11         29.9959  36.1589  37.6566 C.3            1 <1>                0.0000
     12 S12         32.6145  36.0075  36.9491 S.o2           1 <1>                0.0000
     13 O13         33.3375  36.7077  37.9523 O.2            1 <1>                0.0000
     14 O14         32.4006  34.6031  36.9827 O.2            1 <1>                0.0000
     15 Cl15        33.5412  36.4015  35.1981 Cl             1 <1>                0.0000
     16 H16         26.0539  38.2886  41.1468 H              1 <1>                0.0000
     17 H17         25.6596  37.3234  39.7041 H              1 <1>                0.0000
     18 H18         24.8375  36.9931  41.2478 H              1 <1>                0.0000
     19 H19         26.9918  36.2705  42.2406 H              1 <1>                0.0000
     20 H20         26.5976  35.3054  40.7979 H              1 <1>                0.0000
     21 H21         30.1122  37.6190  39.2394 H              1 <1>                0.0000
     22 H22         28.2953  38.1068  36.8354 H              1 <1>                0.0000
     23 H23         28.5466  39.2409  38.1837 H              1 <1>                0.0000
     24 H24         29.9897  39.8390  36.2683 H              1 <1>                0.0000
     25 H25         30.9777  39.3128  37.6530 H              1 <1>                0.0000
     26 H26         30.1966  37.6297  35.2278 H              1 <1>                0.0000
     27 H27         31.8253  38.2369  35.6231 H              1 <1>                0.0000
     28 H28         30.3592  35.3663  38.3108 H              1 <1>                0.0000
     29 H29         29.2414  35.7591  36.9791 H              1 <1>                0.0000
@<TRIPOS>BOND
    1    1    2 1     
    2    1   16 1     
    3    1   17 1     
    4    1   18 1     
    5    2    3 1     
    6    2   19 1     
    7    2   20 1     
    8    3    4 1     
    9    4    5 2     
   10    4    6 1     
   11    6    7 1     
   12    6   11 1     
   13    6   21 1     
   14    7    8 1     
   15    7   22 1     
   16    7   23 1     
   17    8    9 1     
   18    8   24 1     
   19    8   25 1     
   20    9   10 1     
   21    9   26 1     
   22    9   27 1     
   23   10   11 1     
   24   10   12 1     
   25   11   28 1     
   26   11   29 1     
   27   12   13 2     
   28   12   14 2     
   29   12   15 1     
@<TRIPOS>SUBSTRUCTURE
      1 ****           1
@<TRIPOS>COMMENT
> <Gold.Version>
2022.2.0

> <Gold.Id.Protein>
1qkm|1qkm_protein|mol2

> <Gold.Protein.RotatedTorsions>
[  496  491  490  487 ] final -166.17 input  -89.99 | X-H torsion

> <Gold.Protein.ActiveResidues>
 MET295  LEU298  THR299  LEU301  ALA302  GLU305  TRP335  MET336  LEU339  MET340 
 GLY342  LEU343  ARG346  PHE356  ILE373  ILE376  PHE377  LEU380  LYS471  GLY472 
 MET473  HIS475  LEU476  LEU477  ASN478  MET479  VAL484  VAL487 

> <Gold.Protein.RotatedAtoms>
   37.2950   33.6676   40.7743 H   0  0  0  0  0  0  0  0  0  0  0  0  # atno 496  bound_to 491 

> <Gold.Score>
     Score     S(PLP)   S(hbond)     S(cho)   S(metal)  DE(clash)   DE(tors)     intcor
     40.76     -41.30       0.00       0.00       0.00       0.00       1.26       1.99

> <Gold.PLP.Fitness>
40.7643

> <Gold.PLP.PLP>
-41.3011

> <Gold.PLP.part.hbond>
0.0000

> <Gold.PLP.part.metal>
0.0000

> <Gold.PLP.part.buried>
-2.6669

> <Gold.PLP.part.nonpolar>
-38.1350

> <Gold.PLP.part.repulsive>
0.1115

> <Gold.PLP.ligand.clash>
0.0000

> <Gold.PLP.ligand.torsion>
1.2618

> <Gold.PLP.Chemscore.Hbond>
0.0000

> <Gold.PLP.Chemscore.CHOScore>
0.0000

> <Gold.PLP.Chemscore.Metal>
0.0000

> <Gold.PLP.Chemscore.Internal.Correction>
1.9868

