#       Name:                EN300-29226_i001
#       Creating user name   aseyller
#       Creation time:       Fri Apr 21 16:41:15 2023


#       File generated by GOLD software.
#

@<TRIPOS>MOLECULE
EN300-29226_i001|Sulfonylchlorides|mol2|60|dock1
    29    29     1
SMALL
USER_CHARGES


@<TRIPOS>ATOM
      1 C1          25.8229  37.2883  40.1794 C.3            1 <1>                0.0000
      2 C2          26.5637  36.0101  40.5775 C.3            1 <1>                0.0000
      3 O3          27.4791  35.6307  39.5161 O.3            1 <1>                0.0000
      4 C4          28.7759  35.9273  39.6948 C.2            1 <1>                0.0000
      5 O5          29.1454  36.4194  40.7347 O.2            1 <1>                0.0000
      6 C6          29.7711  35.6467  38.5985 C.3            1 <1>                0.0000
      7 C7          30.8070  34.6359  39.0955 C.3            1 <1>                0.0000
      8 C8          31.7991  34.3253  37.9723 C.3            1 <1>                0.0000
      9 C9          32.5306  35.6107  37.5728 C.3            1 <1>                0.0000
     10 N10         31.5344  36.6354  37.2318 N.pl3          1 <1>                0.0000
     11 C11         30.4796  36.9470  38.2061 C.3            1 <1>                0.0000
     12 S12         31.5991  37.4241  35.7772 S.o2           1 <1>                0.0000
     13 O13         30.5067  36.9389  35.0087 O.2            1 <1>                0.0000
     14 O14         31.7892  38.8005  36.0752 O.2            1 <1>                0.0000
     15 Cl15        33.2768  36.8072  34.8366 Cl             1 <1>                0.0000
     16 H16         26.5432  38.0900  40.0168 H              1 <1>                0.0000
     17 H17         25.2620  37.1121  39.2616 H              1 <1>                0.0000
     18 H18         25.1359  37.5732  40.9761 H              1 <1>                0.0000
     19 H19         27.1247  36.1863  41.4954 H              1 <1>                0.0000
     20 H20         25.8435  35.2084  40.7402 H              1 <1>                0.0000
     21 H21         29.2517  35.2389  37.7313 H              1 <1>                0.0000
     22 H22         31.3427  35.0541  39.9477 H              1 <1>                0.0000
     23 H23         30.3028  33.7183  39.3986 H              1 <1>                0.0000
     24 H24         32.5227  33.5878  38.3196 H              1 <1>                0.0000
     25 H25         31.2610  33.9302  37.1107 H              1 <1>                0.0000
     26 H26         33.1412  35.9577  38.4063 H              1 <1>                0.0000
     27 H27         33.1653  35.4162  36.7082 H              1 <1>                0.0000
     28 H28         29.7611  37.6342  37.7595 H              1 <1>                0.0000
     29 H29         30.9230  37.4031  39.0913 H              1 <1>                0.0000
@<TRIPOS>BOND
    1    1    2 1     
    2    1   16 1     
    3    1   17 1     
    4    1   18 1     
    5    2    3 1     
    6    2   19 1     
    7    2   20 1     
    8    3    4 1     
    9    4    5 2     
   10    4    6 1     
   11    6    7 1     
   12    6   11 1     
   13    6   21 1     
   14    7    8 1     
   15    7   22 1     
   16    7   23 1     
   17    8    9 1     
   18    8   24 1     
   19    8   25 1     
   20    9   10 1     
   21    9   26 1     
   22    9   27 1     
   23   10   11 1     
   24   10   12 1     
   25   11   28 1     
   26   11   29 1     
   27   12   13 2     
   28   12   14 2     
   29   12   15 1     
@<TRIPOS>SUBSTRUCTURE
      1 ****           1
@<TRIPOS>COMMENT
> <Gold.Version>
2022.2.0

> <Gold.Id.Protein>
1qkm|1qkm_protein|mol2

> <Gold.Protein.RotatedTorsions>
[  496  491  490  487 ] final   79.21 input  -89.99 | X-H torsion

> <Gold.Protein.ActiveResidues>
 MET295  LEU298  THR299  LEU301  ALA302  GLU305  TRP335  MET336  LEU339  MET340 
 GLY342  LEU343  ARG346  PHE356  ILE373  ILE376  PHE377  LEU380  LYS471  GLY472 
 MET473  HIS475  LEU476  LEU477  ASN478  MET479  VAL484  VAL487 

> <Gold.Protein.RotatedAtoms>
   36.7207   33.1067   42.1439 H   0  0  0  0  0  0  0  0  0  0  0  0  # atno 496  bound_to 491 

> <Gold.Score>
     Score     S(PLP)   S(hbond)     S(cho)   S(metal)  DE(clash)   DE(tors)     intcor
     46.16     -47.30       0.00       0.00       0.00       0.00       1.58       2.02

> <Gold.PLP.Fitness>
46.1646

> <Gold.PLP.PLP>
-47.2982

> <Gold.PLP.part.hbond>
0.0000

> <Gold.PLP.part.metal>
0.0000

> <Gold.PLP.part.buried>
-4.5249

> <Gold.PLP.part.nonpolar>
-43.3772

> <Gold.PLP.part.repulsive>
0.1882

> <Gold.PLP.ligand.clash>
0.0000

> <Gold.PLP.ligand.torsion>
1.5783

> <Gold.PLP.Chemscore.Hbond>
0.0000

> <Gold.PLP.Chemscore.CHOScore>
0.0000

> <Gold.PLP.Chemscore.Metal>
0.0000

> <Gold.PLP.Chemscore.Internal.Correction>
2.0231

