#       Name:                EN300-29226_i001
#       Creating user name   aseyller
#       Creation time:       Fri Apr 21 16:41:17 2023


#       File generated by GOLD software.
#

@<TRIPOS>MOLECULE
EN300-29226_i001|Sulfonylchlorides|mol2|60|dock3
    29    29     1
SMALL
USER_CHARGES


@<TRIPOS>ATOM
      1 C1          25.5169  37.5309  40.9709 C.3            1 <1>                0.0000
      2 C2          26.0428  36.0952  40.9142 C.3            1 <1>                0.0000
      3 O3          27.4072  36.0989  40.4175 O.3            1 <1>                0.0000
      4 C4          27.5863  36.4354  39.1305 C.2            1 <1>                0.0000
      5 O5          26.7169  37.0253  38.5337 O.2            1 <1>                0.0000
      6 C6          28.8717  36.0776  38.4299 C.3            1 <1>                0.0000
      7 C7          29.7916  35.3323  39.3995 C.3            1 <1>                0.0000
      8 C8          31.0838  34.9397  38.6795 C.3            1 <1>                0.0000
      9 C9          31.8045  36.2058  38.2059 C.3            1 <1>                0.0000
     10 N10         30.8768  37.0009  37.3899 N.pl3          1 <1>                0.0000
     11 C11         29.5673  37.3566  37.9533 C.3            1 <1>                0.0000
     12 S12         31.2990  37.4868  35.8641 S.o2           1 <1>                0.0000
     13 O13         30.2996  36.9793  34.9905 O.2            1 <1>                0.0000
     14 O14         31.6212  38.8676  35.9576 O.2            1 <1>                0.0000
     15 Cl15        33.0135  36.5321  35.3854 Cl             1 <1>                0.0000
     16 H16         26.1447  38.1218  41.6377 H              1 <1>                0.0000
     17 H17         25.5385  37.9654  39.9715 H              1 <1>                0.0000
     18 H18         24.4927  37.5282  41.3438 H              1 <1>                0.0000
     19 H19         26.0211  35.6607  41.9137 H              1 <1>                0.0000
     20 H20         25.4149  35.5043  40.2475 H              1 <1>                0.0000
     21 H21         28.6537  35.4406  37.5727 H              1 <1>                0.0000
     22 H22         30.0287  35.9787  40.2445 H              1 <1>                0.0000
     23 H23         29.2891  34.4344  39.7591 H              1 <1>                0.0000
     24 H24         31.7286  34.3886  39.3641 H              1 <1>                0.0000
     25 H25         30.8454  34.3136  37.8198 H              1 <1>                0.0000
     26 H26         32.1237  36.7893  39.0694 H              1 <1>                0.0000
     27 H27         32.6728  35.9298  37.6076 H              1 <1>                0.0000
     28 H28         28.9595  37.8399  37.1885 H              1 <1>                0.0000
     29 H29         29.7041  38.0340  38.7963 H              1 <1>                0.0000
@<TRIPOS>BOND
    1    1    2 1     
    2    1   16 1     
    3    1   17 1     
    4    1   18 1     
    5    2    3 1     
    6    2   19 1     
    7    2   20 1     
    8    3    4 1     
    9    4    5 2     
   10    4    6 1     
   11    6    7 1     
   12    6   11 1     
   13    6   21 1     
   14    7    8 1     
   15    7   22 1     
   16    7   23 1     
   17    8    9 1     
   18    8   24 1     
   19    8   25 1     
   20    9   10 1     
   21    9   26 1     
   22    9   27 1     
   23   10   11 1     
   24   10   12 1     
   25   11   28 1     
   26   11   29 1     
   27   12   13 2     
   28   12   14 2     
   29   12   15 1     
@<TRIPOS>SUBSTRUCTURE
      1 ****           1
@<TRIPOS>COMMENT
> <Gold.Version>
2022.2.0

> <Gold.Id.Protein>
1qkm|1qkm_protein|mol2

> <Gold.Protein.RotatedTorsions>
[  496  491  490  487 ] final  128.55 input  -89.99 | X-H torsion

> <Gold.Protein.ActiveResidues>
 MET295  LEU298  THR299  LEU301  ALA302  GLU305  TRP335  MET336  LEU339  MET340 
 GLY342  LEU343  ARG346  PHE356  ILE373  ILE376  PHE377  LEU380  LYS471  GLY472 
 MET473  HIS475  LEU476  LEU477  ASN478  MET479  VAL484  VAL487 

> <Gold.Protein.RotatedAtoms>
   37.1431   32.9654   41.4948 H   0  0  0  0  0  0  0  0  0  0  0  0  # atno 496  bound_to 491 

> <Gold.Score>
     Score     S(PLP)   S(hbond)     S(cho)   S(metal)  DE(clash)   DE(tors)     intcor
     42.05     -43.11       0.00       0.00       0.00       0.00       1.52       1.99

> <Gold.PLP.Fitness>
42.0520

> <Gold.PLP.PLP>
-43.1127

> <Gold.PLP.part.hbond>
0.0000

> <Gold.PLP.part.metal>
0.0000

> <Gold.PLP.part.buried>
-4.7832

> <Gold.PLP.part.nonpolar>
-38.9330

> <Gold.PLP.part.repulsive>
0.1481

> <Gold.PLP.ligand.clash>
0.0000

> <Gold.PLP.ligand.torsion>
1.5238

> <Gold.PLP.Chemscore.Hbond>
0.0000

> <Gold.PLP.Chemscore.CHOScore>
0.0000

> <Gold.PLP.Chemscore.Metal>
0.0000

> <Gold.PLP.Chemscore.Internal.Correction>
1.9868

