#       Name:                EN300-29226_i001
#       Creating user name   aseyller
#       Creation time:       Fri Apr 21 16:41:26 2023


#       File generated by GOLD software.
#

@<TRIPOS>MOLECULE
EN300-29226_i001|Sulfonylchlorides|mol2|60|dock13
    29    29     1
SMALL
USER_CHARGES


@<TRIPOS>ATOM
      1 C1          25.5361  37.5631  41.2939 C.3            1 <1>                0.0000
      2 C2          25.8042  36.1110  40.8935 C.3            1 <1>                0.0000
      3 O3          27.1646  35.9880  40.4009 O.3            1 <1>                0.0000
      4 C4          27.4238  36.5079  39.1909 C.2            1 <1>                0.0000
      5 O5          26.6354  37.2660  38.6775 O.2            1 <1>                0.0000
      6 C6          28.6983  36.1460  38.4726 C.3            1 <1>                0.0000
      7 C7          29.5464  35.2362  39.3641 C.3            1 <1>                0.0000
      8 C8          30.8259  34.8415  38.6227 C.3            1 <1>                0.0000
      9 C9          31.6375  36.1018  38.3068 C.3            1 <1>                0.0000
     10 N10         30.7814  37.0442  37.5735 N.pl3          1 <1>                0.0000
     11 C11         29.4858  37.4210  38.1549 C.3            1 <1>                0.0000
     12 S12         31.2675  37.6697  36.1193 S.o2           1 <1>                0.0000
     13 O13         32.6784  37.8199  36.1987 O.2            1 <1>                0.0000
     14 O14         30.6234  36.8978  35.1150 O.2            1 <1>                0.0000
     15 Cl15        30.5021  39.5340  35.9843 Cl             1 <1>                0.0000
     16 H16         26.2342  37.8589  42.0770 H              1 <1>                0.0000
     17 H17         25.6681  38.2095  40.4263 H              1 <1>                0.0000
     18 H18         24.5150  37.6555  41.6638 H              1 <1>                0.0000
     19 H19         25.6722  35.4645  41.7613 H              1 <1>                0.0000
     20 H20         25.1061  35.8151  40.1106 H              1 <1>                0.0000
     21 H21         28.4582  35.6257  37.5454 H              1 <1>                0.0000
     22 H22         29.8065  35.7658  40.2806 H              1 <1>                0.0000
     23 H23         28.9790  34.3391  39.6118 H              1 <1>                0.0000
     24 H24         31.4183  34.1748  39.2493 H              1 <1>                0.0000
     25 H25         30.5662  34.3337  37.6939 H              1 <1>                0.0000
     26 H26         31.9749  36.5615  39.2358 H              1 <1>                0.0000
     27 H27         32.4989  35.8374  37.6935 H              1 <1>                0.0000
     28 H28         28.9275  38.0271  37.4415 H              1 <1>                0.0000
     29 H29         29.6478  37.9884  39.0715 H              1 <1>                0.0000
@<TRIPOS>BOND
    1    1    2 1     
    2    1   16 1     
    3    1   17 1     
    4    1   18 1     
    5    2    3 1     
    6    2   19 1     
    7    2   20 1     
    8    3    4 1     
    9    4    5 2     
   10    4    6 1     
   11    6    7 1     
   12    6   11 1     
   13    6   21 1     
   14    7    8 1     
   15    7   22 1     
   16    7   23 1     
   17    8    9 1     
   18    8   24 1     
   19    8   25 1     
   20    9   10 1     
   21    9   26 1     
   22    9   27 1     
   23   10   11 1     
   24   10   12 1     
   25   11   28 1     
   26   11   29 1     
   27   12   13 2     
   28   12   14 2     
   29   12   15 1     
@<TRIPOS>SUBSTRUCTURE
      1 ****           1
@<TRIPOS>COMMENT
> <Gold.Version>
2022.2.0

> <Gold.Id.Protein>
1qkm|1qkm_protein|mol2

> <Gold.Protein.RotatedTorsions>
[  496  491  490  487 ] final  110.02 input  -89.99 | X-H torsion

> <Gold.Protein.ActiveResidues>
 MET295  LEU298  THR299  LEU301  ALA302  GLU305  TRP335  MET336  LEU339  MET340 
 GLY342  LEU343  ARG346  PHE356  ILE373  ILE376  PHE377  LEU380  LYS471  GLY472 
 MET473  HIS475  LEU476  LEU477  ASN478  MET479  VAL484  VAL487 

> <Gold.Protein.RotatedAtoms>
   36.9995   32.9425   41.7613 H   0  0  0  0  0  0  0  0  0  0  0  0  # atno 496  bound_to 491 

> <Gold.Score>
     Score     S(PLP)   S(hbond)     S(cho)   S(metal)  DE(clash)   DE(tors)     intcor
     41.49     -42.34       0.00       0.00       0.00       0.00       1.42       1.99

> <Gold.PLP.Fitness>
41.4922

> <Gold.PLP.PLP>
-42.3406

> <Gold.PLP.part.hbond>
0.0000

> <Gold.PLP.part.metal>
0.0000

> <Gold.PLP.part.buried>
-3.8320

> <Gold.PLP.part.nonpolar>
-38.8593

> <Gold.PLP.part.repulsive>
0.1933

> <Gold.PLP.ligand.clash>
0.0000

> <Gold.PLP.ligand.torsion>
1.4176

> <Gold.PLP.Chemscore.Hbond>
0.0000

> <Gold.PLP.Chemscore.CHOScore>
0.0000

> <Gold.PLP.Chemscore.Metal>
0.0000

> <Gold.PLP.Chemscore.Internal.Correction>
1.9868

