#       Name:                EN300-29226_i001
#       Creating user name   aseyller
#       Creation time:       Fri Apr 21 16:41:23 2023


#       File generated by GOLD software.
#

@<TRIPOS>MOLECULE
EN300-29226_i001|Sulfonylchlorides|mol2|60|dock9
    29    29     1
SMALL
USER_CHARGES


@<TRIPOS>ATOM
      1 C1          25.5114  37.0040  41.1915 C.3            1 <1>                0.0000
      2 C2          26.7526  36.1992  40.8010 C.3            1 <1>                0.0000
      3 O3          27.4232  36.8521  39.6907 O.3            1 <1>                0.0000
      4 C4          28.7378  36.6197  39.5511 C.2            1 <1>                0.0000
      5 O5          29.2965  35.8457  40.2918 O.2            1 <1>                0.0000
      6 C6          29.5169  37.3241  38.4703 C.3            1 <1>                0.0000
      7 C7          28.5773  38.2298  37.6710 C.3            1 <1>                0.0000
      8 C8          29.3737  38.9704  36.5943 C.3            1 <1>                0.0000
      9 C9          29.9963  37.9519  35.6341 C.3            1 <1>                0.0000
     10 N10         30.7860  36.9887  36.4133 N.pl3          1 <1>                0.0000
     11 C11         30.1411  36.2869  37.5315 C.3            1 <1>                0.0000
     12 S12         32.3730  36.6996  36.0385 S.o2           1 <1>                0.0000
     13 O13         32.4020  35.4592  35.3457 O.2            1 <1>                0.0000
     14 O14         32.8824  37.9078  35.4908 O.2            1 <1>                0.0000
     15 Cl15        33.3543  36.4041  37.7791 Cl             1 <1>                0.0000
     16 H16         25.8089  38.0100  41.4875 H              1 <1>                0.0000
     17 H17         24.8330  37.0614  40.3404 H              1 <1>                0.0000
     18 H18         25.0081  36.5141  42.0250 H              1 <1>                0.0000
     19 H19         27.4312  36.1419  41.6522 H              1 <1>                0.0000
     20 H20         26.4552  35.1933  40.5051 H              1 <1>                0.0000
     21 H21         30.3046  37.9261  38.9233 H              1 <1>                0.0000
     22 H22         27.8040  37.6242  37.1986 H              1 <1>                0.0000
     23 H23         28.1130  38.9532  38.3412 H              1 <1>                0.0000
     24 H24         28.7082  39.6328  36.0406 H              1 <1>                0.0000
     25 H25         30.1630  39.5569  37.0644 H              1 <1>                0.0000
     26 H26         29.2069  37.4269  35.0962 H              1 <1>                0.0000
     27 H27         30.6443  38.4670  34.9250 H              1 <1>                0.0000
     28 H28         30.8847  35.7034  38.0742 H              1 <1>                0.0000
     29 H29         29.3635  35.6260  37.1483 H              1 <1>                0.0000
@<TRIPOS>BOND
    1    1    2 1     
    2    1   16 1     
    3    1   17 1     
    4    1   18 1     
    5    2    3 1     
    6    2   19 1     
    7    2   20 1     
    8    3    4 1     
    9    4    5 2     
   10    4    6 1     
   11    6    7 1     
   12    6   11 1     
   13    6   21 1     
   14    7    8 1     
   15    7   22 1     
   16    7   23 1     
   17    8    9 1     
   18    8   24 1     
   19    8   25 1     
   20    9   10 1     
   21    9   26 1     
   22    9   27 1     
   23   10   11 1     
   24   10   12 1     
   25   11   28 1     
   26   11   29 1     
   27   12   13 2     
   28   12   14 2     
   29   12   15 1     
@<TRIPOS>SUBSTRUCTURE
      1 ****           1
@<TRIPOS>COMMENT
> <Gold.Version>
2022.2.0

> <Gold.Id.Protein>
1qkm|1qkm_protein|mol2

> <Gold.Protein.RotatedTorsions>
[  496  491  490  487 ] final  169.83 input  -89.99 | X-H torsion

> <Gold.Protein.ActiveResidues>
 MET295  LEU298  THR299  LEU301  ALA302  GLU305  TRP335  MET336  LEU339  MET340 
 GLY342  LEU343  ARG346  PHE356  ILE373  ILE376  PHE377  LEU380  LYS471  GLY472 
 MET473  HIS475  LEU476  LEU477  ASN478  MET479  VAL484  VAL487 

> <Gold.Protein.RotatedAtoms>
   37.3151   33.3235   40.9616 H   0  0  0  0  0  0  0  0  0  0  0  0  # atno 496  bound_to 491 

> <Gold.Score>
     Score     S(PLP)   S(hbond)     S(cho)   S(metal)  DE(clash)   DE(tors)     intcor
     40.25     -40.90       0.00       0.00       0.00       0.00       1.32       1.99

> <Gold.PLP.Fitness>
40.2535

> <Gold.PLP.PLP>
-40.9035

> <Gold.PLP.part.hbond>
0.0000

> <Gold.PLP.part.metal>
0.0000

> <Gold.PLP.part.buried>
-4.8810

> <Gold.PLP.part.nonpolar>
-36.8278

> <Gold.PLP.part.repulsive>
0.2703

> <Gold.PLP.ligand.clash>
0.0000

> <Gold.PLP.ligand.torsion>
1.3184

> <Gold.PLP.Chemscore.Hbond>
0.0000

> <Gold.PLP.Chemscore.CHOScore>
0.0000

> <Gold.PLP.Chemscore.Metal>
0.0000

> <Gold.PLP.Chemscore.Internal.Correction>
1.9868

