#       Name:                EN300-29226_i001
#       Creating user name   aseyller
#       Creation time:       Fri Apr 21 16:41:32 2023


#       File generated by GOLD software.
#

@<TRIPOS>MOLECULE
EN300-29226_i001|Sulfonylchlorides|mol2|60|dock19
    29    29     1
SMALL
USER_CHARGES


@<TRIPOS>ATOM
      1 C1          26.0738  36.9176  40.2072 C.3            1 <1>                0.0000
      2 C2          26.7268  35.9439  39.2241 C.3            1 <1>                0.0000
      3 O3          27.9907  36.4930  38.7664 O.3            1 <1>                0.0000
      4 C4          27.9402  37.6372  38.0664 C.2            1 <1>                0.0000
      5 O5          26.8823  38.1964  37.8982 O.2            1 <1>                0.0000
      6 C6          29.2029  38.2246  37.4904 C.3            1 <1>                0.0000
      7 C7          28.8584  39.4669  36.6658 C.3            1 <1>                0.0000
      8 C8          30.1433  40.0829  36.1073 C.3            1 <1>                0.0000
      9 C9          30.8336  39.0693  35.1892 C.3            1 <1>                0.0000
     10 N10         31.0378  37.8193  35.9337 N.pl3          1 <1>                0.0000
     11 C11         29.8825  37.1899  36.5880 C.3            1 <1>                0.0000
     12 S12         32.5415  37.1326  36.0336 S.o2           1 <1>                0.0000
     13 O13         33.2834  37.6290  34.9280 O.2            1 <1>                0.0000
     14 O14         32.9624  37.2830  37.3825 O.2            1 <1>                0.0000
     15 Cl15        32.3150  35.1494  35.7244 Cl             1 <1>                0.0000
     16 H16         26.7343  37.0695  41.0608 H              1 <1>                0.0000
     17 H17         25.8969  37.8715  39.7103 H              1 <1>                0.0000
     18 H18         25.1251  36.5054  40.5508 H              1 <1>                0.0000
     19 H19         26.9038  34.9899  39.7209 H              1 <1>                0.0000
     20 H20         26.0663  35.7919  38.3705 H              1 <1>                0.0000
     21 H21         29.8779  38.5010  38.3002 H              1 <1>                0.0000
     22 H22         28.2027  39.1856  35.8418 H              1 <1>                0.0000
     23 H23         28.3525  40.1949  37.2999 H              1 <1>                0.0000
     24 H24         29.8993  40.9809  35.5396 H              1 <1>                0.0000
     25 H25         30.8099  40.3418  36.9299 H              1 <1>                0.0000
     26 H26         30.2060  38.8780  34.3189 H              1 <1>                0.0000
     27 H27         31.7972  39.4647  34.8677 H              1 <1>                0.0000
     28 H28         30.2185  36.3452  37.1893 H              1 <1>                0.0000
     29 H29         29.1773  36.8452  35.8316 H              1 <1>                0.0000
@<TRIPOS>BOND
    1    1    2 1     
    2    1   16 1     
    3    1   17 1     
    4    1   18 1     
    5    2    3 1     
    6    2   19 1     
    7    2   20 1     
    8    3    4 1     
    9    4    5 2     
   10    4    6 1     
   11    6    7 1     
   12    6   11 1     
   13    6   21 1     
   14    7    8 1     
   15    7   22 1     
   16    7   23 1     
   17    8    9 1     
   18    8   24 1     
   19    8   25 1     
   20    9   10 1     
   21    9   26 1     
   22    9   27 1     
   23   10   11 1     
   24   10   12 1     
   25   11   28 1     
   26   11   29 1     
   27   12   13 2     
   28   12   14 2     
   29   12   15 1     
@<TRIPOS>SUBSTRUCTURE
      1 ****           1
@<TRIPOS>COMMENT
> <Gold.Version>
2022.2.0

> <Gold.Id.Protein>
1qkm|1qkm_protein|mol2

> <Gold.Protein.RotatedTorsions>
[  496  491  490  487 ] final  -78.79 input  -89.99 | X-H torsion

> <Gold.Protein.ActiveResidues>
 MET295  LEU298  THR299  LEU301  ALA302  GLU305  TRP335  MET336  LEU339  MET340 
 GLY342  LEU343  ARG346  PHE356  ILE373  ILE376  PHE377  LEU380  LYS471  GLY472 
 MET473  HIS475  LEU476  LEU477  ASN478  MET479  VAL484  VAL487 

> <Gold.Protein.RotatedAtoms>
   36.6551   34.7108   41.2212 H   0  0  0  0  0  0  0  0  0  0  0  0  # atno 496  bound_to 491 

> <Gold.Score>
     Score     S(PLP)   S(hbond)     S(cho)   S(metal)  DE(clash)   DE(tors)     intcor
     39.71     -40.07       0.00       0.00       0.00       0.00       1.17       1.99

> <Gold.PLP.Fitness>
39.7091

> <Gold.PLP.PLP>
-40.0680

> <Gold.PLP.part.hbond>
0.0000

> <Gold.PLP.part.metal>
0.0000

> <Gold.PLP.part.buried>
-2.5346

> <Gold.PLP.part.nonpolar>
-38.1630

> <Gold.PLP.part.repulsive>
0.1450

> <Gold.PLP.ligand.clash>
0.0000

> <Gold.PLP.ligand.torsion>
1.1728

> <Gold.PLP.Chemscore.Hbond>
0.0000

> <Gold.PLP.Chemscore.CHOScore>
0.0000

> <Gold.PLP.Chemscore.Metal>
0.0000

> <Gold.PLP.Chemscore.Internal.Correction>
1.9868

