#       Name:                EN300-29226_i001
#       Creating user name   aseyller
#       Creation time:       Fri Apr 21 16:41:33 2023


#       File generated by GOLD software.
#

@<TRIPOS>MOLECULE
EN300-29226_i001|Sulfonylchlorides|mol2|60|dock20
    29    29     1
SMALL
USER_CHARGES


@<TRIPOS>ATOM
      1 C1          25.4477  36.4110  40.9822 C.3            1 <1>                0.0000
      2 C2          25.8336  37.5819  40.0762 C.3            1 <1>                0.0000
      3 O3          26.8311  37.1430  39.1166 O.3            1 <1>                0.0000
      4 C4          28.0016  36.7090  39.6099 C.2            1 <1>                0.0000
      5 O5          28.1801  36.6794  40.8045 O.2            1 <1>                0.0000
      6 C6          29.0933  36.2585  38.6736 C.3            1 <1>                0.0000
      7 C7          30.0212  35.2839  39.4023 C.3            1 <1>                0.0000
      8 C8          31.1111  34.8006  38.4427 C.3            1 <1>                0.0000
      9 C9          31.9413  35.9996  37.9737 C.3            1 <1>                0.0000
     10 N10         31.0369  37.0063  37.4017 N.pl3          1 <1>                0.0000
     11 C11         29.9005  37.4741  38.2072 C.3            1 <1>                0.0000
     12 S12         31.2933  37.6025  35.8782 S.o2           1 <1>                0.0000
     13 O13         30.3200  36.9942  35.0403 O.2            1 <1>                0.0000
     14 O14         31.4297  39.0102  36.0159 O.2            1 <1>                0.0000
     15 Cl15        33.0887  36.9131  35.2606 Cl             1 <1>                0.0000
     16 H16         25.0383  35.6025  40.3766 H              1 <1>                0.0000
     17 H17         26.3310  36.0560  41.5131 H              1 <1>                0.0000
     18 H18         24.6988  36.7403  41.7025 H              1 <1>                0.0000
     19 H19         24.9502  37.9369  39.5452 H              1 <1>                0.0000
     20 H20         26.2429  38.3904  40.6817 H              1 <1>                0.0000
     21 H21         28.6502  35.7624  37.8101 H              1 <1>                0.0000
     22 H22         30.4826  35.7879  40.2515 H              1 <1>                0.0000
     23 H23         29.4445  34.4296  39.7567 H              1 <1>                0.0000
     24 H24         31.7578  34.0887  38.9557 H              1 <1>                0.0000
     25 H25         30.6495  34.3183  37.5812 H              1 <1>                0.0000
     26 H26         32.4757  36.4281  38.8216 H              1 <1>                0.0000
     27 H27         32.6543  35.6761  37.2154 H              1 <1>                0.0000
     28 H28         29.2671  38.1234  37.6029 H              1 <1>                0.0000
     29 H29         30.2685  38.0229  39.0741 H              1 <1>                0.0000
@<TRIPOS>BOND
    1    1    2 1     
    2    1   16 1     
    3    1   17 1     
    4    1   18 1     
    5    2    3 1     
    6    2   19 1     
    7    2   20 1     
    8    3    4 1     
    9    4    5 2     
   10    4    6 1     
   11    6    7 1     
   12    6   11 1     
   13    6   21 1     
   14    7    8 1     
   15    7   22 1     
   16    7   23 1     
   17    8    9 1     
   18    8   24 1     
   19    8   25 1     
   20    9   10 1     
   21    9   26 1     
   22    9   27 1     
   23   10   11 1     
   24   10   12 1     
   25   11   28 1     
   26   11   29 1     
   27   12   13 2     
   28   12   14 2     
   29   12   15 1     
@<TRIPOS>SUBSTRUCTURE
      1 ****           1
@<TRIPOS>COMMENT
> <Gold.Version>
2022.2.0

> <Gold.Id.Protein>
1qkm|1qkm_protein|mol2

> <Gold.Protein.RotatedTorsions>
[  496  491  490  487 ] final -173.48 input  -89.99 | X-H torsion

> <Gold.Protein.ActiveResidues>
 MET295  LEU298  THR299  LEU301  ALA302  GLU305  TRP335  MET336  LEU339  MET340 
 GLY342  LEU343  ARG346  PHE356  ILE373  ILE376  PHE377  LEU380  LYS471  GLY472 
 MET473  HIS475  LEU476  LEU477  ASN478  MET479  VAL484  VAL487 

> <Gold.Protein.RotatedAtoms>
   37.3109   33.5567   40.8182 H   0  0  0  0  0  0  0  0  0  0  0  0  # atno 496  bound_to 491 

> <Gold.Score>
     Score     S(PLP)   S(hbond)     S(cho)   S(metal)  DE(clash)   DE(tors)     intcor
     42.00     -43.91       0.00       0.00       0.00       0.00       1.95       1.99

> <Gold.PLP.Fitness>
41.9952

> <Gold.PLP.PLP>
-43.9082

> <Gold.PLP.part.hbond>
0.0000

> <Gold.PLP.part.metal>
0.0000

> <Gold.PLP.part.buried>
-3.9054

> <Gold.PLP.part.nonpolar>
-40.4154

> <Gold.PLP.part.repulsive>
0.1642

> <Gold.PLP.ligand.clash>
0.0000

> <Gold.PLP.ligand.torsion>
1.9499

> <Gold.PLP.Chemscore.Hbond>
0.0000

> <Gold.PLP.Chemscore.CHOScore>
0.0000

> <Gold.PLP.Chemscore.Metal>
0.0000

> <Gold.PLP.Chemscore.Internal.Correction>
1.9868

