#       Name:                EN300-29226_i001
#       Creating user name   aseyller
#       Creation time:       Fri Apr 21 16:41:29 2023


#       File generated by GOLD software.
#

@<TRIPOS>MOLECULE
EN300-29226_i001|Sulfonylchlorides|mol2|60|dock16
    29    29     1
SMALL
USER_CHARGES


@<TRIPOS>ATOM
      1 C1          25.6587  37.2982  40.6387 C.3            1 <1>                0.0000
      2 C2          25.5372  37.1985  39.1168 C.3            1 <1>                0.0000
      3 O3          26.7529  37.6989  38.5004 O.3            1 <1>                0.0000
      4 C4          27.8934  37.0532  38.7902 C.2            1 <1>                0.0000
      5 O5          27.8743  36.0918  39.5218 O.2            1 <1>                0.0000
      6 C6          29.1979  37.5274  38.2030 C.3            1 <1>                0.0000
      7 C7          28.9426  38.7382  37.3026 C.3            1 <1>                0.0000
      8 C8          30.2707  39.2407  36.7318 C.3            1 <1>                0.0000
      9 C9          30.9091  38.1348  35.8855 C.3            1 <1>                0.0000
     10 N10         31.0251  36.9202  36.7040 N.pl3          1 <1>                0.0000
     11 C11         29.8241  36.4021  37.3734 C.3            1 <1>                0.0000
     12 S12         32.4816  36.1498  36.8690 S.o2           1 <1>                0.0000
     13 O13         32.9926  35.9721  35.5549 O.2            1 <1>                0.0000
     14 O14         33.1875  36.8406  37.8906 O.2            1 <1>                0.0000
     15 Cl15        32.1021  34.3008  37.5882 Cl             1 <1>                0.0000
     16 H16         26.5080  36.7036  40.9751 H              1 <1>                0.0000
     17 H17         25.8085  38.3395  40.9238 H              1 <1>                0.0000
     18 H18         24.7462  36.9225  41.1015 H              1 <1>                0.0000
     19 H19         25.3874  36.1570  38.8318 H              1 <1>                0.0000
     20 H20         24.6878  37.7929  38.7804 H              1 <1>                0.0000
     21 H21         29.8778  37.8088  39.0071 H              1 <1>                0.0000
     22 H22         28.2819  38.4499  36.4850 H              1 <1>                0.0000
     23 H23         28.4744  39.5317  37.8851 H              1 <1>                0.0000
     24 H24         30.0907  40.1172  36.1093 H              1 <1>                0.0000
     25 H25         30.9410  39.5058  37.5494 H              1 <1>                0.0000
     26 H26         30.2826  37.9317  35.0169 H              1 <1>                0.0000
     27 H27         31.8997  38.4509  35.5583 H              1 <1>                0.0000
     28 H28         30.0988  35.5750  38.0280 H              1 <1>                0.0000
     29 H29         29.1092  36.0576  36.6262 H              1 <1>                0.0000
@<TRIPOS>BOND
    1    1    2 1     
    2    1   16 1     
    3    1   17 1     
    4    1   18 1     
    5    2    3 1     
    6    2   19 1     
    7    2   20 1     
    8    3    4 1     
    9    4    5 2     
   10    4    6 1     
   11    6    7 1     
   12    6   11 1     
   13    6   21 1     
   14    7    8 1     
   15    7   22 1     
   16    7   23 1     
   17    8    9 1     
   18    8   24 1     
   19    8   25 1     
   20    9   10 1     
   21    9   26 1     
   22    9   27 1     
   23   10   11 1     
   24   10   12 1     
   25   11   28 1     
   26   11   29 1     
   27   12   13 2     
   28   12   14 2     
   29   12   15 1     
@<TRIPOS>SUBSTRUCTURE
      1 ****           1
@<TRIPOS>COMMENT
> <Gold.Version>
2022.2.0

> <Gold.Id.Protein>
1qkm|1qkm_protein|mol2

> <Gold.Protein.RotatedTorsions>
[  496  491  490  487 ] final  177.92 input  -89.99 | X-H torsion

> <Gold.Protein.ActiveResidues>
 MET295  LEU298  THR299  LEU301  ALA302  GLU305  TRP335  MET336  LEU339  MET340 
 GLY342  LEU343  ARG346  PHE356  ILE373  ILE376  PHE377  LEU380  LYS471  GLY472 
 MET473  HIS475  LEU476  LEU477  ASN478  MET479  VAL484  VAL487 

> <Gold.Protein.RotatedAtoms>
   37.3186   33.4323   40.8850 H   0  0  0  0  0  0  0  0  0  0  0  0  # atno 496  bound_to 491 

> <Gold.Score>
     Score     S(PLP)   S(hbond)     S(cho)   S(metal)  DE(clash)   DE(tors)     intcor
     41.22     -41.72       0.00       0.00       0.00       0.00       1.24       1.99

> <Gold.PLP.Fitness>
41.2188

> <Gold.PLP.PLP>
-41.7167

> <Gold.PLP.part.hbond>
0.0000

> <Gold.PLP.part.metal>
0.0000

> <Gold.PLP.part.buried>
-2.0016

> <Gold.PLP.part.nonpolar>
-39.9203

> <Gold.PLP.part.repulsive>
0.1363

> <Gold.PLP.ligand.clash>
0.0000

> <Gold.PLP.ligand.torsion>
1.2423

> <Gold.PLP.Chemscore.Hbond>
0.0000

> <Gold.PLP.Chemscore.CHOScore>
0.0000

> <Gold.PLP.Chemscore.Metal>
0.0000

> <Gold.PLP.Chemscore.Internal.Correction>
1.9868

