#       Name:                EN300-29226_i001
#       Creating user name   aseyller
#       Creation time:       Fri Apr 21 16:41:31 2023


#       File generated by GOLD software.
#

@<TRIPOS>MOLECULE
EN300-29226_i001|Sulfonylchlorides|mol2|60|dock18
    29    29     1
SMALL
USER_CHARGES


@<TRIPOS>ATOM
      1 C1          25.5001  37.3868  39.3102 C.3            1 <1>                0.0000
      2 C2          26.7131  36.7658  40.0058 C.3            1 <1>                0.0000
      3 O3          27.7972  36.6212  39.0506 O.3            1 <1>                0.0000
      4 C4          28.8666  35.9125  39.4454 C.2            1 <1>                0.0000
      5 O5          29.0010  35.6195  40.6099 O.2            1 <1>                0.0000
      6 C6          29.8998  35.4822  38.4361 C.3            1 <1>                0.0000
      7 C7          30.8397  34.4561  39.0730 C.3            1 <1>                0.0000
      8 C8          31.8692  33.9940  38.0392 C.3            1 <1>                0.0000
      9 C9          32.7029  35.1953  37.5826 C.3            1 <1>                0.0000
     10 N10         31.7950  36.2459  37.1022 N.pl3          1 <1>                0.0000
     11 C11         30.7112  36.7004  37.9840 C.3            1 <1>                0.0000
     12 S12         31.9896  36.9052  35.5956 S.o2           1 <1>                0.0000
     13 O13         33.2401  36.4357  35.1107 O.2            1 <1>                0.0000
     14 O14         30.7631  36.7020  34.9072 O.2            1 <1>                0.0000
     15 Cl15        32.1842  38.9012  35.8369 Cl             1 <1>                0.0000
     16 H16         25.7697  38.3664  38.9155 H              1 <1>                0.0000
     17 H17         25.1801  36.7410  38.4925 H              1 <1>                0.0000
     18 H18         24.6863  37.4954  40.0271 H              1 <1>                0.0000
     19 H19         27.0331  37.4116  40.8236 H              1 <1>                0.0000
     20 H20         26.4436  35.7862  40.4005 H              1 <1>                0.0000
     21 H21         29.4031  35.0353  37.5749 H              1 <1>                0.0000
     22 H22         31.3541  34.9111  39.9195 H              1 <1>                0.0000
     23 H23         30.2615  33.5989  39.4179 H              1 <1>                0.0000
     24 H24         32.5237  33.2460  38.4868 H              1 <1>                0.0000
     25 H25         31.3544  33.5613  37.1815 H              1 <1>                0.0000
     26 H26         33.2884  35.5735  38.4206 H              1 <1>                0.0000
     27 H27         33.3698  34.8917  36.7756 H              1 <1>                0.0000
     28 H28         30.0639  37.3898  37.4419 H              1 <1>                0.0000
     29 H29         31.1343  37.2013  38.8547 H              1 <1>                0.0000
@<TRIPOS>BOND
    1    1    2 1     
    2    1   16 1     
    3    1   17 1     
    4    1   18 1     
    5    2    3 1     
    6    2   19 1     
    7    2   20 1     
    8    3    4 1     
    9    4    5 2     
   10    4    6 1     
   11    6    7 1     
   12    6   11 1     
   13    6   21 1     
   14    7    8 1     
   15    7   22 1     
   16    7   23 1     
   17    8    9 1     
   18    8   24 1     
   19    8   25 1     
   20    9   10 1     
   21    9   26 1     
   22    9   27 1     
   23   10   11 1     
   24   10   12 1     
   25   11   28 1     
   26   11   29 1     
   27   12   13 2     
   28   12   14 2     
   29   12   15 1     
@<TRIPOS>SUBSTRUCTURE
      1 ****           1
@<TRIPOS>COMMENT
> <Gold.Version>
2022.2.0

> <Gold.Id.Protein>
1qkm|1qkm_protein|mol2

> <Gold.Protein.RotatedTorsions>
[  496  491  490  487 ] final   50.67 input  -89.99 | X-H torsion

> <Gold.Protein.ActiveResidues>
 MET295  LEU298  THR299  LEU301  ALA302  GLU305  TRP335  MET336  LEU339  MET340 
 GLY342  LEU343  ARG346  PHE356  ILE373  ILE376  PHE377  LEU380  LYS471  GLY472 
 MET473  HIS475  LEU476  LEU477  ASN478  MET479  VAL484  VAL487 

> <Gold.Protein.RotatedAtoms>
   36.4778   33.4450   42.3509 H   0  0  0  0  0  0  0  0  0  0  0  0  # atno 496  bound_to 491 

> <Gold.Score>
     Score     S(PLP)   S(hbond)     S(cho)   S(metal)  DE(clash)   DE(tors)     intcor
     40.80     -41.79       0.00       0.00       0.00       0.00       1.49       1.99

> <Gold.PLP.Fitness>
40.7983

> <Gold.PLP.PLP>
-41.7920

> <Gold.PLP.part.hbond>
0.0000

> <Gold.PLP.part.metal>
0.0000

> <Gold.PLP.part.buried>
-5.0391

> <Gold.PLP.part.nonpolar>
-37.2662

> <Gold.PLP.part.repulsive>
0.3376

> <Gold.PLP.ligand.clash>
0.0000

> <Gold.PLP.ligand.torsion>
1.4903

> <Gold.PLP.Chemscore.Hbond>
0.0000

> <Gold.PLP.Chemscore.CHOScore>
0.0000

> <Gold.PLP.Chemscore.Metal>
0.0000

> <Gold.PLP.Chemscore.Internal.Correction>
1.9868

