#       Name:                EN300-29226_i001
#       Creating user name   aseyller
#       Creation time:       Fri Apr 21 16:41:18 2023


#       File generated by GOLD software.
#

@<TRIPOS>MOLECULE
EN300-29226_i001|Sulfonylchlorides|mol2|60|dock4
    29    29     1
SMALL
USER_CHARGES


@<TRIPOS>ATOM
      1 C1          25.9106  36.9067  40.8292 C.3            1 <1>                0.0000
      2 C2          26.2011  37.1892  39.3538 C.3            1 <1>                0.0000
      3 O3          27.1413  36.2048  38.8486 O.3            1 <1>                0.0000
      4 C4          28.4062  36.2874  39.2902 C.2            1 <1>                0.0000
      5 O5          28.6336  36.7248  40.3933 O.2            1 <1>                0.0000
      6 C6          29.5427  35.8344  38.4103 C.3            1 <1>                0.0000
      7 C7          30.3277  34.7282  39.1188 C.3            1 <1>                0.0000
      8 C8          31.4622  34.2448  38.2125 C.3            1 <1>                0.0000
      9 C9          32.4162  35.4096  37.9298 C.3            1 <1>                0.0000
     10 N10         31.6426  36.5321  37.3817 N.pl3          1 <1>                0.0000
     11 C11         30.4748  37.0173  38.1298 C.3            1 <1>                0.0000
     12 S12         32.0786  37.2370  35.9481 S.o2           1 <1>                0.0000
     13 O13         32.6425  38.4993  36.2768 O.2            1 <1>                0.0000
     14 O14         32.7750  36.2437  35.2080 O.2            1 <1>                0.0000
     15 Cl15        30.3776  37.6202  34.9284 Cl             1 <1>                0.0000
     16 H16         25.4823  35.9096  40.9308 H              1 <1>                0.0000
     17 H17         26.8377  36.9638  41.3994 H              1 <1>                0.0000
     18 H18         25.2047  37.6456  41.2085 H              1 <1>                0.0000
     19 H19         25.2738  37.1322  38.7835 H              1 <1>                0.0000
     20 H20         26.6293  38.1863  39.2522 H              1 <1>                0.0000
     21 H21         29.1449  35.4532  37.4698 H              1 <1>                0.0000
     22 H22         30.7454  35.1170  40.0474 H              1 <1>                0.0000
     23 H23         29.6609  33.8952  39.3415 H              1 <1>                0.0000
     24 H24         32.0064  33.4409  38.7083 H              1 <1>                0.0000
     25 H25         31.0469  33.8786  37.2736 H              1 <1>                0.0000
     26 H26         32.9011  35.7178  38.8561 H              1 <1>                0.0000
     27 H27         33.1697  35.0975  37.2067 H              1 <1>                0.0000
     28 H28         29.9475  37.7660  37.5387 H              1 <1>                0.0000
     29 H29         30.8015  37.4566  39.0724 H              1 <1>                0.0000
@<TRIPOS>BOND
    1    1    2 1     
    2    1   16 1     
    3    1   17 1     
    4    1   18 1     
    5    2    3 1     
    6    2   19 1     
    7    2   20 1     
    8    3    4 1     
    9    4    5 2     
   10    4    6 1     
   11    6    7 1     
   12    6   11 1     
   13    6   21 1     
   14    7    8 1     
   15    7   22 1     
   16    7   23 1     
   17    8    9 1     
   18    8   24 1     
   19    8   25 1     
   20    9   10 1     
   21    9   26 1     
   22    9   27 1     
   23   10   11 1     
   24   10   12 1     
   25   11   28 1     
   26   11   29 1     
   27   12   13 2     
   28   12   14 2     
   29   12   15 1     
@<TRIPOS>SUBSTRUCTURE
      1 ****           1
@<TRIPOS>COMMENT
> <Gold.Version>
2022.2.0

> <Gold.Id.Protein>
1qkm|1qkm_protein|mol2

> <Gold.Protein.RotatedTorsions>
[  496  491  490  487 ] final  102.94 input  -89.99 | X-H torsion

> <Gold.Protein.ActiveResidues>
 MET295  LEU298  THR299  LEU301  ALA302  GLU305  TRP335  MET336  LEU339  MET340 
 GLY342  LEU343  ARG346  PHE356  ILE373  ILE376  PHE377  LEU380  LYS471  GLY472 
 MET473  HIS475  LEU476  LEU477  ASN478  MET479  VAL484  VAL487 

> <Gold.Protein.RotatedAtoms>
   36.9379   32.9585   41.8590 H   0  0  0  0  0  0  0  0  0  0  0  0  # atno 496  bound_to 491 

> <Gold.Score>
     Score     S(PLP)   S(hbond)     S(cho)   S(metal)  DE(clash)   DE(tors)     intcor
     42.94     -44.06       0.00       0.00       0.00       0.00       1.55       1.99

> <Gold.PLP.Fitness>
42.9376

> <Gold.PLP.PLP>
-44.0562

> <Gold.PLP.part.hbond>
0.0000

> <Gold.PLP.part.metal>
0.0000

> <Gold.PLP.part.buried>
-4.9536

> <Gold.PLP.part.nonpolar>
-40.1793

> <Gold.PLP.part.repulsive>
0.2191

> <Gold.PLP.ligand.clash>
0.0000

> <Gold.PLP.ligand.torsion>
1.5527

> <Gold.PLP.Chemscore.Hbond>
0.0000

> <Gold.PLP.Chemscore.CHOScore>
0.0000

> <Gold.PLP.Chemscore.Metal>
0.0000

> <Gold.PLP.Chemscore.Internal.Correction>
1.9868

