#       Name:                EN300-29226_i001
#       Creating user name   aseyller
#       Creation time:       Fri Apr 21 16:41:22 2023


#       File generated by GOLD software.
#

@<TRIPOS>MOLECULE
EN300-29226_i001|Sulfonylchlorides|mol2|60|dock8
    29    29     1
SMALL
USER_CHARGES


@<TRIPOS>ATOM
      1 C1          26.6122  36.9941  41.3959 C.3            1 <1>                0.0000
      2 C2          27.9435  36.3516  41.7905 C.3            1 <1>                0.0000
      3 O3          28.8926  36.4966  40.7012 O.3            1 <1>                0.0000
      4 C4          28.6329  35.8185  39.5723 C.2            1 <1>                0.0000
      5 O5          27.5340  35.3512  39.3875 O.2            1 <1>                0.0000
      6 C6          29.7117  35.6400  38.5353 C.3            1 <1>                0.0000
      7 C7          30.8213  34.7504  39.1005 C.3            1 <1>                0.0000
      8 C8          31.9017  34.5416  38.0368 C.3            1 <1>                0.0000
      9 C9          32.5117  35.8959  37.6617 C.3            1 <1>                0.0000
     10 N10         31.4314  36.8046  37.2544 N.pl3          1 <1>                0.0000
     11 C11         30.2969  37.0067  38.1659 C.3            1 <1>                0.0000
     12 S12         31.4913  37.5862  35.7957 S.o2           1 <1>                0.0000
     13 O13         30.4089  37.0818  35.0254 O.2            1 <1>                0.0000
     14 O14         31.6611  38.9667  36.0868 O.2            1 <1>                0.0000
     15 Cl15        33.1814  36.9875  34.8654 Cl             1 <1>                0.0000
     16 H16         26.7673  38.0527  41.1876 H              1 <1>                0.0000
     17 H17         26.2212  36.5020  40.5053 H              1 <1>                0.0000
     18 H18         25.8997  36.8853  42.2135 H              1 <1>                0.0000
     19 H19         28.3346  36.8437  42.6811 H              1 <1>                0.0000
     20 H20         27.7885  35.2930  41.9989 H              1 <1>                0.0000
     21 H21         29.2881  35.1728  37.6463 H              1 <1>                0.0000
     22 H22         31.2608  35.2296  39.9753 H              1 <1>                0.0000
     23 H23         30.4027  33.7856  39.3871 H              1 <1>                0.0000
     24 H24         32.6801  33.8890  38.4322 H              1 <1>                0.0000
     25 H25         31.4578  34.0850  37.1522 H              1 <1>                0.0000
     26 H26         33.0342  36.3124  38.5229 H              1 <1>                0.0000
     27 H27         33.2105  35.7656  36.8355 H              1 <1>                0.0000
     28 H28         29.5344  37.6092  37.6723 H              1 <1>                0.0000
     29 H29         30.6388  37.5138  39.0681 H              1 <1>                0.0000
@<TRIPOS>BOND
    1    1    2 1     
    2    1   16 1     
    3    1   17 1     
    4    1   18 1     
    5    2    3 1     
    6    2   19 1     
    7    2   20 1     
    8    3    4 1     
    9    4    5 2     
   10    4    6 1     
   11    6    7 1     
   12    6   11 1     
   13    6   21 1     
   14    7    8 1     
   15    7   22 1     
   16    7   23 1     
   17    8    9 1     
   18    8   24 1     
   19    8   25 1     
   20    9   10 1     
   21    9   26 1     
   22    9   27 1     
   23   10   11 1     
   24   10   12 1     
   25   11   28 1     
   26   11   29 1     
   27   12   13 2     
   28   12   14 2     
   29   12   15 1     
@<TRIPOS>SUBSTRUCTURE
      1 ****           1
@<TRIPOS>COMMENT
> <Gold.Version>
2022.2.0

> <Gold.Id.Protein>
1qkm|1qkm_protein|mol2

> <Gold.Protein.RotatedTorsions>
[  496  491  490  487 ] final  -53.40 input  -89.99 | X-H torsion

> <Gold.Protein.ActiveResidues>
 MET295  LEU298  THR299  LEU301  ALA302  GLU305  TRP335  MET336  LEU339  MET340 
 GLY342  LEU343  ARG346  PHE356  ILE373  ILE376  PHE377  LEU380  LYS471  GLY472 
 MET473  HIS475  LEU476  LEU477  ASN478  MET479  VAL484  VAL487 

> <Gold.Protein.RotatedAtoms>
   36.4481   34.7167   41.5803 H   0  0  0  0  0  0  0  0  0  0  0  0  # atno 496  bound_to 491 

> <Gold.Score>
     Score     S(PLP)   S(hbond)     S(cho)   S(metal)  DE(clash)   DE(tors)     intcor
     43.76     -44.89       0.00       0.00       0.00       0.00       1.55       1.99

> <Gold.PLP.Fitness>
43.7647

> <Gold.PLP.PLP>
-44.8854

> <Gold.PLP.part.hbond>
0.0000

> <Gold.PLP.part.metal>
0.0000

> <Gold.PLP.part.buried>
-3.5789

> <Gold.PLP.part.nonpolar>
-41.2363

> <Gold.PLP.part.repulsive>
0.1688

> <Gold.PLP.ligand.clash>
0.0000

> <Gold.PLP.ligand.torsion>
1.5538

> <Gold.PLP.Chemscore.Hbond>
0.0000

> <Gold.PLP.Chemscore.CHOScore>
0.0000

> <Gold.PLP.Chemscore.Metal>
0.0000

> <Gold.PLP.Chemscore.Internal.Correction>
1.9868

