#       Name:                EN300-29226_i001
#       Creating user name   aseyller
#       Creation time:       Fri Apr 21 16:41:27 2023


#       File generated by GOLD software.
#

@<TRIPOS>MOLECULE
EN300-29226_i001|Sulfonylchlorides|mol2|60|dock14
    29    29     1
SMALL
USER_CHARGES


@<TRIPOS>ATOM
      1 C1          26.1958  36.1219  40.9075 C.3            1 <1>                0.0000
      2 C2          27.6082  36.3902  41.4309 C.3            1 <1>                0.0000
      3 O3          28.5795  35.7978  40.5286 O.3            1 <1>                0.0000
      4 C4          28.6568  36.3145  39.2921 C.2            1 <1>                0.0000
      5 O5          27.8235  37.1033  38.9137 O.2            1 <1>                0.0000
      6 C6          29.7831  35.9107  38.3758 C.3            1 <1>                0.0000
      7 C7          30.6830  34.8982  39.0880 C.3            1 <1>                0.0000
      8 C8          31.8084  34.4627  38.1467 C.3            1 <1>                0.0000
      9 C9          32.6556  35.6827  37.7716 C.3            1 <1>                0.0000
     10 N10         31.7733  36.7192  37.2183 N.pl3          1 <1>                0.0000
     11 C11         30.6073  37.1470  38.0033 C.3            1 <1>                0.0000
     12 S12         32.0871  37.3923  35.7382 S.o2           1 <1>                0.0000
     13 O13         32.7714  38.6122  35.9892 O.2            1 <1>                0.0000
     14 O14         32.6221  36.3531  34.9301 O.2            1 <1>                0.0000
     15 Cl15        30.3095  37.8932  34.9201 Cl             1 <1>                0.0000
     16 H16         26.0861  36.5615  39.9161 H              1 <1>                0.0000
     17 H17         26.0284  35.0465  40.8486 H              1 <1>                0.0000
     18 H18         25.4667  36.5666  41.5847 H              1 <1>                0.0000
     19 H19         27.7757  37.4657  41.4898 H              1 <1>                0.0000
     20 H20         27.7179  35.9507  42.4223 H              1 <1>                0.0000
     21 H21         29.3730  35.4604  37.4719 H              1 <1>                0.0000
     22 H22         31.1118  35.3571  39.9788 H              1 <1>                0.0000
     23 H23         30.0934  34.0279  39.3760 H              1 <1>                0.0000
     24 H24         32.4353  33.7242  38.6464 H              1 <1>                0.0000
     25 H25         31.3797  34.0262  37.2446 H              1 <1>                0.0000
     26 H26         33.1575  36.0662  38.6599 H              1 <1>                0.0000
     27 H27         33.3968  35.3973  37.0251 H              1 <1>                0.0000
     28 H28         29.9971  37.8277  37.4097 H              1 <1>                0.0000
     29 H29         30.9422  37.6500  38.9105 H              1 <1>                0.0000
@<TRIPOS>BOND
    1    1    2 1     
    2    1   16 1     
    3    1   17 1     
    4    1   18 1     
    5    2    3 1     
    6    2   19 1     
    7    2   20 1     
    8    3    4 1     
    9    4    5 2     
   10    4    6 1     
   11    6    7 1     
   12    6   11 1     
   13    6   21 1     
   14    7    8 1     
   15    7   22 1     
   16    7   23 1     
   17    8    9 1     
   18    8   24 1     
   19    8   25 1     
   20    9   10 1     
   21    9   26 1     
   22    9   27 1     
   23   10   11 1     
   24   10   12 1     
   25   11   28 1     
   26   11   29 1     
   27   12   13 2     
   28   12   14 2     
   29   12   15 1     
@<TRIPOS>SUBSTRUCTURE
      1 ****           1
@<TRIPOS>COMMENT
> <Gold.Version>
2022.2.0

> <Gold.Id.Protein>
1qkm|1qkm_protein|mol2

> <Gold.Protein.RotatedTorsions>
[  496  491  490  487 ] final  117.37 input  -89.99 | X-H torsion

> <Gold.Protein.ActiveResidues>
 MET295  LEU298  THR299  LEU301  ALA302  GLU305  TRP335  MET336  LEU339  MET340 
 GLY342  LEU343  ARG346  PHE356  ILE373  ILE376  PHE377  LEU380  LYS471  GLY472 
 MET473  HIS475  LEU476  LEU477  ASN478  MET479  VAL484  VAL487 

> <Gold.Protein.RotatedAtoms>
   37.0599   32.9404   41.6568 H   0  0  0  0  0  0  0  0  0  0  0  0  # atno 496  bound_to 491 

> <Gold.Score>
     Score     S(PLP)   S(hbond)     S(cho)   S(metal)  DE(clash)   DE(tors)     intcor
     40.86     -41.45       0.00       0.00       0.00       0.00       1.29       1.99

> <Gold.PLP.Fitness>
40.8575

> <Gold.PLP.PLP>
-41.4514

> <Gold.PLP.part.hbond>
0.0000

> <Gold.PLP.part.metal>
0.0000

> <Gold.PLP.part.buried>
-1.6113

> <Gold.PLP.part.nonpolar>
-39.9287

> <Gold.PLP.part.repulsive>
0.2856

> <Gold.PLP.ligand.clash>
0.0000

> <Gold.PLP.ligand.torsion>
1.2903

> <Gold.PLP.Chemscore.Hbond>
0.0000

> <Gold.PLP.Chemscore.CHOScore>
0.0000

> <Gold.PLP.Chemscore.Metal>
0.0000

> <Gold.PLP.Chemscore.Internal.Correction>
1.9868

