#       Name:                EN300-29226_i001
#       Creating user name   aseyller
#       Creation time:       Fri Apr 21 16:41:19 2023


#       File generated by GOLD software.
#

@<TRIPOS>MOLECULE
EN300-29226_i001|Sulfonylchlorides|mol2|60|dock5
    29    29     1
SMALL
USER_CHARGES


@<TRIPOS>ATOM
      1 C1          25.7995  37.2844  40.7148 C.3            1 <1>                0.0000
      2 C2          26.6187  36.0051  40.8967 C.3            1 <1>                0.0000
      3 O3          27.4861  35.8184  39.7472 O.3            1 <1>                0.0000
      4 C4          28.7865  36.1074  39.9119 C.2            1 <1>                0.0000
      5 O5          29.1874  36.4999  40.9820 O.2            1 <1>                0.0000
      6 C6          29.7466  35.9421  38.7620 C.3            1 <1>                0.0000
      7 C7          30.7817  34.8703  39.1109 C.3            1 <1>                0.0000
      8 C8          31.7374  34.6785  37.9310 C.3            1 <1>                0.0000
      9 C9          32.4755  35.9929  37.6581 C.3            1 <1>                0.0000
     10 N10         31.4847  37.0604  37.4647 N.pl3          1 <1>                0.0000
     11 C11         30.4621  37.2708  38.4985 C.3            1 <1>                0.0000
     12 S12         31.5197  38.0083  36.1073 S.o2           1 <1>                0.0000
     13 O13         30.9252  39.2476  36.4679 O.2            1 <1>                0.0000
     14 O14         32.8339  37.9018  35.5773 O.2            1 <1>                0.0000
     15 Cl15        30.2874  37.1575  34.7517 Cl             1 <1>                0.0000
     16 H16         26.4724  38.1372  40.6252 H              1 <1>                0.0000
     17 H17         25.1939  37.2029  39.8122 H              1 <1>                0.0000
     18 H18         25.1484  37.4247  41.5777 H              1 <1>                0.0000
     19 H19         27.2243  36.0867  41.7994 H              1 <1>                0.0000
     20 H20         25.9458  35.1524  40.9864 H              1 <1>                0.0000
     21 H21         29.1975  35.6410  37.8700 H              1 <1>                0.0000
     22 H22         31.3469  35.1834  39.9888 H              1 <1>                0.0000
     23 H23         30.2733  33.9298  39.3229 H              1 <1>                0.0000
     24 H24         32.4600  33.8986  38.1713 H              1 <1>                0.0000
     25 H25         31.1699  34.3895  37.0465 H              1 <1>                0.0000
     26 H26         33.1141  36.2365  38.5072 H              1 <1>                0.0000
     27 H27         33.0830  35.8909  36.7588 H              1 <1>                0.0000
     28 H28         29.7411  38.0120  38.1538 H              1 <1>                0.0000
     29 H29         30.9365  37.6187  39.4162 H              1 <1>                0.0000
@<TRIPOS>BOND
    1    1    2 1     
    2    1   16 1     
    3    1   17 1     
    4    1   18 1     
    5    2    3 1     
    6    2   19 1     
    7    2   20 1     
    8    3    4 1     
    9    4    5 2     
   10    4    6 1     
   11    6    7 1     
   12    6   11 1     
   13    6   21 1     
   14    7    8 1     
   15    7   22 1     
   16    7   23 1     
   17    8    9 1     
   18    8   24 1     
   19    8   25 1     
   20    9   10 1     
   21    9   26 1     
   22    9   27 1     
   23   10   11 1     
   24   10   12 1     
   25   11   28 1     
   26   11   29 1     
   27   12   13 2     
   28   12   14 2     
   29   12   15 1     
@<TRIPOS>SUBSTRUCTURE
      1 ****           1
@<TRIPOS>COMMENT
> <Gold.Version>
2022.2.0

> <Gold.Id.Protein>
1qkm|1qkm_protein|mol2

> <Gold.Protein.RotatedTorsions>
[  496  491  490  487 ] final   60.53 input  -89.99 | X-H torsion

> <Gold.Protein.ActiveResidues>
 MET295  LEU298  THR299  LEU301  ALA302  GLU305  TRP335  MET336  LEU339  MET340 
 GLY342  LEU343  ARG346  PHE356  ILE373  ILE376  PHE377  LEU380  LYS471  GLY472 
 MET473  HIS475  LEU476  LEU477  ASN478  MET479  VAL484  VAL487 

> <Gold.Protein.RotatedAtoms>
   36.5559   33.3124   42.2997 H   0  0  0  0  0  0  0  0  0  0  0  0  # atno 496  bound_to 491 

> <Gold.Score>
     Score     S(PLP)   S(hbond)     S(cho)   S(metal)  DE(clash)   DE(tors)     intcor
     42.98     -43.65       0.00       0.00       0.00       0.00       1.33       1.99

> <Gold.PLP.Fitness>
42.9825

> <Gold.PLP.PLP>
-43.6510

> <Gold.PLP.part.hbond>
0.0000

> <Gold.PLP.part.metal>
0.0000

> <Gold.PLP.part.buried>
-4.5941

> <Gold.PLP.part.nonpolar>
-39.8490

> <Gold.PLP.part.repulsive>
0.2186

> <Gold.PLP.ligand.clash>
0.0000

> <Gold.PLP.ligand.torsion>
1.3277

> <Gold.PLP.Chemscore.Hbond>
0.0000

> <Gold.PLP.Chemscore.CHOScore>
0.0000

> <Gold.PLP.Chemscore.Metal>
0.0000

> <Gold.PLP.Chemscore.Internal.Correction>
1.9868

