#       Name:                EN300-29226_i001
#       Creating user name   aseyller
#       Creation time:       Fri Apr 21 16:41:20 2023


#       File generated by GOLD software.
#

@<TRIPOS>MOLECULE
EN300-29226_i001|Sulfonylchlorides|mol2|60|dock6
    29    29     1
SMALL
USER_CHARGES


@<TRIPOS>ATOM
      1 C1          26.9868  36.6165  41.4973 C.3            1 <1>                0.0000
      2 C2          28.5031  36.5604  41.6938 C.3            1 <1>                0.0000
      3 O3          29.0949  35.7317  40.6587 O.3            1 <1>                0.0000
      4 C4          29.0702  36.2118  39.4055 C.2            1 <1>                0.0000
      5 O5          28.2635  37.0572  39.0981 O.2            1 <1>                0.0000
      6 C6          30.0487  35.6964  38.3816 C.3            1 <1>                0.0000
      7 C7          30.9323  34.6200  39.0161 C.3            1 <1>                0.0000
      8 C8          31.9045  34.0728  37.9684 C.3            1 <1>                0.0000
      9 C9          32.8059  35.2077  37.4721 C.3            1 <1>                0.0000
     10 N10         31.9594  36.3089  36.9930 N.pl3          1 <1>                0.0000
     11 C11         30.9291  36.8497  37.8901 C.3            1 <1>                0.0000
     12 S12         32.1629  36.9289  35.4710 S.o2           1 <1>                0.0000
     13 O13         33.3872  36.3984  34.9820 O.2            1 <1>                0.0000
     14 O14         30.9210  36.7625  34.8007 O.2            1 <1>                0.0000
     15 Cl15        32.4422  38.9196  35.6685 Cl             1 <1>                0.0000
     16 H16         26.7628  37.0418  40.5190 H              1 <1>                0.0000
     17 H17         26.5750  35.6092  41.5585 H              1 <1>                0.0000
     18 H18         26.5425  37.2386  42.2742 H              1 <1>                0.0000
     19 H19         28.9150  37.5678  41.6325 H              1 <1>                0.0000
     20 H20         28.7272  36.1352  42.6721 H              1 <1>                0.0000
     21 H21         29.5035  35.2700  37.5397 H              1 <1>                0.0000
     22 H22         31.4954  35.0532  39.8428 H              1 <1>                0.0000
     23 H23         30.3062  33.8094  39.3888 H              1 <1>                0.0000
     24 H24         32.5176  33.2899  38.4148 H              1 <1>                0.0000
     25 H25         31.3422  33.6617  37.1300 H              1 <1>                0.0000
     26 H26         33.4346  35.5593  38.2902 H              1 <1>                0.0000
     27 H27         33.4322  34.8467  36.6563 H              1 <1>                0.0000
     28 H28         30.3170  37.5721  37.3501 H              1 <1>                0.0000
     29 H29         31.4048  37.3353  38.7422 H              1 <1>                0.0000
@<TRIPOS>BOND
    1    1    2 1     
    2    1   16 1     
    3    1   17 1     
    4    1   18 1     
    5    2    3 1     
    6    2   19 1     
    7    2   20 1     
    8    3    4 1     
    9    4    5 2     
   10    4    6 1     
   11    6    7 1     
   12    6   11 1     
   13    6   21 1     
   14    7    8 1     
   15    7   22 1     
   16    7   23 1     
   17    8    9 1     
   18    8   24 1     
   19    8   25 1     
   20    9   10 1     
   21    9   26 1     
   22    9   27 1     
   23   10   11 1     
   24   10   12 1     
   25   11   28 1     
   26   11   29 1     
   27   12   13 2     
   28   12   14 2     
   29   12   15 1     
@<TRIPOS>SUBSTRUCTURE
      1 ****           1
@<TRIPOS>COMMENT
> <Gold.Version>
2022.2.0

> <Gold.Id.Protein>
1qkm|1qkm_protein|mol2

> <Gold.Protein.RotatedTorsions>
[  496  491  490  487 ] final   25.31 input  -89.99 | X-H torsion

> <Gold.Protein.ActiveResidues>
 MET295  LEU298  THR299  LEU301  ALA302  GLU305  TRP335  MET336  LEU339  MET340 
 GLY342  LEU343  ARG346  PHE356  ILE373  ILE376  PHE377  LEU380  LYS471  GLY472 
 MET473  HIS475  LEU476  LEU477  ASN478  MET479  VAL484  VAL487 

> <Gold.Protein.RotatedAtoms>
   36.3240   33.8288   42.3724 H   0  0  0  0  0  0  0  0  0  0  0  0  # atno 496  bound_to 491 

> <Gold.Score>
     Score     S(PLP)   S(hbond)     S(cho)   S(metal)  DE(clash)   DE(tors)     intcor
     40.45     -41.28       0.00       0.00       0.00       0.00       1.41       1.99

> <Gold.PLP.Fitness>
40.4473

> <Gold.PLP.PLP>
-41.2824

> <Gold.PLP.part.hbond>
0.0000

> <Gold.PLP.part.metal>
0.0000

> <Gold.PLP.part.buried>
-4.0245

> <Gold.PLP.part.nonpolar>
-37.9786

> <Gold.PLP.part.repulsive>
0.3566

> <Gold.PLP.ligand.clash>
0.0000

> <Gold.PLP.ligand.torsion>
1.4110

> <Gold.PLP.Chemscore.Hbond>
0.0000

> <Gold.PLP.Chemscore.CHOScore>
0.0000

> <Gold.PLP.Chemscore.Metal>
0.0000

> <Gold.PLP.Chemscore.Internal.Correction>
1.9868

