#       Name:                EN300-29226_i001
#       Creating user name   aseyller
#       Creation time:       Fri Apr 21 16:41:24 2023


#       File generated by GOLD software.
#

@<TRIPOS>MOLECULE
EN300-29226_i001|Sulfonylchlorides|mol2|60|dock11
    29    29     1
SMALL
USER_CHARGES


@<TRIPOS>ATOM
      1 C1          26.5921  36.8723  41.1227 C.3            1 <1>                0.0000
      2 C2          27.8265  36.1283  41.6360 C.3            1 <1>                0.0000
      3 O3          28.9013  36.2476  40.6670 O.3            1 <1>                0.0000
      4 C4          28.6936  35.7054  39.4568 C.2            1 <1>                0.0000
      5 O5          27.6278  35.1991  39.1964 O.2            1 <1>                0.0000
      6 C6          29.7897  35.7281  38.4227 C.3            1 <1>                0.0000
      7 C7          30.9994  34.9488  38.9434 C.3            1 <1>                0.0000
      8 C8          32.1008  34.9435  37.8809 C.3            1 <1>                0.0000
      9 C9          32.5389  36.3840  37.5981 C.3            1 <1>                0.0000
     10 N10         31.3553  37.1758  37.2364 N.pl3          1 <1>                0.0000
     11 C11         30.2015  37.1775  38.1461 C.3            1 <1>                0.0000
     12 S12         31.3224  38.0499  35.8303 S.o2           1 <1>                0.0000
     13 O13         32.6739  38.1932  35.4152 O.2            1 <1>                0.0000
     14 O14         30.3174  37.4619  35.0157 O.2            1 <1>                0.0000
     15 Cl15        30.6684  39.9040  36.2938 Cl             1 <1>                0.0000
     16 H16         26.8361  37.9248  40.9786 H              1 <1>                0.0000
     17 H17         26.2754  36.4394  40.1738 H              1 <1>                0.0000
     18 H18         25.7853  36.7828  41.8501 H              1 <1>                0.0000
     19 H19         28.1432  36.5612  42.5850 H              1 <1>                0.0000
     20 H20         27.5825  35.0758  41.7803 H              1 <1>                0.0000
     21 H21         29.4304  35.2695  37.5016 H              1 <1>                0.0000
     22 H22         31.3730  35.4223  39.8514 H              1 <1>                0.0000
     23 H23         30.7031  33.9234  39.1644 H              1 <1>                0.0000
     24 H24         32.9530  34.3685  38.2432 H              1 <1>                0.0000
     25 H25         31.7201  34.4925  36.9646 H              1 <1>                0.0000
     26 H26         33.0028  36.8064  38.4894 H              1 <1>                0.0000
     27 H27         33.2513  36.3939  36.7731 H              1 <1>                0.0000
     28 H28         29.3717  37.7111  37.6827 H              1 <1>                0.0000
     29 H29         30.4748  37.6648  39.0821 H              1 <1>                0.0000
@<TRIPOS>BOND
    1    1    2 1     
    2    1   16 1     
    3    1   17 1     
    4    1   18 1     
    5    2    3 1     
    6    2   19 1     
    7    2   20 1     
    8    3    4 1     
    9    4    5 2     
   10    4    6 1     
   11    6    7 1     
   12    6   11 1     
   13    6   21 1     
   14    7    8 1     
   15    7   22 1     
   16    7   23 1     
   17    8    9 1     
   18    8   24 1     
   19    8   25 1     
   20    9   10 1     
   21    9   26 1     
   22    9   27 1     
   23   10   11 1     
   24   10   12 1     
   25   11   28 1     
   26   11   29 1     
   27   12   13 2     
   28   12   14 2     
   29   12   15 1     
@<TRIPOS>SUBSTRUCTURE
      1 ****           1
@<TRIPOS>COMMENT
> <Gold.Version>
2022.2.0

> <Gold.Id.Protein>
1qkm|1qkm_protein|mol2

> <Gold.Protein.RotatedTorsions>
[  496  491  490  487 ] final   56.20 input  -89.99 | X-H torsion

> <Gold.Protein.ActiveResidues>
 MET295  LEU298  THR299  LEU301  ALA302  GLU305  TRP335  MET336  LEU339  MET340 
 GLY342  LEU343  ARG346  PHE356  ILE373  ILE376  PHE377  LEU380  LYS471  GLY472 
 MET473  HIS475  LEU476  LEU477  ASN478  MET479  VAL484  VAL487 

> <Gold.Protein.RotatedAtoms>
   36.5206   33.3690   42.3250 H   0  0  0  0  0  0  0  0  0  0  0  0  # atno 496  bound_to 491 

> <Gold.Score>
     Score     S(PLP)   S(hbond)     S(cho)   S(metal)  DE(clash)   DE(tors)     intcor
     43.08     -43.35       0.00       0.00       0.00       0.00       1.13       1.99

> <Gold.PLP.Fitness>
43.0816

> <Gold.PLP.PLP>
-43.3503

> <Gold.PLP.part.hbond>
0.0000

> <Gold.PLP.part.metal>
0.0000

> <Gold.PLP.part.buried>
-3.4778

> <Gold.PLP.part.nonpolar>
-40.3218

> <Gold.PLP.part.repulsive>
0.2312

> <Gold.PLP.ligand.clash>
0.0000

> <Gold.PLP.ligand.torsion>
1.1277

> <Gold.PLP.Chemscore.Hbond>
0.0000

> <Gold.PLP.Chemscore.CHOScore>
0.0000

> <Gold.PLP.Chemscore.Metal>
0.0000

> <Gold.PLP.Chemscore.Internal.Correction>
1.9868

