#       Name:                EN300-29226_i001
#       Creating user name   aseyller
#       Creation time:       Fri Apr 21 16:41:30 2023


#       File generated by GOLD software.
#

@<TRIPOS>MOLECULE
EN300-29226_i001|Sulfonylchlorides|mol2|60|dock17
    29    29     1
SMALL
USER_CHARGES


@<TRIPOS>ATOM
      1 C1          25.4977  37.1972  41.3354 C.3            1 <1>                0.0000
      2 C2          26.4214  36.1606  40.6926 C.3            1 <1>                0.0000
      3 O3          27.1705  36.7821  39.6151 O.3            1 <1>                0.0000
      4 C4          28.5075  36.6715  39.6596 C.2            1 <1>                0.0000
      5 O5          29.0350  36.0839  40.5742 O.2            1 <1>                0.0000
      6 C6          29.3507  37.2800  38.5688 C.3            1 <1>                0.0000
      7 C7          28.4524  38.0502  37.5984 C.3            1 <1>                0.0000
      8 C8          29.3113  38.6959  36.5086 C.3            1 <1>                0.0000
      9 C9          30.0430  37.6014  35.7253 C.3            1 <1>                0.0000
     10 N10         30.7956  36.7658  36.6708 N.pl3          1 <1>                0.0000
     11 C11         30.0828  36.1695  37.8089 C.3            1 <1>                0.0000
     12 S12         32.4164  36.5011  36.4580 S.o2           1 <1>                0.0000
     13 O13         33.0652  37.0474  37.5981 O.2            1 <1>                0.0000
     14 O14         32.5526  35.1431  36.0624 O.2            1 <1>                0.0000
     15 Cl15        33.0022  37.6166  34.8792 Cl             1 <1>                0.0000
     16 H16         26.0942  38.0179  41.7338 H              1 <1>                0.0000
     17 H17         24.8055  37.5813  40.5862 H              1 <1>                0.0000
     18 H18         24.9354  36.7308  42.1443 H              1 <1>                0.0000
     19 H19         27.1137  35.7765  41.4419 H              1 <1>                0.0000
     20 H20         25.8250  35.3398  40.2943 H              1 <1>                0.0000
     21 H21         30.0789  37.9612  39.0091 H              1 <1>                0.0000
     22 H22         27.7402  37.3639  37.1403 H              1 <1>                0.0000
     23 H23         27.9116  38.8253  38.1413 H              1 <1>                0.0000
     24 H24         28.6733  39.2635  35.8312 H              1 <1>                0.0000
     25 H25         30.0402  39.3636  36.9679 H              1 <1>                0.0000
     26 H26         29.3177  36.9870  35.1918 H              1 <1>                0.0000
     27 H27         30.7309  38.0588  35.0142 H              1 <1>                0.0000
     28 H28         30.7970  35.6821  38.4725 H              1 <1>                0.0000
     29 H29         29.3608  35.4383  37.4453 H              1 <1>                0.0000
@<TRIPOS>BOND
    1    1    2 1     
    2    1   16 1     
    3    1   17 1     
    4    1   18 1     
    5    2    3 1     
    6    2   19 1     
    7    2   20 1     
    8    3    4 1     
    9    4    5 2     
   10    4    6 1     
   11    6    7 1     
   12    6   11 1     
   13    6   21 1     
   14    7    8 1     
   15    7   22 1     
   16    7   23 1     
   17    8    9 1     
   18    8   24 1     
   19    8   25 1     
   20    9   10 1     
   21    9   26 1     
   22    9   27 1     
   23   10   11 1     
   24   10   12 1     
   25   11   28 1     
   26   11   29 1     
   27   12   13 2     
   28   12   14 2     
   29   12   15 1     
@<TRIPOS>SUBSTRUCTURE
      1 ****           1
@<TRIPOS>COMMENT
> <Gold.Version>
2022.2.0

> <Gold.Id.Protein>
1qkm|1qkm_protein|mol2

> <Gold.Protein.RotatedTorsions>
[  496  491  490  487 ] final  -95.57 input  -89.99 | X-H torsion

> <Gold.Protein.ActiveResidues>
 MET295  LEU298  THR299  LEU301  ALA302  GLU305  TRP335  MET336  LEU339  MET340 
 GLY342  LEU343  ARG346  PHE356  ILE373  ILE376  PHE377  LEU380  LYS471  GLY472 
 MET473  HIS475  LEU476  LEU477  ASN478  MET479  VAL484  VAL487 

> <Gold.Protein.RotatedAtoms>
   36.8088   34.6130   41.0151 H   0  0  0  0  0  0  0  0  0  0  0  0  # atno 496  bound_to 491 

> <Gold.Score>
     Score     S(PLP)   S(hbond)     S(cho)   S(metal)  DE(clash)   DE(tors)     intcor
     40.16     -41.50       0.00       0.00       0.00       0.00       1.66       1.99

> <Gold.PLP.Fitness>
40.1578

> <Gold.PLP.PLP>
-41.4994

> <Gold.PLP.part.hbond>
0.0000

> <Gold.PLP.part.metal>
0.0000

> <Gold.PLP.part.buried>
-3.0288

> <Gold.PLP.part.nonpolar>
-38.8357

> <Gold.PLP.part.repulsive>
0.1690

> <Gold.PLP.ligand.clash>
0.0000

> <Gold.PLP.ligand.torsion>
1.6642

> <Gold.PLP.Chemscore.Hbond>
0.0000

> <Gold.PLP.Chemscore.CHOScore>
0.0000

> <Gold.PLP.Chemscore.Metal>
0.0000

> <Gold.PLP.Chemscore.Internal.Correction>
1.9868

