#       Name:                plp ligand
#       Creating user name   aseyller
#       Creation time:       Fri Apr 21 16:41:14 2023


#       File generated by GOLD software.
#

@<TRIPOS>MOLECULE
plp ligand
    29    29     1
SMALL
USER_CHARGES


@<TRIPOS>ATOM
      1 C1          -3.6790   2.8052  -0.2074 NONPOLAR       1 <1>                0.0000
      2 C2          -3.3621   1.3570   0.1709 NONPOLAR       1 <1>                0.0000
      3 O3          -1.9987   1.0426  -0.2174 ACCEPTOR       1 <1>                0.0000
      4 C4          -1.5608  -0.1985   0.0464 NONPOLAR       1 <1>                0.0000
      5 O5          -2.2924  -0.9958   0.5840 ACCEPTOR       1 <1>                0.0000
      6 C6          -0.1566  -0.5976  -0.3280 NONPOLAR       1 <1>                0.0000
      7 C7           0.0867  -2.0525   0.0794 NONPOLAR       1 <1>                0.0000
      8 C8           1.5014  -2.4689  -0.3299 NONPOLAR       1 <1>                0.0000
      9 C9           2.5199  -1.5861   0.3982 NONPOLAR       1 <1>                0.0000
     10 N10          2.2035  -0.1771   0.1275 NONPOLAR       1 <1>                0.0000
     11 C11          0.8431   0.3064   0.4001 NONPOLAR       1 <1>                0.0000
     12 S12          3.3582   0.8466  -0.4734 NONPOLAR       1 <1>                0.0000
     13 O13          4.2354   0.0473  -1.2551 ACCEPTOR       1 <1>                0.0000
     14 O14          2.6649   1.9738  -0.9911 ACCEPTOR       1 <1>                0.0000
     15 Cl15         4.4407   1.5141   1.0959 NONPOLAR       1 <1>                0.0000
     16 H16         -2.9907   3.4745   0.3087                1 <1>                0.0000
     17 H17         -3.5697   2.9316  -1.2845                1 <1>                0.0000
     18 H18         -4.7024   3.0413   0.0841                1 <1>                0.0000
     19 H19         -3.4714   1.2306   1.2481                1 <1>                0.0000
     20 H20         -4.0504   0.6877  -0.3451                1 <1>                0.0000
     21 H21         -0.0239  -0.4942  -1.4049                1 <1>                0.0000
     22 H22         -0.0224  -2.1503   1.1595                1 <1>                0.0000
     23 H23         -0.6393  -2.6953  -0.4184                1 <1>                0.0000
     24 H24          1.6658  -3.5122  -0.0604                1 <1>                0.0000
     25 H25          1.6190  -2.3478  -1.4067                1 <1>                0.0000
     26 H26          2.4652  -1.7734   1.4706                1 <1>                0.0000
     27 H27          3.5232  -1.8113   0.0365                1 <1>                0.0000
     28 H28          0.7400   1.3299   0.0397                1 <1>                0.0000
     29 H29          0.6517   0.2735   1.4727                1 <1>                0.0000
@<TRIPOS>BOND
    1    1    2 1     
    2    1   16 1     
    3    1   17 1     
    4    1   18 1     
    5    2    3 1     
    6    2   19 1     
    7    2   20 1     
    8    3    4 1     
    9    4    5 2     
   10    4    6 1     
   11    6    7 1     
   12    6   11 1     
   13    6   21 1     
   14    7    8 1     
   15    7   22 1     
   16    7   23 1     
   17    8    9 1     
   18    8   24 1     
   19    8   25 1     
   20    9   10 1     
   21    9   26 1     
   22    9   27 1     
   23   10   11 1     
   24   10   12 1     
   25   11   28 1     
   26   11   29 1     
   27   12   13 2     
   28   12   14 2     
   29   12   15 1     
@<TRIPOS>SUBSTRUCTURE
      1 ****           1
@<TRIPOS>SET
DONOR_HYDROGENS      STATIC     ATOMS    <user>   **** ""
0
ATOM$RED        STATIC     ATOMS    COLORGROUP SYSTEM
0
