#       Name:                EN300-211058_i001
#       Creating user name   aseyller
#       Creation time:       Fri Apr 21 16:31:29 2023


#       File generated by GOLD software.
#

@<TRIPOS>MOLECULE
EN300-211058_i001|aminophenols|mol2|43|dock8
    18    18     1
SMALL
USER_CHARGES


@<TRIPOS>ATOM
      1 C1          30.9331  36.6497  38.1897 C.3            1 <1>                0.0000
      2 C2          31.2892  37.1389  36.8095 C.ar           1 <1>                0.0000
      3 C3          32.4472  36.6900  36.1915 C.ar           1 <1>                0.0000
      4 N4          33.2864  35.7828  36.8482 N.pl3          1 <1>                0.0000
      5 C5          32.7724  37.1445  34.9154 C.ar           1 <1>                0.0000
      6 O6          33.9064  36.7072  34.3046 O.3            1 <1>                0.0000
      7 C7          31.9383  38.0420  34.2696 C.ar           1 <1>                0.0000
      8 C8          30.7857  38.4860  34.8913 C.ar           1 <1>                0.0000
      9 C9          30.4587  38.0312  36.1562 C.ar           1 <1>                0.0000
     10 Br10        28.8804  38.6422  36.9998 Br             1 <1>                0.0000
     11 H11         31.3706  37.3142  38.9348 H              1 <1>                0.0000
     12 H12         29.8491  36.6400  38.3033 H              1 <1>                0.0000
     13 H13         31.3221  35.6411  38.3293 H              1 <1>                0.0000
     14 H14         32.1885  38.3956  33.2802 H              1 <1>                0.0000
     15 H15         30.1368  39.1861  34.3862 H              1 <1>                0.0000
     16 H16         33.0587  35.4669  37.7366 H              1 <1>                0.0000
     17 H17         34.0958  35.4696  36.4148 H              1 <1>                0.0000
     18 H18         34.2043  37.2711  33.5778 H              1 <1>                0.0000
@<TRIPOS>BOND
    1    1    2 1     
    2    1   11 1     
    3    1   12 1     
    4    1   13 1     
    5    2    3 ar    
    6    2    9 ar    
    7    3    4 1     
    8    3    5 ar    
    9    4   16 1     
   10    4   17 1     
   11    5    6 1     
   12    5    7 ar    
   13    6   18 1     
   14    7    8 ar    
   15    7   14 1     
   16    8    9 ar    
   17    8   15 1     
   18    9   10 1     
@<TRIPOS>SUBSTRUCTURE
      1 ****           1
@<TRIPOS>SET
DONOR_HYDROGENS      STATIC     ATOMS    <user>   **** ""
3 16 17 18
ATOM$RED        STATIC     ATOMS    COLORGROUP SYSTEM
3 16 17 18
@<TRIPOS>COMMENT
> <Gold.Version>
2022.2.0

> <Gold.Id.Protein>
1qkm|1qkm_protein|mol2

> <Gold.Protein.RotatedTorsions>
[  496  491  490  487 ] final   29.84 input  -89.99 | X-H torsion

> <Gold.Protein.ActiveResidues>
 MET295  LEU298  THR299  LEU301  ALA302  GLU305  TRP335  MET336  LEU339  MET340 
 GLY342  LEU343  ARG346  PHE356  ILE373  ILE376  PHE377  LEU380  LYS471  GLY472 
 MET473  HIS475  LEU476  LEU477  ASN478  MET479  VAL484  VAL487 

> <Gold.Protein.RotatedAtoms>
   36.3455   33.7580   42.3804 H   0  0  0  0  0  0  0  0  0  0  0  0  # atno 496  bound_to 491 

> <Gold.Score>
     Score     S(PLP)   S(hbond)     S(cho)   S(metal)  DE(clash)   DE(tors)     intcor
     35.69     -32.69       1.00       0.00       0.00       0.00       0.00       0.00

> <Gold.PLP.Fitness>
35.6851

> <Gold.PLP.PLP>
-32.6851

> <Gold.PLP.part.hbond>
-1.6287

> <Gold.PLP.part.metal>
0.0000

> <Gold.PLP.part.buried>
-3.6009

> <Gold.PLP.part.nonpolar>
-27.4341

> <Gold.PLP.part.repulsive>
0.0002

> <Gold.PLP.ligand.clash>
0.0000

> <Gold.PLP.ligand.torsion>
0.0000

> <Gold.PLP.Chemscore.Hbond>
1.0000

> <Gold.PLP.Chemscore.CHOScore>
0.0000

> <Gold.PLP.Chemscore.Metal>
0.0000

> <Gold.Chemscore.Hbonds>
donor molecule, donor type, donor heavy atom, donor atom, acceptor molecule, acceptor atom, score
      L1  H     6    18       P1  3229  1.00

> <Gold.PLP.Chemscore.Internal.Correction>
0.0000

