#       Name:                EN300-211058_i001
#       Creating user name   aseyller
#       Creation time:       Fri Apr 21 16:31:27 2023


#       File generated by GOLD software.
#

@<TRIPOS>MOLECULE
EN300-211058_i001|aminophenols|mol2|43|dock1
    18    18     1
SMALL
USER_CHARGES


@<TRIPOS>ATOM
      1 C1          29.4189  36.1399  39.8506 C.3            1 <1>                0.0000
      2 C2          27.9674  36.5444  39.8247 C.ar           1 <1>                0.0000
      3 C3          27.1253  36.1740  40.8629 C.ar           1 <1>                0.0000
      4 N4          27.6216  35.4243  41.9355 N.pl3          1 <1>                0.0000
      5 C5          25.7842  36.5503  40.8353 C.ar           1 <1>                0.0000
      6 O6          24.9541  36.1902  41.8509 O.3            1 <1>                0.0000
      7 C7          25.2980  37.2925  39.7718 C.ar           1 <1>                0.0000
      8 C8          26.1426  37.6582  38.7397 C.ar           1 <1>                0.0000
      9 C9          27.4758  37.2899  38.7687 C.ar           1 <1>                0.0000
     10 Br10        28.6249  37.7942  37.3541 Br             1 <1>                0.0000
     11 H11         29.5359  35.1745  39.3582 H              1 <1>                0.0000
     12 H12         30.0142  36.8887  39.3282 H              1 <1>                0.0000
     13 H13         29.7566  36.0639  40.8842 H              1 <1>                0.0000
     14 H14         24.2588  37.5854  39.7484 H              1 <1>                0.0000
     15 H15         25.7615  38.2366  37.9112 H              1 <1>                0.0000
     16 H16         28.5556  35.1631  41.9537 H              1 <1>                0.0000
     17 H17         27.0316  35.1660  42.6609 H              1 <1>                0.0000
     18 H18         25.3617  35.6041  42.5031 H              1 <1>                0.0000
@<TRIPOS>BOND
    1    1    2 1     
    2    1   11 1     
    3    1   12 1     
    4    1   13 1     
    5    2    3 ar    
    6    2    9 ar    
    7    3    4 1     
    8    3    5 ar    
    9    4   16 1     
   10    4   17 1     
   11    5    6 1     
   12    5    7 ar    
   13    6   18 1     
   14    7    8 ar    
   15    7   14 1     
   16    8    9 ar    
   17    8   15 1     
   18    9   10 1     
@<TRIPOS>SUBSTRUCTURE
      1 ****           1
@<TRIPOS>SET
DONOR_HYDROGENS      STATIC     ATOMS    <user>   **** ""
3 16 17 18
ATOM$RED        STATIC     ATOMS    COLORGROUP SYSTEM
3 16 17 18
@<TRIPOS>COMMENT
> <Gold.Version>
2022.2.0

> <Gold.Id.Protein>
1qkm|1qkm_protein|mol2

> <Gold.Protein.RotatedTorsions>
[  496  491  490  487 ] final  -56.61 input  -89.99 | X-H torsion

> <Gold.Protein.ActiveResidues>
 MET295  LEU298  THR299  LEU301  ALA302  GLU305  TRP335  MET336  LEU339  MET340 
 GLY342  LEU343  ARG346  PHE356  ILE373  ILE376  PHE377  LEU380  LYS471  GLY472 
 MET473  HIS475  LEU476  LEU477  ASN478  MET479  VAL484  VAL487 

> <Gold.Protein.RotatedAtoms>
   36.4713   34.7256   41.5339 H   0  0  0  0  0  0  0  0  0  0  0  0  # atno 496  bound_to 491 

> <Gold.Score>
     Score     S(PLP)   S(hbond)     S(cho)   S(metal)  DE(clash)   DE(tors)     intcor
     46.23     -37.78       2.82       0.00       0.00       0.00       0.00       0.00

> <Gold.PLP.Fitness>
46.2326

> <Gold.PLP.PLP>
-37.7846

> <Gold.PLP.part.hbond>
-3.4641

> <Gold.PLP.part.metal>
0.0000

> <Gold.PLP.part.buried>
-3.0056

> <Gold.PLP.part.nonpolar>
-31.2814

> <Gold.PLP.part.repulsive>
0.0661

> <Gold.PLP.ligand.clash>
0.0000

> <Gold.PLP.ligand.torsion>
0.0000

> <Gold.PLP.Chemscore.Hbond>
2.8160

> <Gold.PLP.Chemscore.CHOScore>
0.0000

> <Gold.PLP.Chemscore.Metal>
0.0000

> <Gold.Chemscore.Hbonds>
donor molecule, donor type, donor heavy atom, donor atom, acceptor molecule, acceptor atom, score
      L1  H     4    17       P1   582  1.00
      L1  H     6    18       P1   582  1.00
      P1  H  1258  1270       L1     6  0.82

> <Gold.PLP.Chemscore.Internal.Correction>
0.0000

