#       Name:                EN300-211058_i001
#       Creating user name   aseyller
#       Creation time:       Fri Apr 21 16:31:29 2023


#       File generated by GOLD software.
#

@<TRIPOS>MOLECULE
EN300-211058_i001|aminophenols|mol2|43|dock9
    18    18     1
SMALL
USER_CHARGES


@<TRIPOS>ATOM
      1 C1          30.6533  38.2024  35.7488 C.3            1 <1>                0.0000
      2 C2          31.0697  37.1475  36.7414 C.ar           1 <1>                0.0000
      3 C3          30.3179  36.9386  37.8883 C.ar           1 <1>                0.0000
      4 N4          29.1721  37.7065  38.1257 N.pl3          1 <1>                0.0000
      5 C5          30.7061  35.9623  38.8030 C.ar           1 <1>                0.0000
      6 O6          29.9723  35.7529  39.9291 O.3            1 <1>                0.0000
      7 C7          31.8405  35.2047  38.5633 C.ar           1 <1>                0.0000
      8 C8          32.5860  35.4183  37.4183 C.ar           1 <1>                0.0000
      9 C9          32.1984  36.3837  36.5064 C.ar           1 <1>                0.0000
     10 Br10        33.2224  36.6696  34.9425 Br             1 <1>                0.0000
     11 H11         31.1220  39.1514  36.0091 H              1 <1>                0.0000
     12 H12         30.9674  37.9043  34.7486 H              1 <1>                0.0000
     13 H13         29.5693  38.3143  35.7709 H              1 <1>                0.0000
     14 H14         32.1433  34.4473  39.2711 H              1 <1>                0.0000
     15 H15         33.4704  34.8269  37.2334 H              1 <1>                0.0000
     16 H16         28.9027  38.3858  37.4879 H              1 <1>                0.0000
     17 H17         28.6472  37.5592  38.9281 H              1 <1>                0.0000
     18 H18         30.4980  35.7131  40.7396 H              1 <1>                0.0000
@<TRIPOS>BOND
    1    1    2 1     
    2    1   11 1     
    3    1   12 1     
    4    1   13 1     
    5    2    3 ar    
    6    2    9 ar    
    7    3    4 1     
    8    3    5 ar    
    9    4   16 1     
   10    4   17 1     
   11    5    6 1     
   12    5    7 ar    
   13    6   18 1     
   14    7    8 ar    
   15    7   14 1     
   16    8    9 ar    
   17    8   15 1     
   18    9   10 1     
@<TRIPOS>SUBSTRUCTURE
      1 ****           1
@<TRIPOS>SET
DONOR_HYDROGENS      STATIC     ATOMS    <user>   **** ""
3 16 17 18
ATOM$RED        STATIC     ATOMS    COLORGROUP SYSTEM
3 16 17 18
@<TRIPOS>COMMENT
> <Gold.Version>
2022.2.0

> <Gold.Id.Protein>
1qkm|1qkm_protein|mol2

> <Gold.Protein.RotatedTorsions>
[  496  491  490  487 ] final -150.26 input  -89.99 | X-H torsion

> <Gold.Protein.ActiveResidues>
 MET295  LEU298  THR299  LEU301  ALA302  GLU305  TRP335  MET336  LEU339  MET340 
 GLY342  LEU343  ARG346  PHE356  ILE373  ILE376  PHE377  LEU380  LYS471  GLY472 
 MET473  HIS475  LEU476  LEU477  ASN478  MET479  VAL484  VAL487 

> <Gold.Protein.RotatedAtoms>
   37.2326   33.9157   40.7232 H   0  0  0  0  0  0  0  0  0  0  0  0  # atno 496  bound_to 491 

> <Gold.Score>
     Score     S(PLP)   S(hbond)     S(cho)   S(metal)  DE(clash)   DE(tors)     intcor
     35.62     -32.62       1.00       0.00       0.00       0.00       0.00       0.00

> <Gold.PLP.Fitness>
35.6172

> <Gold.PLP.PLP>
-32.6172

> <Gold.PLP.part.hbond>
-1.0000

> <Gold.PLP.part.metal>
0.0000

> <Gold.PLP.part.buried>
-2.9240

> <Gold.PLP.part.nonpolar>
-29.2367

> <Gold.PLP.part.repulsive>
0.0000

> <Gold.PLP.ligand.clash>
0.0000

> <Gold.PLP.ligand.torsion>
0.0000

> <Gold.PLP.Chemscore.Hbond>
1.0000

> <Gold.PLP.Chemscore.CHOScore>
0.0000

> <Gold.PLP.Chemscore.Metal>
0.0000

> <Gold.Chemscore.Hbonds>
donor molecule, donor type, donor heavy atom, donor atom, acceptor molecule, acceptor atom, score
      L1  H     6    18       P1   470  1.00

> <Gold.PLP.Chemscore.Internal.Correction>
0.0000

