#       Name:                EN300-211058_i001
#       Creating user name   aseyller
#       Creation time:       Fri Apr 21 16:31:33 2023


#       File generated by GOLD software.
#

@<TRIPOS>MOLECULE
EN300-211058_i001|aminophenols|mol2|43|dock20
    18    18     1
SMALL
USER_CHARGES


@<TRIPOS>ATOM
      1 C1          27.1034  37.2562  38.4293 C.3            1 <1>                0.0000
      2 C2          28.5922  37.0646  38.2958 C.ar           1 <1>                0.0000
      3 C3          29.2120  35.9905  38.9174 C.ar           1 <1>                0.0000
      4 N4          28.4565  35.0834  39.6692 N.pl3          1 <1>                0.0000
      5 C5          30.5885  35.8168  38.7911 C.ar           1 <1>                0.0000
      6 O6          31.2014  34.7650  39.3981 O.3            1 <1>                0.0000
      7 C7          31.3317  36.7169  38.0456 C.ar           1 <1>                0.0000
      8 C8          30.7078  37.7859  37.4288 C.ar           1 <1>                0.0000
      9 C9          29.3402  37.9563  37.5489 C.ar           1 <1>                0.0000
     10 Br10        28.4940  39.4201  36.7020 Br             1 <1>                0.0000
     11 H11         26.8935  37.8748  39.3019 H              1 <1>                0.0000
     12 H12         26.7185  37.7467  37.5352 H              1 <1>                0.0000
     13 H13         26.6213  36.2858  38.5474 H              1 <1>                0.0000
     14 H14         32.3989  36.5841  37.9463 H              1 <1>                0.0000
     15 H15         31.2891  38.4869  36.8484 H              1 <1>                0.0000
     16 H16         27.4982  35.2054  39.7562 H              1 <1>                0.0000
     17 H17         28.8913  34.3327  40.1033 H              1 <1>                0.0000
     18 H18         31.3823  34.9039  40.3377 H              1 <1>                0.0000
@<TRIPOS>BOND
    1    1    2 1     
    2    1   11 1     
    3    1   12 1     
    4    1   13 1     
    5    2    3 ar    
    6    2    9 ar    
    7    3    4 1     
    8    3    5 ar    
    9    4   16 1     
   10    4   17 1     
   11    5    6 1     
   12    5    7 ar    
   13    6   18 1     
   14    7    8 ar    
   15    7   14 1     
   16    8    9 ar    
   17    8   15 1     
   18    9   10 1     
@<TRIPOS>SUBSTRUCTURE
      1 ****           1
@<TRIPOS>SET
DONOR_HYDROGENS      STATIC     ATOMS    <user>   **** ""
3 16 17 18
ATOM$RED        STATIC     ATOMS    COLORGROUP SYSTEM
3 16 17 18
@<TRIPOS>COMMENT
> <Gold.Version>
2022.2.0

> <Gold.Id.Protein>
1qkm|1qkm_protein|mol2

> <Gold.Protein.RotatedTorsions>
[  496  491  490  487 ] final  154.98 input  -89.99 | X-H torsion

> <Gold.Protein.ActiveResidues>
 MET295  LEU298  THR299  LEU301  ALA302  GLU305  TRP335  MET336  LEU339  MET340 
 GLY342  LEU343  ARG346  PHE356  ILE373  ILE376  PHE377  LEU380  LYS471  GLY472 
 MET473  HIS475  LEU476  LEU477  ASN478  MET479  VAL484  VAL487 

> <Gold.Protein.RotatedAtoms>
   37.2815   33.1520   41.1314 H   0  0  0  0  0  0  0  0  0  0  0  0  # atno 496  bound_to 491 

> <Gold.Score>
     Score     S(PLP)   S(hbond)     S(cho)   S(metal)  DE(clash)   DE(tors)     intcor
     32.73     -29.73       1.00       0.00       0.00       0.00       0.00       0.00

> <Gold.PLP.Fitness>
32.7338

> <Gold.PLP.PLP>
-29.7338

> <Gold.PLP.part.hbond>
-1.0000

> <Gold.PLP.part.metal>
0.0000

> <Gold.PLP.part.buried>
-1.5262

> <Gold.PLP.part.nonpolar>
-27.9625

> <Gold.PLP.part.repulsive>
0.0186

> <Gold.PLP.ligand.clash>
0.0000

> <Gold.PLP.ligand.torsion>
0.0000

> <Gold.PLP.Chemscore.Hbond>
1.0000

> <Gold.PLP.Chemscore.CHOScore>
0.0000

> <Gold.PLP.Chemscore.Metal>
0.0000

> <Gold.Chemscore.Hbonds>
donor molecule, donor type, donor heavy atom, donor atom, acceptor molecule, acceptor atom, score
      L1  H     6    18       P1   470  1.00

> <Gold.PLP.Chemscore.Internal.Correction>
0.0000

