#       Name:                EN300-211058_i001
#       Creating user name   aseyller
#       Creation time:       Fri Apr 21 16:31:29 2023


#       File generated by GOLD software.
#

@<TRIPOS>MOLECULE
EN300-211058_i001|aminophenols|mol2|43|dock6
    18    18     1
SMALL
USER_CHARGES


@<TRIPOS>ATOM
      1 C1          28.9807  37.2911  37.5439 C.3            1 <1>                0.0000
      2 C2          28.2620  36.9798  38.8314 C.ar           1 <1>                0.0000
      3 C3          28.9434  36.3756  39.8778 C.ar           1 <1>                0.0000
      4 N4          30.2985  36.0540  39.7398 N.pl3          1 <1>                0.0000
      5 C5          28.2754  36.0899  41.0665 C.ar           1 <1>                0.0000
      6 O6          28.9389  35.4979  42.0959 O.3            1 <1>                0.0000
      7 C7          26.9345  36.4105  41.1982 C.ar           1 <1>                0.0000
      8 C8          26.2608  37.0124  40.1512 C.ar           1 <1>                0.0000
      9 C9          26.9244  37.3016  38.9723 C.ar           1 <1>                0.0000
     10 Br10        25.9968  38.1254  37.5451 Br             1 <1>                0.0000
     11 H11         28.8972  36.4412  36.8665 H              1 <1>                0.0000
     12 H12         28.5324  38.1701  37.0809 H              1 <1>                0.0000
     13 H13         30.0323  37.4871  37.7529 H              1 <1>                0.0000
     14 H14         26.4147  36.1900  42.1188 H              1 <1>                0.0000
     15 H15         25.2152  37.2612  40.2557 H              1 <1>                0.0000
     16 H16         30.7625  36.2536  38.9117 H              1 <1>                0.0000
     17 H17         30.7738  35.6315  40.4724 H              1 <1>                0.0000
     18 H18         29.8901  35.6713  42.1024 H              1 <1>                0.0000
@<TRIPOS>BOND
    1    1    2 1     
    2    1   11 1     
    3    1   12 1     
    4    1   13 1     
    5    2    3 ar    
    6    2    9 ar    
    7    3    4 1     
    8    3    5 ar    
    9    4   16 1     
   10    4   17 1     
   11    5    6 1     
   12    5    7 ar    
   13    6   18 1     
   14    7    8 ar    
   15    7   14 1     
   16    8    9 ar    
   17    8   15 1     
   18    9   10 1     
@<TRIPOS>SUBSTRUCTURE
      1 ****           1
@<TRIPOS>SET
DONOR_HYDROGENS      STATIC     ATOMS    <user>   **** ""
3 16 17 18
ATOM$RED        STATIC     ATOMS    COLORGROUP SYSTEM
3 16 17 18
@<TRIPOS>COMMENT
> <Gold.Version>
2022.2.0

> <Gold.Id.Protein>
1qkm|1qkm_protein|mol2

> <Gold.Protein.RotatedTorsions>
[  496  491  490  487 ] final -111.82 input  -89.99 | X-H torsion

> <Gold.Protein.ActiveResidues>
 MET295  LEU298  THR299  LEU301  ALA302  GLU305  TRP335  MET336  LEU339  MET340 
 GLY342  LEU343  ARG346  PHE356  ILE373  ILE376  PHE377  LEU380  LYS471  GLY472 
 MET473  HIS475  LEU476  LEU477  ASN478  MET479  VAL484  VAL487 

> <Gold.Protein.RotatedAtoms>
   36.9562   34.4552   40.8588 H   0  0  0  0  0  0  0  0  0  0  0  0  # atno 496  bound_to 491 

> <Gold.Score>
     Score     S(PLP)   S(hbond)     S(cho)   S(metal)  DE(clash)   DE(tors)     intcor
     39.02     -33.02       2.00       0.00       0.00       0.00       0.00       0.00

> <Gold.PLP.Fitness>
39.0242

> <Gold.PLP.PLP>
-33.0242

> <Gold.PLP.part.hbond>
-3.0000

> <Gold.PLP.part.metal>
0.0000

> <Gold.PLP.part.buried>
-3.1653

> <Gold.PLP.part.nonpolar>
-27.2236

> <Gold.PLP.part.repulsive>
0.0457

> <Gold.PLP.ligand.clash>
0.0000

> <Gold.PLP.ligand.torsion>
0.0000

> <Gold.PLP.Chemscore.Hbond>
2.0000

> <Gold.PLP.Chemscore.CHOScore>
0.0000

> <Gold.PLP.Chemscore.Metal>
0.0000

> <Gold.Chemscore.Hbonds>
donor molecule, donor type, donor heavy atom, donor atom, acceptor molecule, acceptor atom, score
      L1  H     4    17       P1   470  1.00
      L1  H     6    18       P1   470  1.00

> <Gold.PLP.Chemscore.Internal.Correction>
0.0000

