#       Name:                EN300-211058_i001
#       Creating user name   aseyller
#       Creation time:       Fri Apr 21 16:31:30 2023


#       File generated by GOLD software.
#

@<TRIPOS>MOLECULE
EN300-211058_i001|aminophenols|mol2|43|dock11
    18    18     1
SMALL
USER_CHARGES


@<TRIPOS>ATOM
      1 C1          29.1477  37.2177  38.0389 C.3            1 <1>                0.0000
      2 C2          28.0049  37.1079  39.0152 C.ar           1 <1>                0.0000
      3 C3          28.1848  36.4493  40.2227 C.ar           1 <1>                0.0000
      4 N4          29.4270  35.8858  40.5363 N.pl3          1 <1>                0.0000
      5 C5          27.1259  36.3504  41.1226 C.ar           1 <1>                0.0000
      6 O6          27.2970  35.7060  42.3083 O.3            1 <1>                0.0000
      7 C7          25.8988  36.9101  40.8077 C.ar           1 <1>                0.0000
      8 C8          25.7258  37.5649  39.6021 C.ar           1 <1>                0.0000
      9 C9          26.7781  37.6687  38.7101 C.ar           1 <1>                0.0000
     10 Br10        26.5342  38.5663  37.0636 Br             1 <1>                0.0000
     11 H11         29.1333  36.3611  37.3649 H              1 <1>                0.0000
     12 H12         29.0450  38.1362  37.4611 H              1 <1>                0.0000
     13 H13         30.0912  37.2352  38.5843 H              1 <1>                0.0000
     14 H14         25.0766  36.8346  41.5039 H              1 <1>                0.0000
     15 H15         24.7681  38.0003  39.3583 H              1 <1>                0.0000
     16 H16         30.1635  35.9555  39.9090 H              1 <1>                0.0000
     17 H17         29.5514  35.4255  41.3811 H              1 <1>                0.0000
     18 H18         26.4767  35.3724  42.6967 H              1 <1>                0.0000
@<TRIPOS>BOND
    1    1    2 1     
    2    1   11 1     
    3    1   12 1     
    4    1   13 1     
    5    2    3 ar    
    6    2    9 ar    
    7    3    4 1     
    8    3    5 ar    
    9    4   16 1     
   10    4   17 1     
   11    5    6 1     
   12    5    7 ar    
   13    6   18 1     
   14    7    8 ar    
   15    7   14 1     
   16    8    9 ar    
   17    8   15 1     
   18    9   10 1     
@<TRIPOS>SUBSTRUCTURE
      1 ****           1
@<TRIPOS>SET
DONOR_HYDROGENS      STATIC     ATOMS    <user>   **** ""
3 16 17 18
ATOM$RED        STATIC     ATOMS    COLORGROUP SYSTEM
3 16 17 18
@<TRIPOS>COMMENT
> <Gold.Version>
2022.2.0

> <Gold.Id.Protein>
1qkm|1qkm_protein|mol2

> <Gold.Protein.RotatedTorsions>
[  496  491  490  487 ] final   89.52 input  -89.99 | X-H torsion

> <Gold.Protein.ActiveResidues>
 MET295  LEU298  THR299  LEU301  ALA302  GLU305  TRP335  MET336  LEU339  MET340 
 GLY342  LEU343  ARG346  PHE356  ILE373  ILE376  PHE377  LEU380  LYS471  GLY472 
 MET473  HIS475  LEU476  LEU477  ASN478  MET479  VAL484  VAL487 

> <Gold.Protein.RotatedAtoms>
   36.8158   33.0251   42.0299 H   0  0  0  0  0  0  0  0  0  0  0  0  # atno 496  bound_to 491 

> <Gold.Score>
     Score     S(PLP)   S(hbond)     S(cho)   S(metal)  DE(clash)   DE(tors)     intcor
     32.86     -31.08       0.59       0.00       0.00       0.00       0.00       0.00

> <Gold.PLP.Fitness>
32.8621

> <Gold.PLP.PLP>
-31.0837

> <Gold.PLP.part.hbond>
-1.0148

> <Gold.PLP.part.metal>
0.0000

> <Gold.PLP.part.buried>
-4.0484

> <Gold.PLP.part.nonpolar>
-26.8094

> <Gold.PLP.part.repulsive>
0.0541

> <Gold.PLP.ligand.clash>
0.0000

> <Gold.PLP.ligand.torsion>
0.0000

> <Gold.PLP.Chemscore.Hbond>
0.5928

> <Gold.PLP.Chemscore.CHOScore>
0.0000

> <Gold.PLP.Chemscore.Metal>
0.0000

> <Gold.Chemscore.Hbonds>
donor molecule, donor type, donor heavy atom, donor atom, acceptor molecule, acceptor atom, score
      L1  H     4    17       P1   470  0.03
      L1  H     6    18       P1   582  0.56

> <Gold.PLP.Chemscore.Internal.Correction>
0.0000

