#       Name:                EN300-211058_i001
#       Creating user name   aseyller
#       Creation time:       Fri Apr 21 16:31:33 2023


#       File generated by GOLD software.
#

@<TRIPOS>MOLECULE
EN300-211058_i001|aminophenols|mol2|43|dock19
    18    18     1
SMALL
USER_CHARGES


@<TRIPOS>ATOM
      1 C1          30.1593  37.5432  38.0626 C.3            1 <1>                0.0000
      2 C2          28.8813  37.1459  38.7555 C.ar           1 <1>                0.0000
      3 C3          28.9204  36.2875  39.8445 C.ar           1 <1>                0.0000
      4 N4          30.1458  35.7891  40.3015 N.pl3          1 <1>                0.0000
      5 C5          27.7367  35.9230  40.4824 C.ar           1 <1>                0.0000
      6 O6          27.7694  35.0820  41.5511 O.3            1 <1>                0.0000
      7 C7          26.5267  36.4193  40.0267 C.ar           1 <1>                0.0000
      8 C8          26.4945  37.2742  38.9402 C.ar           1 <1>                0.0000
      9 C9          27.6697  37.6413  38.3094 C.ar           1 <1>                0.0000
     10 Br10        27.6178  38.8114  36.8247 Br             1 <1>                0.0000
     11 H11         30.3754  36.8335  37.2640 H              1 <1>                0.0000
     12 H12         30.0485  38.5421  37.6408 H              1 <1>                0.0000
     13 H13         30.9783  37.5413  38.7818 H              1 <1>                0.0000
     14 H14         25.6079  36.1381  40.5197 H              1 <1>                0.0000
     15 H15         25.5499  37.6597  38.5861 H              1 <1>                0.0000
     16 H16         30.9693  36.0439  39.8566 H              1 <1>                0.0000
     17 H17         30.1717  35.1890  41.0632 H              1 <1>                0.0000
     18 H18         26.9674  35.1006  42.0909 H              1 <1>                0.0000
@<TRIPOS>BOND
    1    1    2 1     
    2    1   11 1     
    3    1   12 1     
    4    1   13 1     
    5    2    3 ar    
    6    2    9 ar    
    7    3    4 1     
    8    3    5 ar    
    9    4   16 1     
   10    4   17 1     
   11    5    6 1     
   12    5    7 ar    
   13    6   18 1     
   14    7    8 ar    
   15    7   14 1     
   16    8    9 ar    
   17    8   15 1     
   18    9   10 1     
@<TRIPOS>SUBSTRUCTURE
      1 ****           1
@<TRIPOS>SET
DONOR_HYDROGENS      STATIC     ATOMS    <user>   **** ""
3 16 17 18
ATOM$RED        STATIC     ATOMS    COLORGROUP SYSTEM
3 16 17 18
@<TRIPOS>COMMENT
> <Gold.Version>
2022.2.0

> <Gold.Id.Protein>
1qkm|1qkm_protein|mol2

> <Gold.Protein.RotatedTorsions>
[  496  491  490  487 ] final  -18.95 input  -89.99 | X-H torsion

> <Gold.Protein.ActiveResidues>
 MET295  LEU298  THR299  LEU301  ALA302  GLU305  TRP335  MET336  LEU339  MET340 
 GLY342  LEU343  ARG346  PHE356  ILE373  ILE376  PHE377  LEU380  LYS471  GLY472 
 MET473  HIS475  LEU476  LEU477  ASN478  MET479  VAL484  VAL487 

> <Gold.Protein.RotatedAtoms>
   36.2782   34.4581   42.0455 H   0  0  0  0  0  0  0  0  0  0  0  0  # atno 496  bound_to 491 

> <Gold.Score>
     Score     S(PLP)   S(hbond)     S(cho)   S(metal)  DE(clash)   DE(tors)     intcor
     35.73     -31.85       1.30       0.00       0.00       0.00       0.00       0.00

> <Gold.PLP.Fitness>
35.7338

> <Gold.PLP.PLP>
-31.8458

> <Gold.PLP.part.hbond>
-2.0000

> <Gold.PLP.part.metal>
0.0000

> <Gold.PLP.part.buried>
-2.4857

> <Gold.PLP.part.nonpolar>
-27.9378

> <Gold.PLP.part.repulsive>
0.0866

> <Gold.PLP.ligand.clash>
0.0000

> <Gold.PLP.ligand.torsion>
0.0000

> <Gold.PLP.Chemscore.Hbond>
1.2960

> <Gold.PLP.Chemscore.CHOScore>
0.0000

> <Gold.PLP.Chemscore.Metal>
0.0000

> <Gold.Chemscore.Hbonds>
donor molecule, donor type, donor heavy atom, donor atom, acceptor molecule, acceptor atom, score
      L1  H     4    17       P1   470  0.35
      L1  H     6    18       P1   582  0.94

> <Gold.PLP.Chemscore.Internal.Correction>
0.0000

