#       Name:                EN300-211058_i001
#       Creating user name   aseyller
#       Creation time:       Fri Apr 21 16:31:32 2023


#       File generated by GOLD software.
#

@<TRIPOS>MOLECULE
EN300-211058_i001|aminophenols|mol2|43|dock17
    18    18     1
SMALL
USER_CHARGES


@<TRIPOS>ATOM
      1 C1          30.8851  36.4559  38.7806 C.3            1 <1>                0.0000
      2 C2          29.4085  36.7575  38.7926 C.ar           1 <1>                0.0000
      3 C3          28.6391  36.4139  39.8946 C.ar           1 <1>                0.0000
      4 N4          29.2321  35.7870  40.9964 N.pl3          1 <1>                0.0000
      5 C5          27.2746  36.6948  39.9017 C.ar           1 <1>                0.0000
      6 O6          26.5156  36.3605  40.9799 O.3            1 <1>                0.0000
      7 C7          26.6926  37.3158  38.8091 C.ar           1 <1>                0.0000
      8 C8          27.4651  37.6553  37.7135 C.ar           1 <1>                0.0000
      9 C9          28.8212  37.3819  37.7074 C.ar           1 <1>                0.0000
     10 Br10        29.8712  37.8498  36.2059 Br             1 <1>                0.0000
     11 H11         31.0500  35.4648  38.3580 H              1 <1>                0.0000
     12 H12         31.4029  37.1998  38.1752 H              1 <1>                0.0000
     13 H13         31.2702  36.4850  39.7999 H              1 <1>                0.0000
     14 H14         25.6350  37.5346  38.8125 H              1 <1>                0.0000
     15 H15         27.0093  38.1391  36.8623 H              1 <1>                0.0000
     16 H16         30.1823  35.5921  40.9902 H              1 <1>                0.0000
     17 H17         28.6929  35.5473  41.7663 H              1 <1>                0.0000
     18 H18         25.5768  36.2444  40.7793 H              1 <1>                0.0000
@<TRIPOS>BOND
    1    1    2 1     
    2    1   11 1     
    3    1   12 1     
    4    1   13 1     
    5    2    3 ar    
    6    2    9 ar    
    7    3    4 1     
    8    3    5 ar    
    9    4   16 1     
   10    4   17 1     
   11    5    6 1     
   12    5    7 ar    
   13    6   18 1     
   14    7    8 ar    
   15    7   14 1     
   16    8    9 ar    
   17    8   15 1     
   18    9   10 1     
@<TRIPOS>SUBSTRUCTURE
      1 ****           1
@<TRIPOS>SET
DONOR_HYDROGENS      STATIC     ATOMS    <user>   **** ""
3 16 17 18
ATOM$RED        STATIC     ATOMS    COLORGROUP SYSTEM
3 16 17 18
@<TRIPOS>COMMENT
> <Gold.Version>
2022.2.0

> <Gold.Id.Protein>
1qkm|1qkm_protein|mol2

> <Gold.Protein.RotatedTorsions>
[  496  491  490  487 ] final    4.86 input  -89.99 | X-H torsion

> <Gold.Protein.ActiveResidues>
 MET295  LEU298  THR299  LEU301  ALA302  GLU305  TRP335  MET336  LEU339  MET340 
 GLY342  LEU343  ARG346  PHE356  ILE373  ILE376  PHE377  LEU380  LYS471  GLY472 
 MET473  HIS475  LEU476  LEU477  ASN478  MET479  VAL484  VAL487 

> <Gold.Protein.RotatedAtoms>
   36.2643   34.1432   42.2736 H   0  0  0  0  0  0  0  0  0  0  0  0  # atno 496  bound_to 491 

> <Gold.Score>
     Score     S(PLP)   S(hbond)     S(cho)   S(metal)  DE(clash)   DE(tors)     intcor
     34.66     -31.87       0.93       0.00       0.00       0.00       0.00       0.00

> <Gold.PLP.Fitness>
34.6558

> <Gold.PLP.PLP>
-31.8718

> <Gold.PLP.part.hbond>
-1.0000

> <Gold.PLP.part.metal>
0.0000

> <Gold.PLP.part.buried>
-3.3230

> <Gold.PLP.part.nonpolar>
-27.5290

> <Gold.PLP.part.repulsive>
0.0685

> <Gold.PLP.ligand.clash>
0.0000

> <Gold.PLP.ligand.torsion>
0.0000

> <Gold.PLP.Chemscore.Hbond>
0.9280

> <Gold.PLP.Chemscore.CHOScore>
0.0000

> <Gold.PLP.Chemscore.Metal>
0.0000

> <Gold.Chemscore.Hbonds>
donor molecule, donor type, donor heavy atom, donor atom, acceptor molecule, acceptor atom, score
      L1  H     4    16       P1   470  0.93

> <Gold.PLP.Chemscore.Internal.Correction>
0.0000

