#       Name:                EN300-211058_i001
#       Creating user name   aseyller
#       Creation time:       Fri Apr 21 16:31:28 2023


#       File generated by GOLD software.
#

@<TRIPOS>MOLECULE
EN300-211058_i001|aminophenols|mol2|43|dock3
    18    18     1
SMALL
USER_CHARGES


@<TRIPOS>ATOM
      1 C1          29.4976  36.4699  41.1844 C.3            1 <1>                0.0000
      2 C2          28.1868  36.6938  40.4752 C.ar           1 <1>                0.0000
      3 C3          26.9947  36.6189  41.1805 C.ar           1 <1>                0.0000
      4 N4          27.0070  36.3354  42.5510 N.pl3          1 <1>                0.0000
      5 C5          25.7852  36.8270  40.5212 C.ar           1 <1>                0.0000
      6 O6          24.6133  36.7552  41.2081 O.3            1 <1>                0.0000
      7 C7          25.7785  37.1077  39.1650 C.ar           1 <1>                0.0000
      8 C8          26.9703  37.1805  38.4675 C.ar           1 <1>                0.0000
      9 C9          28.1724  36.9796  39.1222 C.ar           1 <1>                0.0000
     10 Br10        29.7982  37.0814  38.1618 Br             1 <1>                0.0000
     11 H11         29.7541  35.4111  41.1480 H              1 <1>                0.0000
     12 H12         30.2795  37.0502  40.6945 H              1 <1>                0.0000
     13 H13         29.4073  36.7865  42.2234 H              1 <1>                0.0000
     14 H14         24.8420  37.2694  38.6519 H              1 <1>                0.0000
     15 H15         26.9629  37.3991  37.4099 H              1 <1>                0.0000
     16 H16         27.8498  36.1910  43.0089 H              1 <1>                0.0000
     17 H17         26.1726  36.2834  43.0430 H              1 <1>                0.0000
     18 H18         23.8686  36.4320  40.6829 H              1 <1>                0.0000
@<TRIPOS>BOND
    1    1    2 1     
    2    1   11 1     
    3    1   12 1     
    4    1   13 1     
    5    2    3 ar    
    6    2    9 ar    
    7    3    4 1     
    8    3    5 ar    
    9    4   16 1     
   10    4   17 1     
   11    5    6 1     
   12    5    7 ar    
   13    6   18 1     
   14    7    8 ar    
   15    7   14 1     
   16    8    9 ar    
   17    8   15 1     
   18    9   10 1     
@<TRIPOS>SUBSTRUCTURE
      1 ****           1
@<TRIPOS>SET
DONOR_HYDROGENS      STATIC     ATOMS    <user>   **** ""
3 16 17 18
ATOM$RED        STATIC     ATOMS    COLORGROUP SYSTEM
3 16 17 18
@<TRIPOS>COMMENT
> <Gold.Version>
2022.2.0

> <Gold.Id.Protein>
1qkm|1qkm_protein|mol2

> <Gold.Protein.RotatedTorsions>
[  496  491  490  487 ] final  -33.96 input  -89.99 | X-H torsion

> <Gold.Protein.ActiveResidues>
 MET295  LEU298  THR299  LEU301  ALA302  GLU305  TRP335  MET336  LEU339  MET340 
 GLY342  LEU343  ARG346  PHE356  ILE373  ILE376  PHE377  LEU380  LYS471  GLY472 
 MET473  HIS475  LEU476  LEU477  ASN478  MET479  VAL484  VAL487 

> <Gold.Protein.RotatedAtoms>
   36.3324   34.6051   41.8554 H   0  0  0  0  0  0  0  0  0  0  0  0  # atno 496  bound_to 491 

> <Gold.Score>
     Score     S(PLP)   S(hbond)     S(cho)   S(metal)  DE(clash)   DE(tors)     intcor
     40.58     -35.77       1.60       0.00       0.00       0.00       0.00       0.00

> <Gold.PLP.Fitness>
40.5848

> <Gold.PLP.PLP>
-35.7728

> <Gold.PLP.part.hbond>
-2.4251

> <Gold.PLP.part.metal>
0.0000

> <Gold.PLP.part.buried>
0.6320

> <Gold.PLP.part.nonpolar>
-34.4680

> <Gold.PLP.part.repulsive>
0.0687

> <Gold.PLP.ligand.clash>
0.0000

> <Gold.PLP.ligand.torsion>
0.0000

> <Gold.PLP.Chemscore.Hbond>
1.6040

> <Gold.PLP.Chemscore.CHOScore>
0.0000

> <Gold.PLP.Chemscore.Metal>
0.0000

> <Gold.Chemscore.Hbonds>
donor molecule, donor type, donor heavy atom, donor atom, acceptor molecule, acceptor atom, score
      L1  H     4    17       P1   582  0.16
      L1  H     6    18       P1  1131  1.00
      P1  H  1258  1270       L1     6  0.44

> <Gold.PLP.Chemscore.Internal.Correction>
0.0000

