#       Name:                EN300-211058_i001
#       Creating user name   aseyller
#       Creation time:       Fri Apr 21 16:31:31 2023


#       File generated by GOLD software.
#

@<TRIPOS>MOLECULE
EN300-211058_i001|aminophenols|mol2|43|dock14
    18    18     1
SMALL
USER_CHARGES


@<TRIPOS>ATOM
      1 C1          29.3587  35.7149  39.7228 C.3            1 <1>                0.0000
      2 C2          28.0000  36.2813  40.0459 C.ar           1 <1>                0.0000
      3 C3          27.5848  36.3780  41.3660 C.ar           1 <1>                0.0000
      4 N4          28.4261  35.9502  42.3994 N.pl3          1 <1>                0.0000
      5 C5          26.3281  36.9025  41.6604 C.ar           1 <1>                0.0000
      6 O6          25.9161  37.0002  42.9531 O.3            1 <1>                0.0000
      7 C7          25.4995  37.3249  40.6342 C.ar           1 <1>                0.0000
      8 C8          25.9191  37.2252  39.3204 C.ar           1 <1>                0.0000
      9 C9          27.1690  36.7098  39.0270 C.ar           1 <1>                0.0000
     10 Br10        27.7363  36.5773  37.2279 Br             1 <1>                0.0000
     11 H11         29.2797  34.6365  39.5860 H              1 <1>                0.0000
     12 H12         29.7338  36.1709  38.8065 H              1 <1>                0.0000
     13 H13         30.0454  35.9280  40.5420 H              1 <1>                0.0000
     14 H14         24.5249  37.7318  40.8602 H              1 <1>                0.0000
     15 H15         25.2713  37.5547  38.5216 H              1 <1>                0.0000
     16 H16         29.3009  35.5855  42.1930 H              1 <1>                0.0000
     17 H17         28.1345  36.0186  43.3220 H              1 <1>                0.0000
     18 H18         25.8689  36.1526  43.4161 H              1 <1>                0.0000
@<TRIPOS>BOND
    1    1    2 1     
    2    1   11 1     
    3    1   12 1     
    4    1   13 1     
    5    2    3 ar    
    6    2    9 ar    
    7    3    4 1     
    8    3    5 ar    
    9    4   16 1     
   10    4   17 1     
   11    5    6 1     
   12    5    7 ar    
   13    6   18 1     
   14    7    8 ar    
   15    7   14 1     
   16    8    9 ar    
   17    8   15 1     
   18    9   10 1     
@<TRIPOS>SUBSTRUCTURE
      1 ****           1
@<TRIPOS>SET
DONOR_HYDROGENS      STATIC     ATOMS    <user>   **** ""
3 16 17 18
ATOM$RED        STATIC     ATOMS    COLORGROUP SYSTEM
3 16 17 18
@<TRIPOS>COMMENT
> <Gold.Version>
2022.2.0

> <Gold.Id.Protein>
1qkm|1qkm_protein|mol2

> <Gold.Protein.RotatedTorsions>
[  496  491  490  487 ] final   53.14 input  -89.99 | X-H torsion

> <Gold.Protein.ActiveResidues>
 MET295  LEU298  THR299  LEU301  ALA302  GLU305  TRP335  MET336  LEU339  MET340 
 GLY342  LEU343  ARG346  PHE356  ILE373  ILE376  PHE377  LEU380  LYS471  GLY472 
 MET473  HIS475  LEU476  LEU477  ASN478  MET479  VAL484  VAL487 

> <Gold.Protein.RotatedAtoms>
   36.4966   33.4106   42.3403 H   0  0  0  0  0  0  0  0  0  0  0  0  # atno 496  bound_to 491 

> <Gold.Score>
     Score     S(PLP)   S(hbond)     S(cho)   S(metal)  DE(clash)   DE(tors)     intcor
     35.41     -32.40       1.00       0.00       0.00       0.00       0.00       0.00

> <Gold.PLP.Fitness>
35.4111

> <Gold.PLP.PLP>
-32.4043

> <Gold.PLP.part.hbond>
-3.5453

> <Gold.PLP.part.metal>
0.0000

> <Gold.PLP.part.buried>
0.5622

> <Gold.PLP.part.nonpolar>
-30.0151

> <Gold.PLP.part.repulsive>
0.0815

> <Gold.PLP.ligand.clash>
0.0000

> <Gold.PLP.ligand.torsion>
0.0000

> <Gold.PLP.Chemscore.Hbond>
1.0023

> <Gold.PLP.Chemscore.CHOScore>
0.0000

> <Gold.PLP.Chemscore.Metal>
0.0000

> <Gold.Chemscore.Hbonds>
donor molecule, donor type, donor heavy atom, donor atom, acceptor molecule, acceptor atom, score
      L1  H     6    18       P1   582  1.00

> <Gold.PLP.Chemscore.Internal.Correction>
0.0000

