#       Name:                EN300-211058_i001
#       Creating user name   aseyller
#       Creation time:       Fri Apr 21 16:31:33 2023


#       File generated by GOLD software.
#

@<TRIPOS>MOLECULE
EN300-211058_i001|aminophenols|mol2|43|dock18
    18    18     1
SMALL
USER_CHARGES


@<TRIPOS>ATOM
      1 C1          31.9294  38.3537  36.0556 C.3            1 <1>                0.0000
      2 C2          31.1829  37.6079  37.1315 C.ar           1 <1>                0.0000
      3 C3          31.7057  36.4330  37.6516 C.ar           1 <1>                0.0000
      4 N4          32.9264  35.9383  37.1786 N.pl3          1 <1>                0.0000
      5 C5          31.0125  35.7468  38.6464 C.ar           1 <1>                0.0000
      6 O6          31.5208  34.5945  39.1603 O.3            1 <1>                0.0000
      7 C7          29.8050  36.2406  39.1115 C.ar           1 <1>                0.0000
      8 C8          29.2890  37.4122  38.5885 C.ar           1 <1>                0.0000
      9 C9          29.9791  38.0975  37.6046 C.ar           1 <1>                0.0000
     10 Br10        29.2676  39.6992  36.8946 Br             1 <1>                0.0000
     11 H11         31.6120  37.9938  35.0769 H              1 <1>                0.0000
     12 H12         31.7161  39.4195  36.1375 H              1 <1>                0.0000
     13 H13         33.0001  38.1874  36.1742 H              1 <1>                0.0000
     14 H14         29.2660  35.7103  39.8826 H              1 <1>                0.0000
     15 H15         28.3472  37.7954  38.9521 H              1 <1>                0.0000
     16 H16         33.4082  36.4172  36.4861 H              1 <1>                0.0000
     17 H17         33.2909  35.1166  37.5433 H              1 <1>                0.0000
     18 H18         31.5501  34.5739  40.1266 H              1 <1>                0.0000
@<TRIPOS>BOND
    1    1    2 1     
    2    1   11 1     
    3    1   12 1     
    4    1   13 1     
    5    2    3 ar    
    6    2    9 ar    
    7    3    4 1     
    8    3    5 ar    
    9    4   16 1     
   10    4   17 1     
   11    5    6 1     
   12    5    7 ar    
   13    6   18 1     
   14    7    8 ar    
   15    7   14 1     
   16    8    9 ar    
   17    8   15 1     
   18    9   10 1     
@<TRIPOS>SUBSTRUCTURE
      1 ****           1
@<TRIPOS>SET
DONOR_HYDROGENS      STATIC     ATOMS    <user>   **** ""
3 16 17 18
ATOM$RED        STATIC     ATOMS    COLORGROUP SYSTEM
3 16 17 18
@<TRIPOS>COMMENT
> <Gold.Version>
2022.2.0

> <Gold.Id.Protein>
1qkm|1qkm_protein|mol2

> <Gold.Protein.RotatedTorsions>
[  496  491  490  487 ] final -165.50 input  -89.99 | X-H torsion

> <Gold.Protein.ActiveResidues>
 MET295  LEU298  THR299  LEU301  ALA302  GLU305  TRP335  MET336  LEU339  MET340 
 GLY342  LEU343  ARG346  PHE356  ILE373  ILE376  PHE377  LEU380  LYS471  GLY472 
 MET473  HIS475  LEU476  LEU477  ASN478  MET479  VAL484  VAL487 

> <Gold.Protein.RotatedAtoms>
   37.2931   33.6778   40.7709 H   0  0  0  0  0  0  0  0  0  0  0  0  # atno 496  bound_to 491 

> <Gold.Score>
     Score     S(PLP)   S(hbond)     S(cho)   S(metal)  DE(clash)   DE(tors)     intcor
     33.26     -30.26       1.00       0.00       0.00       0.00       0.00       0.00

> <Gold.PLP.Fitness>
33.2604

> <Gold.PLP.PLP>
-30.2604

> <Gold.PLP.part.hbond>
-1.0000

> <Gold.PLP.part.metal>
0.0000

> <Gold.PLP.part.buried>
-2.6227

> <Gold.PLP.part.nonpolar>
-27.3697

> <Gold.PLP.part.repulsive>
0.0127

> <Gold.PLP.ligand.clash>
0.0000

> <Gold.PLP.ligand.torsion>
0.0000

> <Gold.PLP.Chemscore.Hbond>
1.0000

> <Gold.PLP.Chemscore.CHOScore>
0.0000

> <Gold.PLP.Chemscore.Metal>
0.0000

> <Gold.Chemscore.Hbonds>
donor molecule, donor type, donor heavy atom, donor atom, acceptor molecule, acceptor atom, score
      L1  H     6    18       P1   470  1.00

> <Gold.PLP.Chemscore.Internal.Correction>
0.0000

