#       Name:                EN300-211058_i001
#       Creating user name   aseyller
#       Creation time:       Fri Apr 21 16:31:32 2023


#       File generated by GOLD software.
#

@<TRIPOS>MOLECULE
EN300-211058_i001|aminophenols|mol2|43|dock16
    18    18     1
SMALL
USER_CHARGES


@<TRIPOS>ATOM
      1 C1          28.7779  35.8159  42.0105 C.3            1 <1>                0.0000
      2 C2          27.9274  36.3061  40.8669 C.ar           1 <1>                0.0000
      3 C3          26.6271  36.7287  41.1009 C.ar           1 <1>                0.0000
      4 N4          26.1029  36.7007  42.3983 N.pl3          1 <1>                0.0000
      5 C5          25.8443  37.1814  40.0410 C.ar           1 <1>                0.0000
      6 O6          24.5688  37.5975  40.2649 O.3            1 <1>                0.0000
      7 C7          26.3679  37.2076  38.7591 C.ar           1 <1>                0.0000
      8 C8          27.6647  36.7844  38.5324 C.ar           1 <1>                0.0000
      9 C9          28.4449  36.3399  39.5849 C.ar           1 <1>                0.0000
     10 Br10        30.2177  35.7634  39.2674 Br             1 <1>                0.0000
     11 H11         28.6435  34.7407  42.1284 H              1 <1>                0.0000
     12 H12         29.8260  36.0303  41.8016 H              1 <1>                0.0000
     13 H13         28.4795  36.3223  42.9284 H              1 <1>                0.0000
     14 H14         25.7629  37.5582  37.9360 H              1 <1>                0.0000
     15 H15         28.0710  36.8052  37.5321 H              1 <1>                0.0000
     16 H16         26.6490  36.3855  43.1353 H              1 <1>                0.0000
     17 H17         25.1934  36.9967  42.5604 H              1 <1>                0.0000
     18 H18         23.9010  36.9125  40.1238 H              1 <1>                0.0000
@<TRIPOS>BOND
    1    1    2 1     
    2    1   11 1     
    3    1   12 1     
    4    1   13 1     
    5    2    3 ar    
    6    2    9 ar    
    7    3    4 1     
    8    3    5 ar    
    9    4   16 1     
   10    4   17 1     
   11    5    6 1     
   12    5    7 ar    
   13    6   18 1     
   14    7    8 ar    
   15    7   14 1     
   16    8    9 ar    
   17    8   15 1     
   18    9   10 1     
@<TRIPOS>SUBSTRUCTURE
      1 ****           1
@<TRIPOS>SET
DONOR_HYDROGENS      STATIC     ATOMS    <user>   **** ""
3 16 17 18
ATOM$RED        STATIC     ATOMS    COLORGROUP SYSTEM
3 16 17 18
@<TRIPOS>COMMENT
> <Gold.Version>
2022.2.0

> <Gold.Id.Protein>
1qkm|1qkm_protein|mol2

> <Gold.Protein.RotatedTorsions>
[  496  491  490  487 ] final  151.96 input  -89.99 | X-H torsion

> <Gold.Protein.ActiveResidues>
 MET295  LEU298  THR299  LEU301  ALA302  GLU305  TRP335  MET336  LEU339  MET340 
 GLY342  LEU343  ARG346  PHE356  ILE373  ILE376  PHE377  LEU380  LYS471  GLY472 
 MET473  HIS475  LEU476  LEU477  ASN478  MET479  VAL484  VAL487 

> <Gold.Protein.RotatedAtoms>
   37.2706   33.1224   41.1698 H   0  0  0  0  0  0  0  0  0  0  0  0  # atno 496  bound_to 491 

> <Gold.Score>
     Score     S(PLP)   S(hbond)     S(cho)   S(metal)  DE(clash)   DE(tors)     intcor
     37.66     -33.89       1.26       0.00       0.00       0.00       0.00       0.00

> <Gold.PLP.Fitness>
37.6597

> <Gold.PLP.PLP>
-33.8917

> <Gold.PLP.part.hbond>
-2.0000

> <Gold.PLP.part.metal>
0.0000

> <Gold.PLP.part.buried>
2.2562

> <Gold.PLP.part.nonpolar>
-34.9905

> <Gold.PLP.part.repulsive>
0.0976

> <Gold.PLP.ligand.clash>
0.0000

> <Gold.PLP.ligand.torsion>
0.0000

> <Gold.PLP.Chemscore.Hbond>
1.2560

> <Gold.PLP.Chemscore.CHOScore>
0.0000

> <Gold.PLP.Chemscore.Metal>
0.0000

> <Gold.Chemscore.Hbonds>
donor molecule, donor type, donor heavy atom, donor atom, acceptor molecule, acceptor atom, score
      L1  H     4    16       P1   582  0.26
      L1  H     6    18       P1  1131  1.00

> <Gold.PLP.Chemscore.Internal.Correction>
0.0000

