#       Name:                EN300-211058_i001
#       Creating user name   aseyller
#       Creation time:       Fri Apr 21 16:31:31 2023


#       File generated by GOLD software.
#

@<TRIPOS>MOLECULE
EN300-211058_i001|aminophenols|mol2|43|dock13
    18    18     1
SMALL
USER_CHARGES


@<TRIPOS>ATOM
      1 C1          32.5304  35.4545  36.8325 C.3            1 <1>                0.0000
      2 C2          31.3582  36.1102  37.5161 C.ar           1 <1>                0.0000
      3 C3          30.9477  35.6686  38.7654 C.ar           1 <1>                0.0000
      4 N4          31.6208  34.6141  39.3929 N.pl3          1 <1>                0.0000
      5 C5          29.8638  36.2777  39.3940 C.ar           1 <1>                0.0000
      6 O6          29.4574  35.8490  40.6193 O.3            1 <1>                0.0000
      7 C7          29.2014  37.3211  38.7690 C.ar           1 <1>                0.0000
      8 C8          29.6152  37.7563  37.5233 C.ar           1 <1>                0.0000
      9 C9          30.6948  37.1560  36.9005 C.ar           1 <1>                0.0000
     10 Br10        31.2555  37.7569  35.1974 Br             1 <1>                0.0000
     11 H11         32.1766  34.6244  36.2211 H              1 <1>                0.0000
     12 H12         33.0354  36.1833  36.1986 H              1 <1>                0.0000
     13 H13         33.2269  35.0817  37.5834 H              1 <1>                0.0000
     14 H14         28.3609  37.7948  39.2545 H              1 <1>                0.0000
     15 H15         29.0971  38.5697  37.0375 H              1 <1>                0.0000
     16 H16         32.3754  34.1910  38.9543 H              1 <1>                0.0000
     17 H17         31.3327  34.3064  40.2666 H              1 <1>                0.0000
     18 H18         30.1532  35.4216  41.1373 H              1 <1>                0.0000
@<TRIPOS>BOND
    1    1    2 1     
    2    1   11 1     
    3    1   12 1     
    4    1   13 1     
    5    2    3 ar    
    6    2    9 ar    
    7    3    4 1     
    8    3    5 ar    
    9    4   16 1     
   10    4   17 1     
   11    5    6 1     
   12    5    7 ar    
   13    6   18 1     
   14    7    8 ar    
   15    7   14 1     
   16    8    9 ar    
   17    8   15 1     
   18    9   10 1     
@<TRIPOS>SUBSTRUCTURE
      1 ****           1
@<TRIPOS>SET
DONOR_HYDROGENS      STATIC     ATOMS    <user>   **** ""
3 16 17 18
ATOM$RED        STATIC     ATOMS    COLORGROUP SYSTEM
3 16 17 18
@<TRIPOS>COMMENT
> <Gold.Version>
2022.2.0

> <Gold.Id.Protein>
1qkm|1qkm_protein|mol2

> <Gold.Protein.RotatedTorsions>
[  496  491  490  487 ] final  137.65 input  -89.99 | X-H torsion

> <Gold.Protein.ActiveResidues>
 MET295  LEU298  THR299  LEU301  ALA302  GLU305  TRP335  MET336  LEU339  MET340 
 GLY342  LEU343  ARG346  PHE356  ILE373  ILE376  PHE377  LEU380  LYS471  GLY472 
 MET473  HIS475  LEU476  LEU477  ASN478  MET479  VAL484  VAL487 

> <Gold.Protein.RotatedAtoms>
   37.2010   33.0103   41.3642 H   0  0  0  0  0  0  0  0  0  0  0  0  # atno 496  bound_to 491 

> <Gold.Score>
     Score     S(PLP)   S(hbond)     S(cho)   S(metal)  DE(clash)   DE(tors)     intcor
     35.09     -30.46       1.54       0.00       0.00       0.00       0.00       0.00

> <Gold.PLP.Fitness>
35.0927

> <Gold.PLP.PLP>
-30.4607

> <Gold.PLP.part.hbond>
-2.0000

> <Gold.PLP.part.metal>
0.0000

> <Gold.PLP.part.buried>
-1.3271

> <Gold.PLP.part.nonpolar>
-27.3345

> <Gold.PLP.part.repulsive>
0.1068

> <Gold.PLP.ligand.clash>
0.0000

> <Gold.PLP.ligand.torsion>
0.0000

> <Gold.PLP.Chemscore.Hbond>
1.5440

> <Gold.PLP.Chemscore.CHOScore>
0.0000

> <Gold.PLP.Chemscore.Metal>
0.0000

> <Gold.Chemscore.Hbonds>
donor molecule, donor type, donor heavy atom, donor atom, acceptor molecule, acceptor atom, score
      L1  H     4    17       P1   470  0.54
      L1  H     6    18       P1   470  1.00

> <Gold.PLP.Chemscore.Internal.Correction>
0.0000

