#       Name:                EN300-211058_i001
#       Creating user name   aseyller
#       Creation time:       Fri Apr 21 16:31:32 2023


#       File generated by GOLD software.
#

@<TRIPOS>MOLECULE
EN300-211058_i001|aminophenols|mol2|43|dock15
    18    18     1
SMALL
USER_CHARGES


@<TRIPOS>ATOM
      1 C1          29.5280  38.5149  37.4708 C.3            1 <1>                0.0000
      2 C2          30.5394  37.3979  37.4474 C.ar           1 <1>                0.0000
      3 C3          30.5333  36.4353  38.4462 C.ar           1 <1>                0.0000
      4 N4          29.5886  36.4996  39.4768 N.pl3          1 <1>                0.0000
      5 C5          31.4697  35.4042  38.4206 C.ar           1 <1>                0.0000
      6 O6          31.4679  34.4573  39.3972 O.3            1 <1>                0.0000
      7 C7          32.4022  35.3447  37.3983 C.ar           1 <1>                0.0000
      8 C8          32.4034  36.3077  36.4059 C.ar           1 <1>                0.0000
      9 C9          31.4705  37.3290  36.4271 C.ar           1 <1>                0.0000
     10 Br10        31.4777  38.6419  35.0661 Br             1 <1>                0.0000
     11 H11         29.9304  39.3576  38.0330 H              1 <1>                0.0000
     12 H12         29.3107  38.8297  36.4502 H              1 <1>                0.0000
     13 H13         28.6116  38.1654  37.9461 H              1 <1>                0.0000
     14 H14         33.1291  34.5462  37.3765 H              1 <1>                0.0000
     15 H15         33.1316  36.2598  35.6098 H              1 <1>                0.0000
     16 H16         28.9370  37.2179  39.4934 H              1 <1>                0.0000
     17 H17         29.5854  35.8257  40.1746 H              1 <1>                0.0000
     18 H18         31.4783  34.8176  40.2945 H              1 <1>                0.0000
@<TRIPOS>BOND
    1    1    2 1     
    2    1   11 1     
    3    1   12 1     
    4    1   13 1     
    5    2    3 ar    
    6    2    9 ar    
    7    3    4 1     
    8    3    5 ar    
    9    4   16 1     
   10    4   17 1     
   11    5    6 1     
   12    5    7 ar    
   13    6   18 1     
   14    7    8 ar    
   15    7   14 1     
   16    8    9 ar    
   17    8   15 1     
   18    9   10 1     
@<TRIPOS>SUBSTRUCTURE
      1 ****           1
@<TRIPOS>SET
DONOR_HYDROGENS      STATIC     ATOMS    <user>   **** ""
3 16 17 18
ATOM$RED        STATIC     ATOMS    COLORGROUP SYSTEM
3 16 17 18
@<TRIPOS>COMMENT
> <Gold.Version>
2022.2.0

> <Gold.Id.Protein>
1qkm|1qkm_protein|mol2

> <Gold.Protein.RotatedTorsions>
[  496  491  490  487 ] final -176.62 input  -89.99 | X-H torsion

> <Gold.Protein.ActiveResidues>
 MET295  LEU298  THR299  LEU301  ALA302  GLU305  TRP335  MET336  LEU339  MET340 
 GLY342  LEU343  ARG346  PHE356  ILE373  ILE376  PHE377  LEU380  LYS471  GLY472 
 MET473  HIS475  LEU476  LEU477  ASN478  MET479  VAL484  VAL487 

> <Gold.Protein.RotatedAtoms>
   37.3151   33.5105   40.8407 H   0  0  0  0  0  0  0  0  0  0  0  0  # atno 496  bound_to 491 

> <Gold.Score>
     Score     S(PLP)   S(hbond)     S(cho)   S(metal)  DE(clash)   DE(tors)     intcor
     33.32     -30.32       1.00       0.00       0.00       0.00       0.00       0.00

> <Gold.PLP.Fitness>
33.3232

> <Gold.PLP.PLP>
-30.3232

> <Gold.PLP.part.hbond>
-1.0000

> <Gold.PLP.part.metal>
0.0000

> <Gold.PLP.part.buried>
-1.3496

> <Gold.PLP.part.nonpolar>
-27.6712

> <Gold.PLP.part.repulsive>
0.0000

> <Gold.PLP.ligand.clash>
0.0000

> <Gold.PLP.ligand.torsion>
0.0000

> <Gold.PLP.Chemscore.Hbond>
1.0000

> <Gold.PLP.Chemscore.CHOScore>
0.0000

> <Gold.PLP.Chemscore.Metal>
0.0000

> <Gold.Chemscore.Hbonds>
donor molecule, donor type, donor heavy atom, donor atom, acceptor molecule, acceptor atom, score
      L1  H     6    18       P1   470  1.00

> <Gold.PLP.Chemscore.Internal.Correction>
0.0000

