#       Name:                EN300-211058_i001
#       Creating user name   aseyller
#       Creation time:       Fri Apr 21 16:31:31 2023


#       File generated by GOLD software.
#

@<TRIPOS>MOLECULE
EN300-211058_i001|aminophenols|mol2|43|dock12
    18    18     1
SMALL
USER_CHARGES


@<TRIPOS>ATOM
      1 C1          29.8676  38.9295  36.7223 C.3            1 <1>                0.0000
      2 C2          30.8656  37.8189  36.5181 C.ar           1 <1>                0.0000
      3 C3          31.6279  37.7754  35.3599 C.ar           1 <1>                0.0000
      4 N4          31.4716  38.7619  34.3795 N.pl3          1 <1>                0.0000
      5 C5          32.5496  36.7472  35.1752 C.ar           1 <1>                0.0000
      6 O6          33.3000  36.6999  34.0416 O.3            1 <1>                0.0000
      7 C7          32.7008  35.7735  36.1485 C.ar           1 <1>                0.0000
      8 C8          31.9376  35.8223  37.3006 C.ar           1 <1>                0.0000
      9 C9          31.0259  36.8459  37.4877 C.ar           1 <1>                0.0000
     10 Br10        29.9861  36.9065  39.0661 Br             1 <1>                0.0000
     11 H11         28.9018  38.6294  36.3156 H              1 <1>                0.0000
     12 H12         29.7653  39.1346  37.7879 H              1 <1>                0.0000
     13 H13         30.2139  39.8277  36.2111 H              1 <1>                0.0000
     14 H14         33.4148  34.9756  36.0075 H              1 <1>                0.0000
     15 H15         32.0567  35.0620  38.0582 H              1 <1>                0.0000
     16 H16         30.8296  39.4774  34.5094 H              1 <1>                0.0000
     17 H17         32.0054  38.7303  33.5702 H              1 <1>                0.0000
     18 H18         32.8597  36.2695  33.2960 H              1 <1>                0.0000
@<TRIPOS>BOND
    1    1    2 1     
    2    1   11 1     
    3    1   12 1     
    4    1   13 1     
    5    2    3 ar    
    6    2    9 ar    
    7    3    4 1     
    8    3    5 ar    
    9    4   16 1     
   10    4   17 1     
   11    5    6 1     
   12    5    7 ar    
   13    6   18 1     
   14    7    8 ar    
   15    7   14 1     
   16    8    9 ar    
   17    8   15 1     
   18    9   10 1     
@<TRIPOS>SUBSTRUCTURE
      1 ****           1
@<TRIPOS>SET
DONOR_HYDROGENS      STATIC     ATOMS    <user>   **** ""
3 16 17 18
ATOM$RED        STATIC     ATOMS    COLORGROUP SYSTEM
3 16 17 18
@<TRIPOS>COMMENT
> <Gold.Version>
2022.2.0

> <Gold.Id.Protein>
1qkm|1qkm_protein|mol2

> <Gold.Protein.RotatedTorsions>
[  496  491  490  487 ] final  -17.77 input  -89.99 | X-H torsion

> <Gold.Protein.ActiveResidues>
 MET295  LEU298  THR299  LEU301  ALA302  GLU305  TRP335  MET336  LEU339  MET340 
 GLY342  LEU343  ARG346  PHE356  ILE373  ILE376  PHE377  LEU380  LYS471  GLY472 
 MET473  HIS475  LEU476  LEU477  ASN478  MET479  VAL484  VAL487 

> <Gold.Protein.RotatedAtoms>
   36.2754   34.4446   42.0592 H   0  0  0  0  0  0  0  0  0  0  0  0  # atno 496  bound_to 491 

> <Gold.Score>
     Score     S(PLP)   S(hbond)     S(cho)   S(metal)  DE(clash)   DE(tors)     intcor
     35.82     -32.82       1.00       0.00       0.00       0.00       0.00       0.00

> <Gold.PLP.Fitness>
35.8235

> <Gold.PLP.PLP>
-32.8235

> <Gold.PLP.part.hbond>
-2.4573

> <Gold.PLP.part.metal>
0.0000

> <Gold.PLP.part.buried>
-3.3956

> <Gold.PLP.part.nonpolar>
-27.1478

> <Gold.PLP.part.repulsive>
0.0000

> <Gold.PLP.ligand.clash>
0.0000

> <Gold.PLP.ligand.torsion>
0.0000

> <Gold.PLP.Chemscore.Hbond>
1.0000

> <Gold.PLP.Chemscore.CHOScore>
0.0000

> <Gold.PLP.Chemscore.Metal>
0.0000

> <Gold.Chemscore.Hbonds>
donor molecule, donor type, donor heavy atom, donor atom, acceptor molecule, acceptor atom, score
      L1  H     6    18       P1  3187  1.00

> <Gold.PLP.Chemscore.Internal.Correction>
0.0000

