#       Name:                EN300-211058_i001
#       Creating user name   aseyller
#       Creation time:       Fri Apr 21 16:31:30 2023


#       File generated by GOLD software.
#

@<TRIPOS>MOLECULE
EN300-211058_i001|aminophenols|mol2|43|dock10
    18    18     1
SMALL
USER_CHARGES


@<TRIPOS>ATOM
      1 C1          29.9487  35.8063  39.9130 C.3            1 <1>                0.0000
      2 C2          28.6370  36.4371  39.5224 C.ar           1 <1>                0.0000
      3 C3          27.5201  36.2712  40.3283 C.ar           1 <1>                0.0000
      4 N4          27.6093  35.5182  41.5047 N.pl3          1 <1>                0.0000
      5 C5          26.3095  36.8563  39.9637 C.ar           1 <1>                0.0000
      6 O6          25.2113  36.6972  40.7506 O.3            1 <1>                0.0000
      7 C7          26.2265  37.6009  38.7989 C.ar           1 <1>                0.0000
      8 C8          27.3434  37.7621  37.9996 C.ar           1 <1>                0.0000
      9 C9          28.5476  37.1862  38.3634 C.ar           1 <1>                0.0000
     10 Br10        30.0709  37.4116  37.2657 Br             1 <1>                0.0000
     11 H11         30.0132  34.8065  39.4837 H              1 <1>                0.0000
     12 H12         30.7709  36.4162  39.5386 H              1 <1>                0.0000
     13 H13         30.0109  35.7401  40.9992 H              1 <1>                0.0000
     14 H14         25.2891  38.0554  38.5144 H              1 <1>                0.0000
     15 H15         27.2766  38.3426  37.0915 H              1 <1>                0.0000
     16 H16         28.4529  35.1115  41.7574 H              1 <1>                0.0000
     17 H17         26.8275  35.4031  42.0673 H              1 <1>                0.0000
     18 H18         24.4447  36.3333  40.2871 H              1 <1>                0.0000
@<TRIPOS>BOND
    1    1    2 1     
    2    1   11 1     
    3    1   12 1     
    4    1   13 1     
    5    2    3 ar    
    6    2    9 ar    
    7    3    4 1     
    8    3    5 ar    
    9    4   16 1     
   10    4   17 1     
   11    5    6 1     
   12    5    7 ar    
   13    6   18 1     
   14    7    8 ar    
   15    7   14 1     
   16    8    9 ar    
   17    8   15 1     
   18    9   10 1     
@<TRIPOS>SUBSTRUCTURE
      1 ****           1
@<TRIPOS>SET
DONOR_HYDROGENS      STATIC     ATOMS    <user>   **** ""
3 16 17 18
ATOM$RED        STATIC     ATOMS    COLORGROUP SYSTEM
3 16 17 18
@<TRIPOS>COMMENT
> <Gold.Version>
2022.2.0

> <Gold.Id.Protein>
1qkm|1qkm_protein|mol2

> <Gold.Protein.RotatedTorsions>
[  496  491  490  487 ] final -164.13 input  -89.99 | X-H torsion

> <Gold.Protein.ActiveResidues>
 MET295  LEU298  THR299  LEU301  ALA302  GLU305  TRP335  MET336  LEU339  MET340 
 GLY342  LEU343  ARG346  PHE356  ILE373  ILE376  PHE377  LEU380  LYS471  GLY472 
 MET473  HIS475  LEU476  LEU477  ASN478  MET479  VAL484  VAL487 

> <Gold.Protein.RotatedAtoms>
   37.2891   33.6990   40.7643 H   0  0  0  0  0  0  0  0  0  0  0  0  # atno 496  bound_to 491 

> <Gold.Score>
     Score     S(PLP)   S(hbond)     S(cho)   S(metal)  DE(clash)   DE(tors)     intcor
     39.08     -33.65       1.81       0.00       0.00       0.00       0.00       0.00

> <Gold.PLP.Fitness>
39.0784

> <Gold.PLP.PLP>
-33.6497

> <Gold.PLP.part.hbond>
-2.0000

> <Gold.PLP.part.metal>
0.0000

> <Gold.PLP.part.buried>
-1.5329

> <Gold.PLP.part.nonpolar>
-29.9711

> <Gold.PLP.part.repulsive>
0.0516

> <Gold.PLP.ligand.clash>
0.0000

> <Gold.PLP.ligand.torsion>
0.0000

> <Gold.PLP.Chemscore.Hbond>
1.8096

> <Gold.PLP.Chemscore.CHOScore>
0.0000

> <Gold.PLP.Chemscore.Metal>
0.0000

> <Gold.Chemscore.Hbonds>
donor molecule, donor type, donor heavy atom, donor atom, acceptor molecule, acceptor atom, score
      L1  H     4    17       P1   582  0.86
      L1  H     6    18       P1  1131  0.95

> <Gold.PLP.Chemscore.Internal.Correction>
0.0000

