#       Name:                EN300-211058_i001
#       Creating user name   aseyller
#       Creation time:       Fri Apr 21 16:31:28 2023


#       File generated by GOLD software.
#

@<TRIPOS>MOLECULE
EN300-211058_i001|aminophenols|mol2|43|dock4
    18    18     1
SMALL
USER_CHARGES


@<TRIPOS>ATOM
      1 C1          28.4416  36.0117  41.7996 C.3            1 <1>                0.0000
      2 C2          28.1161  36.4545  40.3963 C.ar           1 <1>                0.0000
      3 C3          29.0866  36.3942  39.4070 C.ar           1 <1>                0.0000
      4 N4          30.3689  35.9224  39.7099 N.pl3          1 <1>                0.0000
      5 C5          28.7813  36.8041  38.1110 C.ar           1 <1>                0.0000
      6 O6          29.7291  36.7466  37.1369 O.3            1 <1>                0.0000
      7 C7          27.5107  37.2698  37.8162 C.ar           1 <1>                0.0000
      8 C8          26.5479  37.3279  38.8071 C.ar           1 <1>                0.0000
      9 C9          26.8481  36.9158  40.0932 C.ar           1 <1>                0.0000
     10 Br10        25.5260  36.9975  41.4428 Br             1 <1>                0.0000
     11 H11         28.8168  36.8609  42.3707 H              1 <1>                0.0000
     12 H12         27.5417  35.6227  42.2758 H              1 <1>                0.0000
     13 H13         29.2018  35.2312  41.7672 H              1 <1>                0.0000
     14 H14         27.2719  37.5880  36.8122 H              1 <1>                0.0000
     15 H15         25.5578  37.6916  38.5753 H              1 <1>                0.0000
     16 H16         30.5801  35.6371  40.6126 H              1 <1>                0.0000
     17 H17         31.0466  35.8807  39.0170 H              1 <1>                0.0000
     18 H18         29.7383  37.5159  36.5511 H              1 <1>                0.0000
@<TRIPOS>BOND
    1    1    2 1     
    2    1   11 1     
    3    1   12 1     
    4    1   13 1     
    5    2    3 ar    
    6    2    9 ar    
    7    3    4 1     
    8    3    5 ar    
    9    4   16 1     
   10    4   17 1     
   11    5    6 1     
   12    5    7 ar    
   13    6   18 1     
   14    7    8 ar    
   15    7   14 1     
   16    8    9 ar    
   17    8   15 1     
   18    9   10 1     
@<TRIPOS>SUBSTRUCTURE
      1 ****           1
@<TRIPOS>SET
DONOR_HYDROGENS      STATIC     ATOMS    <user>   **** ""
3 16 17 18
ATOM$RED        STATIC     ATOMS    COLORGROUP SYSTEM
3 16 17 18
@<TRIPOS>COMMENT
> <Gold.Version>
2022.2.0

> <Gold.Id.Protein>
1qkm|1qkm_protein|mol2

> <Gold.Protein.RotatedTorsions>
[  496  491  490  487 ] final  137.45 input  -89.99 | X-H torsion

> <Gold.Protein.ActiveResidues>
 MET295  LEU298  THR299  LEU301  ALA302  GLU305  TRP335  MET336  LEU339  MET340 
 GLY342  LEU343  ARG346  PHE356  ILE373  ILE376  PHE377  LEU380  LYS471  GLY472 
 MET473  HIS475  LEU476  LEU477  ASN478  MET479  VAL484  VAL487 

> <Gold.Protein.RotatedAtoms>
   37.1998   33.0091   41.3671 H   0  0  0  0  0  0  0  0  0  0  0  0  # atno 496  bound_to 491 

> <Gold.Score>
     Score     S(PLP)   S(hbond)     S(cho)   S(metal)  DE(clash)   DE(tors)     intcor
     40.21     -37.21       1.00       0.00       0.00       0.00       0.00       0.00

> <Gold.PLP.Fitness>
40.2105

> <Gold.PLP.PLP>
-37.2105

> <Gold.PLP.part.hbond>
-1.0000

> <Gold.PLP.part.metal>
0.0000

> <Gold.PLP.part.buried>
-1.8613

> <Gold.PLP.part.nonpolar>
-34.7643

> <Gold.PLP.part.repulsive>
0.0527

> <Gold.PLP.ligand.clash>
0.0000

> <Gold.PLP.ligand.torsion>
0.0000

> <Gold.PLP.Chemscore.Hbond>
1.0000

> <Gold.PLP.Chemscore.CHOScore>
0.0000

> <Gold.PLP.Chemscore.Metal>
0.0000

> <Gold.Chemscore.Hbonds>
donor molecule, donor type, donor heavy atom, donor atom, acceptor molecule, acceptor atom, score
      L1  H     4    16       P1   470  1.00

> <Gold.PLP.Chemscore.Internal.Correction>
0.0000

