#       Name:                EN300-211058_i001
#       Creating user name   aseyller
#       Creation time:       Fri Apr 21 16:31:27 2023


#       File generated by GOLD software.
#

@<TRIPOS>MOLECULE
EN300-211058_i001
    18    18     1
SMALL
USER_CHARGES


@<TRIPOS>ATOM
      1 C1          -1.2976   1.8463  -0.0393 C.3            1 <1>                0.0000
      2 C2          -0.6970   0.4641  -0.0462 C.ar           1 <1>                0.0000
      3 C3           0.6812   0.3065  -0.0509 C.ar           1 <1>                0.0000
      4 N4           1.5159   1.4299  -0.0493 N.pl3          1 <1>                0.0000
      5 C5           1.2323  -0.9730  -0.0569 C.ar           1 <1>                0.0000
      6 O6           2.5831  -1.1333  -0.0610 O.3            1 <1>                0.0000
      7 C7           0.4020  -2.0815  -0.0580 C.ar           1 <1>                0.0000
      8 C8          -0.9711  -1.9176  -0.0538 C.ar           1 <1>                0.0000
      9 C9          -1.5196  -0.6476  -0.0422 C.ar           1 <1>                0.0000
     10 Br10        -3.3982  -0.4313  -0.0358 Br             1 <1>                0.0000
     11 H11         -1.4455   2.1833  -1.0653 H              1 <1>                0.0000
     12 H12         -2.2571   1.8229   0.4773 H              1 <1>                0.0000
     13 H13         -0.6247   2.5323   0.4751 H              1 <1>                0.0000
     14 H14          0.8271  -3.0743  -0.0626 H              1 <1>                0.0000
     15 H15         -1.6168  -2.7832  -0.0551 H              1 <1>                0.0000
     16 H16          1.1309   2.3202  -0.0449 H              1 <1>                0.0000
     17 H17          2.4795   1.3182  -0.0525 H              1 <1>                0.0000
     18 H18          2.9761  -1.1827   0.8211 H              1 <1>                0.0000
@<TRIPOS>BOND
    1    1    2 1     
    2    1   11 1     
    3    1   12 1     
    4    1   13 1     
    5    2    3 ar    
    6    2    9 ar    
    7    3    4 1     
    8    3    5 ar    
    9    4   16 1     
   10    4   17 1     
   11    5    6 1     
   12    5    7 ar    
   13    6   18 1     
   14    7    8 ar    
   15    7   14 1     
   16    8    9 ar    
   17    8   15 1     
   18    9   10 1     
@<TRIPOS>SUBSTRUCTURE
      1 ****           1
@<TRIPOS>SET
DONOR_HYDROGENS      STATIC     ATOMS    <user>   **** ""
3 16 17 18
ATOM$RED        STATIC     ATOMS    COLORGROUP SYSTEM
3 16 17 18
