#       Name:                EN300-211058_i001
#       Creating user name   aseyller
#       Creation time:       Fri Apr 21 16:31:28 2023


#       File generated by GOLD software.
#

@<TRIPOS>MOLECULE
EN300-211058_i001|aminophenols|mol2|43|dock5
    18    18     1
SMALL
USER_CHARGES


@<TRIPOS>ATOM
      1 C1          25.5435  37.2998  39.1120 C.3            1 <1>                0.0000
      2 C2          26.9769  37.0240  39.4868 C.ar           1 <1>                0.0000
      3 C3          27.2707  36.3834  40.6815 C.ar           1 <1>                0.0000
      4 N4          26.2374  35.9922  41.5406 N.pl3          1 <1>                0.0000
      5 C5          28.5972  36.1300  41.0240 C.ar           1 <1>                0.0000
      6 O6          28.8909  35.5016  42.1941 O.3            1 <1>                0.0000
      7 C7          29.6161  36.5186  40.1702 C.ar           1 <1>                0.0000
      8 C8          29.3166  37.1574  38.9809 C.ar           1 <1>                0.0000
      9 C9          27.9995  37.4046  38.6371 C.ar           1 <1>                0.0000
     10 Br10        27.5975  38.2778  37.0086 Br             1 <1>                0.0000
     11 H11         25.2487  38.2761  39.4970 H              1 <1>                0.0000
     12 H12         25.4438  37.2921  38.0267 H              1 <1>                0.0000
     13 H13         24.9013  36.5309  39.5413 H              1 <1>                0.0000
     14 H14         30.6451  36.3232  40.4337 H              1 <1>                0.0000
     15 H15         30.1125  37.4600  38.3167 H              1 <1>                0.0000
     16 H16         25.3143  36.1690  41.3009 H              1 <1>                0.0000
     17 H17         26.4443  35.5442  42.3758 H              1 <1>                0.0000
     18 H18         29.8377  35.3800  42.3485 H              1 <1>                0.0000
@<TRIPOS>BOND
    1    1    2 1     
    2    1   11 1     
    3    1   12 1     
    4    1   13 1     
    5    2    3 ar    
    6    2    9 ar    
    7    3    4 1     
    8    3    5 ar    
    9    4   16 1     
   10    4   17 1     
   11    5    6 1     
   12    5    7 ar    
   13    6   18 1     
   14    7    8 ar    
   15    7   14 1     
   16    8    9 ar    
   17    8   15 1     
   18    9   10 1     
@<TRIPOS>SUBSTRUCTURE
      1 ****           1
@<TRIPOS>SET
DONOR_HYDROGENS      STATIC     ATOMS    <user>   **** ""
3 16 17 18
ATOM$RED        STATIC     ATOMS    COLORGROUP SYSTEM
3 16 17 18
@<TRIPOS>COMMENT
> <Gold.Version>
2022.2.0

> <Gold.Id.Protein>
1qkm|1qkm_protein|mol2

> <Gold.Protein.RotatedTorsions>
[  496  491  490  487 ] final  165.14 input  -89.99 | X-H torsion

> <Gold.Protein.ActiveResidues>
 MET295  LEU298  THR299  LEU301  ALA302  GLU305  TRP335  MET336  LEU339  MET340 
 GLY342  LEU343  ARG346  PHE356  ILE373  ILE376  PHE377  LEU380  LYS471  GLY472 
 MET473  HIS475  LEU476  LEU477  ASN478  MET479  VAL484  VAL487 

> <Gold.Protein.RotatedAtoms>
   37.3082   33.2650   41.0115 H   0  0  0  0  0  0  0  0  0  0  0  0  # atno 496  bound_to 491 

> <Gold.Score>
     Score     S(PLP)   S(hbond)     S(cho)   S(metal)  DE(clash)   DE(tors)     intcor
     40.44     -34.44       2.00       0.00       0.00       0.00       0.00       0.00

> <Gold.PLP.Fitness>
40.4355

> <Gold.PLP.PLP>
-34.4355

> <Gold.PLP.part.hbond>
-3.0000

> <Gold.PLP.part.metal>
0.0000

> <Gold.PLP.part.buried>
-2.8449

> <Gold.PLP.part.nonpolar>
-29.7558

> <Gold.PLP.part.repulsive>
0.0534

> <Gold.PLP.ligand.clash>
0.0000

> <Gold.PLP.ligand.torsion>
0.0000

> <Gold.PLP.Chemscore.Hbond>
2.0000

> <Gold.PLP.Chemscore.CHOScore>
0.0000

> <Gold.PLP.Chemscore.Metal>
0.0000

> <Gold.Chemscore.Hbonds>
donor molecule, donor type, donor heavy atom, donor atom, acceptor molecule, acceptor atom, score
      L1  H     4    17       P1   582  1.00
      L1  H     6    18       P1   470  1.00

> <Gold.PLP.Chemscore.Internal.Correction>
0.0000

