#       Name:                EN300-211058_i001
#       Creating user name   aseyller
#       Creation time:       Fri Apr 21 16:31:28 2023


#       File generated by GOLD software.
#

@<TRIPOS>MOLECULE
EN300-211058_i001|aminophenols|mol2|43|dock2
    18    18     1
SMALL
USER_CHARGES


@<TRIPOS>ATOM
      1 C1          30.3384  36.1290  39.3783 C.3            1 <1>                0.0000
      2 C2          28.8807  36.4880  39.5098 C.ar           1 <1>                0.0000
      3 C3          28.2215  36.2829  40.7130 C.ar           1 <1>                0.0000
      4 N4          28.9083  35.7425  41.8062 N.pl3          1 <1>                0.0000
      5 C5          26.8739  36.6164  40.8305 C.ar           1 <1>                0.0000
      6 O6          26.2228  36.4179  42.0082 O.3            1 <1>                0.0000
      7 C7          26.1988  37.1513  39.7459 C.ar           1 <1>                0.0000
      8 C8          26.8616  37.3528  38.5491 C.ar           1 <1>                0.0000
      9 C9          28.2011  37.0272  38.4328 C.ar           1 <1>                0.0000
     10 Br10        29.1010  37.3063  36.7932 Br             1 <1>                0.0000
     11 H11         30.4294  35.0960  39.0424 H              1 <1>                0.0000
     12 H12         30.8112  36.7901  38.6520 H              1 <1>                0.0000
     13 H13         30.8290  36.2414  40.3451 H              1 <1>                0.0000
     14 H14         25.1542  37.4106  39.8348 H              1 <1>                0.0000
     15 H15         26.3333  37.7696  37.7045 H              1 <1>                0.0000
     16 H16         29.8466  35.5109  41.7231 H              1 <1>                0.0000
     17 H17         28.4461  35.5997  42.6470 H              1 <1>                0.0000
     18 H18         26.7600  35.9872  42.6870 H              1 <1>                0.0000
@<TRIPOS>BOND
    1    1    2 1     
    2    1   11 1     
    3    1   12 1     
    4    1   13 1     
    5    2    3 ar    
    6    2    9 ar    
    7    3    4 1     
    8    3    5 ar    
    9    4   16 1     
   10    4   17 1     
   11    5    6 1     
   12    5    7 ar    
   13    6   18 1     
   14    7    8 ar    
   15    7   14 1     
   16    8    9 ar    
   17    8   15 1     
   18    9   10 1     
@<TRIPOS>SUBSTRUCTURE
      1 ****           1
@<TRIPOS>SET
DONOR_HYDROGENS      STATIC     ATOMS    <user>   **** ""
3 16 17 18
ATOM$RED        STATIC     ATOMS    COLORGROUP SYSTEM
3 16 17 18
@<TRIPOS>COMMENT
> <Gold.Version>
2022.2.0

> <Gold.Id.Protein>
1qkm|1qkm_protein|mol2

> <Gold.Protein.RotatedTorsions>
[  496  491  490  487 ] final  -44.03 input  -89.99 | X-H torsion

> <Gold.Protein.ActiveResidues>
 MET295  LEU298  THR299  LEU301  ALA302  GLU305  TRP335  MET336  LEU339  MET340 
 GLY342  LEU343  ARG346  PHE356  ILE373  ILE376  PHE377  LEU380  LYS471  GLY472 
 MET473  HIS475  LEU476  LEU477  ASN478  MET479  VAL484  VAL487 

> <Gold.Protein.RotatedAtoms>
   36.3865   34.6749   41.7154 H   0  0  0  0  0  0  0  0  0  0  0  0  # atno 496  bound_to 491 

> <Gold.Score>
     Score     S(PLP)   S(hbond)     S(cho)   S(metal)  DE(clash)   DE(tors)     intcor
     39.65     -35.33       1.44       0.00       0.00       0.00       0.00       0.00

> <Gold.PLP.Fitness>
39.6526

> <Gold.PLP.PLP>
-35.3349

> <Gold.PLP.part.hbond>
-2.0000

> <Gold.PLP.part.metal>
0.0000

> <Gold.PLP.part.buried>
-3.5316

> <Gold.PLP.part.nonpolar>
-30.3883

> <Gold.PLP.part.repulsive>
0.0890

> <Gold.PLP.ligand.clash>
0.0000

> <Gold.PLP.ligand.torsion>
0.0000

> <Gold.PLP.Chemscore.Hbond>
1.4393

> <Gold.PLP.Chemscore.CHOScore>
0.0000

> <Gold.PLP.Chemscore.Metal>
0.0000

> <Gold.Chemscore.Hbonds>
donor molecule, donor type, donor heavy atom, donor atom, acceptor molecule, acceptor atom, score
      L1  H     4    16       P1   470  0.99
      L1  H     6    18       P1   582  0.45

> <Gold.PLP.Chemscore.Internal.Correction>
0.0000

