#       Name:                EN300-211058_i001
#       Creating user name   aseyller
#       Creation time:       Fri Apr 21 16:31:29 2023


#       File generated by GOLD software.
#

@<TRIPOS>MOLECULE
EN300-211058_i001|aminophenols|mol2|43|dock7
    18    18     1
SMALL
USER_CHARGES


@<TRIPOS>ATOM
      1 C1          27.7199  37.3439  37.5950 C.3            1 <1>                0.0000
      2 C2          27.7564  36.9368  39.0456 C.ar           1 <1>                0.0000
      3 C3          26.5989  36.9841  39.8088 C.ar           1 <1>                0.0000
      4 N4          25.3961  37.4096  39.2336 N.pl3          1 <1>                0.0000
      5 C5          26.6369  36.6066  41.1493 C.ar           1 <1>                0.0000
      6 O6          25.5048  36.6506  41.9022 O.3            1 <1>                0.0000
      7 C7          27.8297  36.1858  41.7137 C.ar           1 <1>                0.0000
      8 C8          28.9801  36.1414  40.9476 C.ar           1 <1>                0.0000
      9 C9          28.9425  36.5107  39.6149 C.ar           1 <1>                0.0000
     10 Br10        30.5195  36.4467  38.5734 Br             1 <1>                0.0000
     11 H11         27.9264  38.4109  37.5118 H              1 <1>                0.0000
     12 H12         28.4734  36.7837  37.0415 H              1 <1>                0.0000
     13 H13         26.7336  37.1314  37.1827 H              1 <1>                0.0000
     14 H14         27.8614  35.8927  42.7527 H              1 <1>                0.0000
     15 H15         29.9091  35.8134  41.3897 H              1 <1>                0.0000
     16 H16         25.3710  37.6720  38.3001 H              1 <1>                0.0000
     17 H17         24.5875  37.4421  39.7685 H              1 <1>                0.0000
     18 H18         25.5933  36.2342  42.7704 H              1 <1>                0.0000
@<TRIPOS>BOND
    1    1    2 1     
    2    1   11 1     
    3    1   12 1     
    4    1   13 1     
    5    2    3 ar    
    6    2    9 ar    
    7    3    4 1     
    8    3    5 ar    
    9    4   16 1     
   10    4   17 1     
   11    5    6 1     
   12    5    7 ar    
   13    6   18 1     
   14    7    8 ar    
   15    7   14 1     
   16    8    9 ar    
   17    8   15 1     
   18    9   10 1     
@<TRIPOS>SUBSTRUCTURE
      1 ****           1
@<TRIPOS>SET
DONOR_HYDROGENS      STATIC     ATOMS    <user>   **** ""
3 16 17 18
ATOM$RED        STATIC     ATOMS    COLORGROUP SYSTEM
3 16 17 18
@<TRIPOS>COMMENT
> <Gold.Version>
2022.2.0

> <Gold.Id.Protein>
1qkm|1qkm_protein|mol2

> <Gold.Protein.RotatedTorsions>
[  496  491  490  487 ] final -132.46 input  -89.99 | X-H torsion

> <Gold.Protein.ActiveResidues>
 MET295  LEU298  THR299  LEU301  ALA302  GLU305  TRP335  MET336  LEU339  MET340 
 GLY342  LEU343  ARG346  PHE356  ILE373  ILE376  PHE377  LEU380  LYS471  GLY472 
 MET473  HIS475  LEU476  LEU477  ASN478  MET479  VAL484  VAL487 

> <Gold.Protein.RotatedAtoms>
   37.1228   34.1855   40.7412 H   0  0  0  0  0  0  0  0  0  0  0  0  # atno 496  bound_to 491 

> <Gold.Score>
     Score     S(PLP)   S(hbond)     S(cho)   S(metal)  DE(clash)   DE(tors)     intcor
     39.24     -36.40       0.94       0.00       0.00       0.00       0.00       0.00

> <Gold.PLP.Fitness>
39.2361

> <Gold.PLP.PLP>
-36.4041

> <Gold.PLP.part.hbond>
-2.1923

> <Gold.PLP.part.metal>
0.0000

> <Gold.PLP.part.buried>
-2.4090

> <Gold.PLP.part.nonpolar>
-32.8128

> <Gold.PLP.part.repulsive>
0.0879

> <Gold.PLP.ligand.clash>
0.0000

> <Gold.PLP.ligand.torsion>
0.0000

> <Gold.PLP.Chemscore.Hbond>
0.9440

> <Gold.PLP.Chemscore.CHOScore>
0.0000

> <Gold.PLP.Chemscore.Metal>
0.0000

> <Gold.Chemscore.Hbonds>
donor molecule, donor type, donor heavy atom, donor atom, acceptor molecule, acceptor atom, score
      L1  H     6    18       P1   582  0.94

> <Gold.PLP.Chemscore.Internal.Correction>
0.0000

