#       Name:                EN300-53173_i001
#       Creating user name   aseyller
#       Creation time:       Fri Apr 21 14:57:49 2023


#       File generated by GOLD software.
#

@<TRIPOS>MOLECULE
EN300-53173_i001
    33    33     1
SMALL
USER_CHARGES


@<TRIPOS>ATOM
      1 C1           4.1254   0.8991  -0.4084 C.3            1 <1>                0.0000
      2 N2           3.7095  -0.4691  -0.0721 N.3            1 <1>                0.0000
      3 C3           4.6718  -1.1028   0.8392 C.3            1 <1>                0.0000
      4 C4           2.3561  -0.4826   0.4990 C.3            1 <1>                0.0000
      5 C5           1.3484  -0.0475  -0.5669 C.3            1 <1>                0.0000
      6 N6          -0.0049  -0.0609   0.0042 N.4            1 <1>                1.0000
      7 C7          -0.9724   0.3568  -1.0192 C.3            1 <1>                0.0000
      8 C8          -2.3608   0.3430  -0.4333 C.ar           1 <1>                0.0000
      9 C9          -2.8650   1.4775   0.1759 C.ar           1 <1>                0.0000
     10 C10         -4.1382   1.4681   0.7143 C.ar           1 <1>                0.0000
     11 C11         -4.9103   0.3244   0.6449 C.ar           1 <1>                0.0000
     12 C12         -4.4072  -0.8148   0.0340 C.ar           1 <1>                0.0000
     13 O13         -5.1649  -1.9408  -0.0359 O.3            1 <1>                0.0000
     14 C14         -3.1309  -0.8011  -0.5102 C.ar           1 <1>                0.0000
     15 H15          5.1012   0.8734  -0.8934 H              1 <1>                0.0000
     16 H16          3.3955   1.3450  -1.0841 H              1 <1>                0.0000
     17 H17          4.1880   1.4941   0.5027 H              1 <1>                0.0000
     18 H18          4.6864  -0.5621   1.7855 H              1 <1>                0.0000
     19 H19          4.3775  -2.1373   1.0163 H              1 <1>                0.0000
     20 H20          5.6655  -1.0793   0.3919 H              1 <1>                0.0000
     21 H21          2.1147  -1.4901   0.8376 H              1 <1>                0.0000
     22 H22          2.3113   0.2050   1.3436 H              1 <1>                0.0000
     23 H23          1.5899   0.9601  -0.9054 H              1 <1>                0.0000
     24 H24          1.3933  -0.7350  -1.4115 H              1 <1>                0.0000
     25 H25         -0.7310   1.3644  -1.3577 H              1 <1>                0.0000
     26 H26         -0.9276  -0.3308  -1.8638 H              1 <1>                0.0000
     27 H27         -2.2628   2.3724   0.2314 H              1 <1>                0.0000
     28 H28         -4.5295   2.3553   1.1898 H              1 <1>                0.0000
     29 H29         -5.9047   0.3173   1.0663 H              1 <1>                0.0000
     30 H30         -2.7370  -1.6866  -0.9867 H              1 <1>                0.0000
     31 H31         -0.2285  -0.9936   0.3176 H              1 <1>                0.0000
     32 H32         -0.0464   0.5756   0.7860 H              1 <1>                0.0000
     33 H33         -5.7135  -1.9970  -0.8302 H              1 <1>                0.0000
@<TRIPOS>BOND
    1    1    2 1     
    2    1   15 1     
    3    1   16 1     
    4    1   17 1     
    5    2    3 1     
    6    2    4 1     
    7    3   18 1     
    8    3   19 1     
    9    3   20 1     
   10    4    5 1     
   11    4   21 1     
   12    4   22 1     
   13    5    6 1     
   14    5   23 1     
   15    5   24 1     
   16    6    7 1     
   17    6   31 1     
   18    6   32 1     
   19    7    8 1     
   20    7   25 1     
   21    7   26 1     
   22    8    9 ar    
   23    8   14 ar    
   24    9   10 ar    
   25    9   27 1     
   26   10   11 ar    
   27   10   28 1     
   28   11   12 ar    
   29   11   29 1     
   30   12   13 1     
   31   12   14 ar    
   32   13   33 1     
   33   14   30 1     
@<TRIPOS>SUBSTRUCTURE
      1 ****           1
@<TRIPOS>SET
DONOR_HYDROGENS      STATIC     ATOMS    <user>   **** ""
3 31 32 33
ATOM$RED        STATIC     ATOMS    COLORGROUP SYSTEM
3 31 32 33
