#       Name:                EN300-53173_i001
#       Creating user name   aseyller
#       Creation time:       Fri Apr 21 14:57:51 2023


#       File generated by GOLD software.
#

@<TRIPOS>MOLECULE
EN300-53173_i001|amine_1|mol2|818|dock2
    33    33     1
SMALL
USER_CHARGES


@<TRIPOS>ATOM
      1 C1          30.5681  36.7729  36.5797 C.3            1 <1>                0.0000
      2 N2          31.8446  36.0523  36.6753 N.3            1 <1>                0.0000
      3 C3          32.8633  36.6694  35.8154 C.3            1 <1>                0.0000
      4 C4          32.3053  35.9800  38.0684 C.3            1 <1>                0.0000
      5 C5          31.5271  34.8892  38.8070 C.3            1 <1>                0.0000
      6 N6          30.3923  35.4932  39.5177 N.4            1 <1>                1.0000
      7 C7          29.1452  34.8470  39.0876 C.3            1 <1>                0.0000
      8 C8          27.9723  35.7096  39.4768 C.ar           1 <1>                0.0000
      9 C9          27.1987  36.3064  38.4982 C.ar           1 <1>                0.0000
     10 C10         26.1222  37.0982  38.8519 C.ar           1 <1>                0.0000
     11 C11         25.8166  37.2952  40.1848 C.ar           1 <1>                0.0000
     12 C12         26.5906  36.6973  41.1685 C.ar           1 <1>                0.0000
     13 O13         26.2917  36.8892  42.4802 O.3            1 <1>                0.0000
     14 C14         27.6675  35.8988  40.8107 C.ar           1 <1>                0.0000
     15 H15         30.2149  36.7510  35.5487 H              1 <1>                0.0000
     16 H16         29.8319  36.2952  37.2261 H              1 <1>                0.0000
     17 H17         30.7103  37.8071  36.8932 H              1 <1>                0.0000
     18 H18         33.0722  37.6797  36.1672 H              1 <1>                0.0000
     19 H19         33.7769  36.0760  35.8510 H              1 <1>                0.0000
     20 H20         32.4965  36.7104  34.7897 H              1 <1>                0.0000
     21 H21         33.3692  35.7437  38.0875 H              1 <1>                0.0000
     22 H22         32.1376  36.9400  38.5568 H              1 <1>                0.0000
     23 H23         31.1579  34.1569  38.0890 H              1 <1>                0.0000
     24 H24         32.1840  34.3962  39.5236 H              1 <1>                0.0000
     25 H25         29.1575  34.7174  38.0054 H              1 <1>                0.0000
     26 H26         29.0557  33.8732  39.5692 H              1 <1>                0.0000
     27 H27         27.4363  36.1539  37.4556 H              1 <1>                0.0000
     28 H28         25.5198  37.5635  38.0857 H              1 <1>                0.0000
     29 H29         24.9758  37.9145  40.4607 H              1 <1>                0.0000
     30 H30         28.2714  35.4319  41.5746 H              1 <1>                0.0000
     31 H31         30.5116  35.3659  40.5116 H              1 <1>                0.0000
     32 H32         30.3501  36.4792  39.3076 H              1 <1>                0.0000
     33 H33         25.9297  36.1075  42.9195 H              1 <1>                0.0000
@<TRIPOS>BOND
    1    1    2 1     
    2    1   15 1     
    3    1   16 1     
    4    1   17 1     
    5    2    3 1     
    6    2    4 1     
    7    3   18 1     
    8    3   19 1     
    9    3   20 1     
   10    4    5 1     
   11    4   21 1     
   12    4   22 1     
   13    5    6 1     
   14    5   23 1     
   15    5   24 1     
   16    6    7 1     
   17    6   31 1     
   18    6   32 1     
   19    7    8 1     
   20    7   25 1     
   21    7   26 1     
   22    8    9 ar    
   23    8   14 ar    
   24    9   10 ar    
   25    9   27 1     
   26   10   11 ar    
   27   10   28 1     
   28   11   12 ar    
   29   11   29 1     
   30   12   13 1     
   31   12   14 ar    
   32   13   33 1     
   33   14   30 1     
@<TRIPOS>SUBSTRUCTURE
      1 ****           1
@<TRIPOS>SET
DONOR_HYDROGENS      STATIC     ATOMS    <user>   **** ""
3 31 32 33
ATOM$RED        STATIC     ATOMS    COLORGROUP SYSTEM
3 31 32 33
@<TRIPOS>COMMENT
> <Gold.Version>
2022.2.0

> <Gold.Id.Protein>
1qkm|1qkm_protein|mol2

> <Gold.Protein.RotatedTorsions>
[  496  491  490  487 ] final  -68.46 input  -89.99 | X-H torsion

> <Gold.Protein.ActiveResidues>
 MET295  LEU298  THR299  LEU301  ALA302  GLU305  TRP335  MET336  LEU339  MET340 
 GLY342  LEU343  ARG346  PHE356  ILE373  ILE376  PHE377  LEU380  LYS471  GLY472 
 MET473  HIS475  LEU476  LEU477  ASN478  MET479  VAL484  VAL487 

> <Gold.Protein.RotatedAtoms>
   36.5653   34.7344   41.3634 H   0  0  0  0  0  0  0  0  0  0  0  0  # atno 496  bound_to 491 

> <Gold.Score>
     Score     S(PLP)   S(hbond)     S(cho)   S(metal)  DE(clash)   DE(tors)     intcor
     54.30     -50.43       1.89       0.00       0.00       0.00       0.92       0.03

> <Gold.PLP.Fitness>
54.2951

> <Gold.PLP.PLP>
-50.4280

> <Gold.PLP.part.hbond>
-2.2887

> <Gold.PLP.part.metal>
0.0000

> <Gold.PLP.part.buried>
-4.9552

> <Gold.PLP.part.nonpolar>
-43.2174

> <Gold.PLP.part.repulsive>
0.0649

> <Gold.PLP.ligand.clash>
0.0000

> <Gold.PLP.ligand.torsion>
0.9167

> <Gold.PLP.Chemscore.Hbond>
1.8897

> <Gold.PLP.Chemscore.CHOScore>
0.0000

> <Gold.PLP.Chemscore.Metal>
0.0000

> <Gold.Chemscore.Hbonds>
donor molecule, donor type, donor heavy atom, donor atom, acceptor molecule, acceptor atom, score
      L1  H     6    31       P1   470  0.89
      L1  H    13    33       P1   582  1.00

> <Gold.PLP.Chemscore.Internal.Correction>
0.0315

