#       Name:                EN300-53173_i001
#       Creating user name   aseyller
#       Creation time:       Fri Apr 21 14:58:05 2023


#       File generated by GOLD software.
#

@<TRIPOS>MOLECULE
EN300-53173_i001|amine_1|mol2|818|dock13
    33    33     1
SMALL
USER_CHARGES


@<TRIPOS>ATOM
      1 C1          32.6858  35.5470  37.3161 C.3            1 <1>                0.0000
      2 N2          32.7361  36.7291  36.4454 N.3            1 <1>                0.0000
      3 C3          33.3432  36.4019  35.1483 C.3            1 <1>                0.0000
      4 C4          31.3985  37.3103  36.2689 C.3            1 <1>                0.0000
      5 C5          30.8716  37.7969  37.6204 C.3            1 <1>                0.0000
      6 N6          29.5214  38.3495  37.4494 N.4            1 <1>                1.0000
      7 C7          28.5521  37.2506  37.3454 C.3            1 <1>                0.0000
      8 C8          27.9828  36.9524  38.7086 C.ar           1 <1>                0.0000
      9 C9          26.6279  37.1046  38.9399 C.ar           1 <1>                0.0000
     10 C10         26.1026  36.8318  40.1892 C.ar           1 <1>                0.0000
     11 C11         26.9307  36.4062  41.2100 C.ar           1 <1>                0.0000
     12 C12         28.2900  36.2523  40.9806 C.ar           1 <1>                0.0000
     13 O13         29.1064  35.8334  41.9830 O.3            1 <1>                0.0000
     14 C14         28.8139  36.5218  39.7243 C.ar           1 <1>                0.0000
     15 H15         33.6971  35.1781  37.4868 H              1 <1>                0.0000
     16 H16         32.2319  35.8172  38.2696 H              1 <1>                0.0000
     17 H17         32.0909  34.7687  36.8381 H              1 <1>                0.0000
     18 H18         32.7152  35.6811  34.6246 H              1 <1>                0.0000
     19 H19         33.4323  37.3086  34.5498 H              1 <1>                0.0000
     20 H20         34.3326  35.9733  35.3080 H              1 <1>                0.0000
     21 H21         31.4560  38.1508  35.5773 H              1 <1>                0.0000
     22 H22         30.7240  36.5544  35.8668 H              1 <1>                0.0000
     23 H23         30.8362  36.9608  38.3189 H              1 <1>                0.0000
     24 H24         31.5336  38.5694  38.0117 H              1 <1>                0.0000
     25 H25         27.7464  37.5394  36.6705 H              1 <1>                0.0000
     26 H26         29.0503  36.3622  36.9574 H              1 <1>                0.0000
     27 H27         25.9791  37.4375  38.1432 H              1 <1>                0.0000
     28 H28         25.0442  36.9517  40.3673 H              1 <1>                0.0000
     29 H29         26.5199  36.1939  42.1861 H              1 <1>                0.0000
     30 H30         29.8718  36.4024  39.5430 H              1 <1>                0.0000
     31 H31         29.2911  38.9270  38.2441 H              1 <1>                0.0000
     32 H32         29.4899  38.9064  36.6086 H              1 <1>                0.0000
     33 H33         30.0107  35.6414  41.6995 H              1 <1>                0.0000
@<TRIPOS>BOND
    1    1    2 1     
    2    1   15 1     
    3    1   16 1     
    4    1   17 1     
    5    2    3 1     
    6    2    4 1     
    7    3   18 1     
    8    3   19 1     
    9    3   20 1     
   10    4    5 1     
   11    4   21 1     
   12    4   22 1     
   13    5    6 1     
   14    5   23 1     
   15    5   24 1     
   16    6    7 1     
   17    6   31 1     
   18    6   32 1     
   19    7    8 1     
   20    7   25 1     
   21    7   26 1     
   22    8    9 ar    
   23    8   14 ar    
   24    9   10 ar    
   25    9   27 1     
   26   10   11 ar    
   27   10   28 1     
   28   11   12 ar    
   29   11   29 1     
   30   12   13 1     
   31   12   14 ar    
   32   13   33 1     
   33   14   30 1     
@<TRIPOS>SUBSTRUCTURE
      1 ****           1
@<TRIPOS>SET
DONOR_HYDROGENS      STATIC     ATOMS    <user>   **** ""
3 31 32 33
ATOM$RED        STATIC     ATOMS    COLORGROUP SYSTEM
3 31 32 33
@<TRIPOS>COMMENT
> <Gold.Version>
2022.2.0

> <Gold.Id.Protein>
1qkm|1qkm_protein|mol2

> <Gold.Protein.RotatedTorsions>
[  496  491  490  487 ] final   21.78 input  -89.99 | X-H torsion

> <Gold.Protein.ActiveResidues>
 MET295  LEU298  THR299  LEU301  ALA302  GLU305  TRP335  MET336  LEU339  MET340 
 GLY342  LEU343  ARG346  PHE356  ILE373  ILE376  PHE377  LEU380  LYS471  GLY472 
 MET473  HIS475  LEU476  LEU477  ASN478  MET479  VAL484  VAL487 

> <Gold.Protein.RotatedAtoms>
   36.3092   33.8841   42.3625 H   0  0  0  0  0  0  0  0  0  0  0  0  # atno 496  bound_to 491 

> <Gold.Score>
     Score     S(PLP)   S(hbond)     S(cho)   S(metal)  DE(clash)   DE(tors)     intcor
     50.92     -48.54       1.00       0.00       0.00       0.00       0.32       0.02

> <Gold.PLP.Fitness>
50.9199

> <Gold.PLP.PLP>
-48.5446

> <Gold.PLP.part.hbond>
-1.2881

> <Gold.PLP.part.metal>
0.0000

> <Gold.PLP.part.buried>
-4.7960

> <Gold.PLP.part.nonpolar>
-42.4642

> <Gold.PLP.part.repulsive>
0.0096

> <Gold.PLP.ligand.clash>
0.0000

> <Gold.PLP.ligand.torsion>
0.3208

> <Gold.PLP.Chemscore.Hbond>
1.0000

> <Gold.PLP.Chemscore.CHOScore>
0.0000

> <Gold.PLP.Chemscore.Metal>
0.0000

> <Gold.Chemscore.Hbonds>
donor molecule, donor type, donor heavy atom, donor atom, acceptor molecule, acceptor atom, score
      L1  H    13    33       P1   470  1.00

> <Gold.PLP.Chemscore.Internal.Correction>
0.0170

