#       Name:                EN300-53173_i001
#       Creating user name   aseyller
#       Creation time:       Fri Apr 21 14:58:09 2023


#       File generated by GOLD software.
#

@<TRIPOS>MOLECULE
EN300-53173_i001|amine_1|mol2|818|dock16
    33    33     1
SMALL
USER_CHARGES


@<TRIPOS>ATOM
      1 C1          31.7546  38.4910  34.5571 C.3            1 <1>                0.0000
      2 N2          31.2233  38.6947  35.9115 N.3            1 <1>                0.0000
      3 C3          30.4214  39.9235  35.9830 C.3            1 <1>                0.0000
      4 C4          30.4430  37.5305  36.3516 C.3            1 <1>                0.0000
      5 C5          29.8444  37.8099  37.7316 C.3            1 <1>                0.0000
      6 N6          28.4366  38.2028  37.5842 N.4            1 <1>                1.0000
      7 C7          27.5771  37.0284  37.7839 C.3            1 <1>                0.0000
      8 C8          27.3422  36.8226  39.2582 C.ar           1 <1>                0.0000
      9 C9          28.4147  36.6165  40.1066 C.ar           1 <1>                0.0000
     10 C10         28.2027  36.4274  41.4595 C.ar           1 <1>                0.0000
     11 C11         26.9179  36.4440  41.9674 C.ar           1 <1>                0.0000
     12 C12         25.8404  36.6510  41.1188 C.ar           1 <1>                0.0000
     13 O13         24.5757  36.6682  41.6160 O.3            1 <1>                0.0000
     14 C14         26.0563  36.8457  39.7620 C.ar           1 <1>                0.0000
     15 H15         32.3856  39.3365  34.2833 H              1 <1>                0.0000
     16 H16         32.3442  37.5746  34.5322 H              1 <1>                0.0000
     17 H17         30.9282  38.4106  33.8510 H              1 <1>                0.0000
     18 H18         29.5474  39.8250  35.3392 H              1 <1>                0.0000
     19 H19         30.0987  40.0875  37.0112 H              1 <1>                0.0000
     20 H20         31.0231  40.7698  35.6517 H              1 <1>                0.0000
     21 H21         29.6405  37.3406  35.6390 H              1 <1>                0.0000
     22 H22         31.0933  36.6575  36.4076 H              1 <1>                0.0000
     23 H23         29.9083  36.9106  38.3442 H              1 <1>                0.0000
     24 H24         30.3985  38.6165  38.2115 H              1 <1>                0.0000
     25 H25         26.6223  37.1875  37.2828 H              1 <1>                0.0000
     26 H26         28.0638  36.1467  37.3670 H              1 <1>                0.0000
     27 H27         29.4198  36.6029  39.7113 H              1 <1>                0.0000
     28 H28         29.0420  36.2664  42.1198 H              1 <1>                0.0000
     29 H29         26.7527  36.2956  43.0243 H              1 <1>                0.0000
     30 H30         25.2191  37.0074  39.0992 H              1 <1>                0.0000
     31 H31         28.2100  38.9061  38.2713 H              1 <1>                0.0000
     32 H32         28.2866  38.5759  36.6588 H              1 <1>                0.0000
     33 H33         23.9041  36.3579  40.9934 H              1 <1>                0.0000
@<TRIPOS>BOND
    1    1    2 1     
    2    1   15 1     
    3    1   16 1     
    4    1   17 1     
    5    2    3 1     
    6    2    4 1     
    7    3   18 1     
    8    3   19 1     
    9    3   20 1     
   10    4    5 1     
   11    4   21 1     
   12    4   22 1     
   13    5    6 1     
   14    5   23 1     
   15    5   24 1     
   16    6    7 1     
   17    6   31 1     
   18    6   32 1     
   19    7    8 1     
   20    7   25 1     
   21    7   26 1     
   22    8    9 ar    
   23    8   14 ar    
   24    9   10 ar    
   25    9   27 1     
   26   10   11 ar    
   27   10   28 1     
   28   11   12 ar    
   29   11   29 1     
   30   12   13 1     
   31   12   14 ar    
   32   13   33 1     
   33   14   30 1     
@<TRIPOS>SUBSTRUCTURE
      1 ****           1
@<TRIPOS>SET
DONOR_HYDROGENS      STATIC     ATOMS    <user>   **** ""
3 31 32 33
ATOM$RED        STATIC     ATOMS    COLORGROUP SYSTEM
3 31 32 33
@<TRIPOS>COMMENT
> <Gold.Version>
2022.2.0

> <Gold.Id.Protein>
1qkm|1qkm_protein|mol2

> <Gold.Protein.RotatedTorsions>
[  496  491  490  487 ] final   45.94 input  -89.99 | X-H torsion

> <Gold.Protein.ActiveResidues>
 MET295  LEU298  THR299  LEU301  ALA302  GLU305  TRP335  MET336  LEU339  MET340 
 GLY342  LEU343  ARG346  PHE356  ILE373  ILE376  PHE377  LEU380  LYS471  GLY472 
 MET473  HIS475  LEU476  LEU477  ASN478  MET479  VAL484  VAL487 

> <Gold.Protein.RotatedAtoms>
   36.4435   33.5129   42.3671 H   0  0  0  0  0  0  0  0  0  0  0  0  # atno 496  bound_to 491 

> <Gold.Score>
     Score     S(PLP)   S(hbond)     S(cho)   S(metal)  DE(clash)   DE(tors)     intcor
     52.20     -48.41       1.70       0.00       0.00       0.00       0.67       0.02

> <Gold.PLP.Fitness>
52.1991

> <Gold.PLP.PLP>
-48.4120

> <Gold.PLP.part.hbond>
-2.0000

> <Gold.PLP.part.metal>
0.0000

> <Gold.PLP.part.buried>
-1.1391

> <Gold.PLP.part.nonpolar>
-45.8738

> <Gold.PLP.part.repulsive>
0.0000

> <Gold.PLP.ligand.clash>
0.0000

> <Gold.PLP.ligand.torsion>
0.6710

> <Gold.PLP.Chemscore.Hbond>
1.7040

> <Gold.PLP.Chemscore.CHOScore>
0.0000

> <Gold.PLP.Chemscore.Metal>
0.0000

> <Gold.Chemscore.Hbonds>
donor molecule, donor type, donor heavy atom, donor atom, acceptor molecule, acceptor atom, score
      L1  H    13    33       P1  1131  1.00
      P1  H  1258  1270       L1    13  0.70

> <Gold.PLP.Chemscore.Internal.Correction>
0.0170

