#       Name:                EN300-53173_i001
#       Creating user name   aseyller
#       Creation time:       Fri Apr 21 14:57:53 2023


#       File generated by GOLD software.
#

@<TRIPOS>MOLECULE
EN300-53173_i001|amine_1|mol2|818|dock3
    33    33     1
SMALL
USER_CHARGES


@<TRIPOS>ATOM
      1 C1          31.5103  38.0656  34.9684 C.3            1 <1>                0.0000
      2 N2          32.0955  36.9074  35.6571 N.3            1 <1>                0.0000
      3 C3          33.3588  36.5028  35.0260 C.3            1 <1>                0.0000
      4 C4          32.2868  37.1864  37.0866 C.3            1 <1>                0.0000
      5 C5          31.5229  36.1514  37.9149 C.3            1 <1>                0.0000
      6 N6          30.3731  36.7954  38.5637 N.4            1 <1>                1.0000
      7 C7          29.7364  35.8460  39.4864 C.3            1 <1>                0.0000
      8 C8          28.3020  36.2496  39.7116 C.ar           1 <1>                0.0000
      9 C9          27.4678  36.4681  38.6305 C.ar           1 <1>                0.0000
     10 C10         26.1515  36.8384  38.8338 C.ar           1 <1>                0.0000
     11 C11         25.6662  36.9912  40.1184 C.ar           1 <1>                0.0000
     12 C12         26.5007  36.7723  41.2045 C.ar           1 <1>                0.0000
     13 O13         26.0256  36.9215  42.4690 O.3            1 <1>                0.0000
     14 C14         27.8201  36.3956  40.9978 C.ar           1 <1>                0.0000
     15 H15         31.3143  37.8084  33.9275 H              1 <1>                0.0000
     16 H16         30.5761  38.3443  35.4559 H              1 <1>                0.0000
     17 H17         32.2063  38.9033  35.0109 H              1 <1>                0.0000
     18 H18         34.0904  37.3040  35.1309 H              1 <1>                0.0000
     19 H19         33.7348  35.6017  35.5107 H              1 <1>                0.0000
     20 H20         33.1887  36.3023  33.9682 H              1 <1>                0.0000
     21 H21         33.3483  37.1335  37.3282 H              1 <1>                0.0000
     22 H22         31.9114  38.1838  37.3156 H              1 <1>                0.0000
     23 H23         31.1712  35.3519  37.2627 H              1 <1>                0.0000
     24 H24         32.1835  35.7355  38.6756 H              1 <1>                0.0000
     25 H25         29.7688  34.8447  39.0569 H              1 <1>                0.0000
     26 H26         30.2689  35.8509  40.4375 H              1 <1>                0.0000
     27 H27         27.8454  36.3494  37.6256 H              1 <1>                0.0000
     28 H28         25.5021  37.0087  37.9878 H              1 <1>                0.0000
     29 H29         24.6380  37.2812  40.2767 H              1 <1>                0.0000
     30 H30         28.4718  36.2242  41.8418 H              1 <1>                0.0000
     31 H31         30.6869  37.6049  39.0779 H              1 <1>                0.0000
     32 H32         29.7068  37.0803  37.8617 H              1 <1>                0.0000
     33 H33         25.7706  36.0911  42.8939 H              1 <1>                0.0000
@<TRIPOS>BOND
    1    1    2 1     
    2    1   15 1     
    3    1   16 1     
    4    1   17 1     
    5    2    3 1     
    6    2    4 1     
    7    3   18 1     
    8    3   19 1     
    9    3   20 1     
   10    4    5 1     
   11    4   21 1     
   12    4   22 1     
   13    5    6 1     
   14    5   23 1     
   15    5   24 1     
   16    6    7 1     
   17    6   31 1     
   18    6   32 1     
   19    7    8 1     
   20    7   25 1     
   21    7   26 1     
   22    8    9 ar    
   23    8   14 ar    
   24    9   10 ar    
   25    9   27 1     
   26   10   11 ar    
   27   10   28 1     
   28   11   12 ar    
   29   11   29 1     
   30   12   13 1     
   31   12   14 ar    
   32   13   33 1     
   33   14   30 1     
@<TRIPOS>SUBSTRUCTURE
      1 ****           1
@<TRIPOS>SET
DONOR_HYDROGENS      STATIC     ATOMS    <user>   **** ""
3 31 32 33
ATOM$RED        STATIC     ATOMS    COLORGROUP SYSTEM
3 31 32 33
@<TRIPOS>COMMENT
> <Gold.Version>
2022.2.0

> <Gold.Id.Protein>
1qkm|1qkm_protein|mol2

> <Gold.Protein.RotatedTorsions>
[  496  491  490  487 ] final  -87.12 input  -89.99 | X-H torsion

> <Gold.Protein.ActiveResidues>
 MET295  LEU298  THR299  LEU301  ALA302  GLU305  TRP335  MET336  LEU339  MET340 
 GLY342  LEU343  ARG346  PHE356  ILE373  ILE376  PHE377  LEU380  LYS471  GLY472 
 MET473  HIS475  LEU476  LEU477  ASN478  MET479  VAL484  VAL487 

> <Gold.Protein.RotatedAtoms>
   36.7308   34.6712   41.1142 H   0  0  0  0  0  0  0  0  0  0  0  0  # atno 496  bound_to 491 

> <Gold.Score>
     Score     S(PLP)   S(hbond)     S(cho)   S(metal)  DE(clash)   DE(tors)     intcor
     51.95     -51.47       1.00       0.00       0.00       0.00       1.28       0.03

> <Gold.PLP.Fitness>
51.9481

> <Gold.PLP.PLP>
-51.4744

> <Gold.PLP.part.hbond>
-2.0000

> <Gold.PLP.part.metal>
0.0000

> <Gold.PLP.part.buried>
-5.3486

> <Gold.PLP.part.nonpolar>
-45.8782

> <Gold.PLP.part.repulsive>
0.0614

> <Gold.PLP.ligand.clash>
0.0000

> <Gold.PLP.ligand.torsion>
1.2789

> <Gold.PLP.Chemscore.Hbond>
1.0000

> <Gold.PLP.Chemscore.CHOScore>
0.0000

> <Gold.PLP.Chemscore.Metal>
0.0000

> <Gold.Chemscore.Hbonds>
donor molecule, donor type, donor heavy atom, donor atom, acceptor molecule, acceptor atom, score
      L1  H    13    33       P1   582  1.00

> <Gold.PLP.Chemscore.Internal.Correction>
0.0315

