#       Name:                EN300-53173_i001
#       Creating user name   aseyller
#       Creation time:       Fri Apr 21 14:58:14 2023


#       File generated by GOLD software.
#

@<TRIPOS>MOLECULE
EN300-53173_i001|amine_1|mol2|818|dock20
    33    33     1
SMALL
USER_CHARGES


@<TRIPOS>ATOM
      1 C1          27.5985  35.8386  40.7522 C.3            1 <1>                0.0000
      2 N2          26.3981  36.0994  39.9466 N.3            1 <1>                0.0000
      3 C3          25.7791  37.3775  40.3227 C.3            1 <1>                0.0000
      4 C4          26.7102  36.0678  38.5114 C.3            1 <1>                0.0000
      5 C5          27.5759  37.2767  38.1510 C.3            1 <1>                0.0000
      6 N6          28.9939  36.9292  38.3131 N.4            1 <1>                1.0000
      7 C7          29.8232  37.9122  37.6033 C.3            1 <1>                0.0000
      8 C8          31.0650  37.2374  37.0801 C.ar           1 <1>                0.0000
      9 C9          31.8087  36.4190  37.9105 C.ar           1 <1>                0.0000
     10 C10         32.9483  35.7986  37.4336 C.ar           1 <1>                0.0000
     11 C11         33.3470  35.9949  36.1253 C.ar           1 <1>                0.0000
     12 C12         32.6026  36.8149  35.2901 C.ar           1 <1>                0.0000
     13 O13         32.9925  37.0091  34.0028 O.3            1 <1>                0.0000
     14 C14         31.4563  37.4323  35.7698 C.ar           1 <1>                0.0000
     15 H15         27.3265  35.7982  41.8069 H              1 <1>                0.0000
     16 H16         28.0369  34.8865  40.4533 H              1 <1>                0.0000
     17 H17         28.3228  36.6377  40.5941 H              1 <1>                0.0000
     18 H18         26.4648  38.1939  40.0961 H              1 <1>                0.0000
     19 H19         24.8548  37.5128  39.7610 H              1 <1>                0.0000
     20 H20         25.5584  37.3741  41.3901 H              1 <1>                0.0000
     21 H21         27.2508  35.1508  38.2773 H              1 <1>                0.0000
     22 H22         25.7840  36.1000  37.9375 H              1 <1>                0.0000
     23 H23         27.3880  37.5625  37.1160 H              1 <1>                0.0000
     24 H24         27.3284  38.1099  38.8086 H              1 <1>                0.0000
     25 H25         29.2583  38.3299  36.7699 H              1 <1>                0.0000
     26 H26         30.1054  38.7118  38.2882 H              1 <1>                0.0000
     27 H27         31.4988  36.2646  38.9335 H              1 <1>                0.0000
     28 H28         33.5275  35.1602  38.0842 H              1 <1>                0.0000
     29 H29         34.2378  35.5105  35.7534 H              1 <1>                0.0000
     30 H30         30.8748  38.0709  35.1215 H              1 <1>                0.0000
     31 H31         29.2315  36.9344  39.2938 H              1 <1>                0.0000
     32 H32         29.1608  36.0102  37.9315 H              1 <1>                0.0000
     33 H33         32.4393  36.5562  33.3518 H              1 <1>                0.0000
@<TRIPOS>BOND
    1    1    2 1     
    2    1   15 1     
    3    1   16 1     
    4    1   17 1     
    5    2    3 1     
    6    2    4 1     
    7    3   18 1     
    8    3   19 1     
    9    3   20 1     
   10    4    5 1     
   11    4   21 1     
   12    4   22 1     
   13    5    6 1     
   14    5   23 1     
   15    5   24 1     
   16    6    7 1     
   17    6   31 1     
   18    6   32 1     
   19    7    8 1     
   20    7   25 1     
   21    7   26 1     
   22    8    9 ar    
   23    8   14 ar    
   24    9   10 ar    
   25    9   27 1     
   26   10   11 ar    
   27   10   28 1     
   28   11   12 ar    
   29   11   29 1     
   30   12   13 1     
   31   12   14 ar    
   32   13   33 1     
   33   14   30 1     
@<TRIPOS>SUBSTRUCTURE
      1 ****           1
@<TRIPOS>SET
DONOR_HYDROGENS      STATIC     ATOMS    <user>   **** ""
3 31 32 33
ATOM$RED        STATIC     ATOMS    COLORGROUP SYSTEM
3 31 32 33
@<TRIPOS>COMMENT
> <Gold.Version>
2022.2.0

> <Gold.Id.Protein>
1qkm|1qkm_protein|mol2

> <Gold.Protein.RotatedTorsions>
[  496  491  490  487 ] final  -11.67 input  -89.99 | X-H torsion

> <Gold.Protein.ActiveResidues>
 MET295  LEU298  THR299  LEU301  ALA302  GLU305  TRP335  MET336  LEU339  MET340 
 GLY342  LEU343  ARG346  PHE356  ILE373  ILE376  PHE377  LEU380  LYS471  GLY472 
 MET473  HIS475  LEU476  LEU477  ASN478  MET479  VAL484  VAL487 

> <Gold.Protein.RotatedAtoms>
   36.2643   34.3709   42.1263 H   0  0  0  0  0  0  0  0  0  0  0  0  # atno 496  bound_to 491 

> <Gold.Score>
     Score     S(PLP)   S(hbond)     S(cho)   S(metal)  DE(clash)   DE(tors)     intcor
     50.28     -48.50       1.00       0.00       0.00       0.00       0.62       0.02

> <Gold.PLP.Fitness>
50.2800

> <Gold.PLP.PLP>
-48.4997

> <Gold.PLP.part.hbond>
-1.7634

> <Gold.PLP.part.metal>
0.0000

> <Gold.PLP.part.buried>
-5.3418

> <Gold.PLP.part.nonpolar>
-41.6359

> <Gold.PLP.part.repulsive>
0.1031

> <Gold.PLP.ligand.clash>
0.0000

> <Gold.PLP.ligand.torsion>
0.6184

> <Gold.PLP.Chemscore.Hbond>
1.0000

> <Gold.PLP.Chemscore.CHOScore>
0.0000

> <Gold.PLP.Chemscore.Metal>
0.0000

> <Gold.Chemscore.Hbonds>
donor molecule, donor type, donor heavy atom, donor atom, acceptor molecule, acceptor atom, score
      L1  H    13    33       P1  3187  1.00

> <Gold.PLP.Chemscore.Internal.Correction>
0.0170

