#       Name:                EN300-53173_i001
#       Creating user name   aseyller
#       Creation time:       Fri Apr 21 14:57:59 2023


#       File generated by GOLD software.
#

@<TRIPOS>MOLECULE
EN300-53173_i001|amine_1|mol2|818|dock8
    33    33     1
SMALL
USER_CHARGES


@<TRIPOS>ATOM
      1 C1          32.0974  36.4513  35.9162 C.3            1 <1>                0.0000
      2 N2          31.9741  37.9047  35.7417 N.3            1 <1>                0.0000
      3 C3          31.6468  38.2418  34.3498 C.3            1 <1>                0.0000
      4 C4          30.9792  38.4636  36.6667 C.3            1 <1>                0.0000
      5 C5          29.6306  37.7770  36.4410 C.3            1 <1>                0.0000
      6 N6          28.6754  38.2262  37.4626 N.4            1 <1>                1.0000
      7 C7          27.6034  37.2315  37.6015 C.3            1 <1>                0.0000
      8 C8          27.3726  36.9426  39.0625 C.ar           1 <1>                0.0000
      9 C9          28.4457  36.6687  39.8906 C.ar           1 <1>                0.0000
     10 C10         28.2373  36.4032  41.2312 C.ar           1 <1>                0.0000
     11 C11         26.9556  36.4110  41.7469 C.ar           1 <1>                0.0000
     12 C12         25.8774  36.6858  40.9186 C.ar           1 <1>                0.0000
     13 O13         24.6158  36.6945  41.4237 O.3            1 <1>                0.0000
     14 C14         26.0898  36.9571  39.5745 C.ar           1 <1>                0.0000
     15 H15         32.8894  36.0735  35.2696 H              1 <1>                0.0000
     16 H16         32.3400  36.2294  36.9555 H              1 <1>                0.0000
     17 H17         31.1542  35.9725  35.6532 H              1 <1>                0.0000
     18 H18         30.6677  37.8344  34.0979 H              1 <1>                0.0000
     19 H19         31.6305  39.3254  34.2327 H              1 <1>                0.0000
     20 H20         32.3993  37.8160  33.6862 H              1 <1>                0.0000
     21 H21         31.3042  38.2973  37.6937 H              1 <1>                0.0000
     22 H22         30.8767  39.5338  36.4869 H              1 <1>                0.0000
     23 H23         29.2527  38.0351  35.4517 H              1 <1>                0.0000
     24 H24         29.7567  36.6966  36.5113 H              1 <1>                0.0000
     25 H25         26.6866  37.6212  37.1591 H              1 <1>                0.0000
     26 H26         27.8916  36.3128  37.0905 H              1 <1>                0.0000
     27 H27         29.4484  36.6618  39.4892 H              1 <1>                0.0000
     28 H28         29.0771  36.1893  41.8757 H              1 <1>                0.0000
     29 H29         26.7932  36.2028  42.7942 H              1 <1>                0.0000
     30 H30         25.2521  37.1717  38.9275 H              1 <1>                0.0000
     31 H31         29.1523  38.3322  38.3455 H              1 <1>                0.0000
     32 H32         28.2788  39.1118  37.1860 H              1 <1>                0.0000
     33 H33         23.9575  36.2866  40.8446 H              1 <1>                0.0000
@<TRIPOS>BOND
    1    1    2 1     
    2    1   15 1     
    3    1   16 1     
    4    1   17 1     
    5    2    3 1     
    6    2    4 1     
    7    3   18 1     
    8    3   19 1     
    9    3   20 1     
   10    4    5 1     
   11    4   21 1     
   12    4   22 1     
   13    5    6 1     
   14    5   23 1     
   15    5   24 1     
   16    6    7 1     
   17    6   31 1     
   18    6   32 1     
   19    7    8 1     
   20    7   25 1     
   21    7   26 1     
   22    8    9 ar    
   23    8   14 ar    
   24    9   10 ar    
   25    9   27 1     
   26   10   11 ar    
   27   10   28 1     
   28   11   12 ar    
   29   11   29 1     
   30   12   13 1     
   31   12   14 ar    
   32   13   33 1     
   33   14   30 1     
@<TRIPOS>SUBSTRUCTURE
      1 ****           1
@<TRIPOS>SET
DONOR_HYDROGENS      STATIC     ATOMS    <user>   **** ""
3 31 32 33
ATOM$RED        STATIC     ATOMS    COLORGROUP SYSTEM
3 31 32 33
@<TRIPOS>COMMENT
> <Gold.Version>
2022.2.0

> <Gold.Id.Protein>
1qkm|1qkm_protein|mol2

> <Gold.Protein.RotatedTorsions>
[  496  491  490  487 ] final  105.56 input  -89.99 | X-H torsion

> <Gold.Protein.ActiveResidues>
 MET295  LEU298  THR299  LEU301  ALA302  GLU305  TRP335  MET336  LEU339  MET340 
 GLY342  LEU343  ARG346  PHE356  ILE373  ILE376  PHE377  LEU380  LYS471  GLY472 
 MET473  HIS475  LEU476  LEU477  ASN478  MET479  VAL484  VAL487 

> <Gold.Protein.RotatedAtoms>
   36.9610   32.9510   41.8233 H   0  0  0  0  0  0  0  0  0  0  0  0  # atno 496  bound_to 491 

> <Gold.Score>
     Score     S(PLP)   S(hbond)     S(cho)   S(metal)  DE(clash)   DE(tors)     intcor
     51.13     -47.23       1.69       0.00       0.00       0.00       0.59       0.02

> <Gold.PLP.Fitness>
51.1321

> <Gold.PLP.PLP>
-47.2287

> <Gold.PLP.part.hbond>
-2.0000

> <Gold.PLP.part.metal>
0.0000

> <Gold.PLP.part.buried>
-2.6041

> <Gold.PLP.part.nonpolar>
-43.5568

> <Gold.PLP.part.repulsive>
0.0341

> <Gold.PLP.ligand.clash>
0.0000

> <Gold.PLP.ligand.torsion>
0.5888

> <Gold.PLP.Chemscore.Hbond>
1.6880

> <Gold.PLP.Chemscore.CHOScore>
0.0000

> <Gold.PLP.Chemscore.Metal>
0.0000

> <Gold.Chemscore.Hbonds>
donor molecule, donor type, donor heavy atom, donor atom, acceptor molecule, acceptor atom, score
      L1  H    13    33       P1  1131  1.00
      P1  H  1258  1270       L1    13  0.69

> <Gold.PLP.Chemscore.Internal.Correction>
0.0170

