#       Name:                EN300-53173_i001
#       Creating user name   aseyller
#       Creation time:       Fri Apr 21 14:58:10 2023


#       File generated by GOLD software.
#

@<TRIPOS>MOLECULE
EN300-53173_i001|amine_1|mol2|818|dock17
    33    33     1
SMALL
USER_CHARGES


@<TRIPOS>ATOM
      1 C1          33.1053  36.6090  37.6054 C.3            1 <1>                0.0000
      2 N2          31.7269  36.3152  38.0197 N.3            1 <1>                0.0000
      3 C3          30.7721  36.6705  36.9612 C.3            1 <1>                0.0000
      4 C4          31.5827  34.9056  38.4072 C.3            1 <1>                0.0000
      5 C5          30.1245  34.6244  38.7753 C.3            1 <1>                0.0000
      6 N6          29.8665  35.0901  40.1443 N.4            1 <1>                1.0000
      7 C7          29.6083  36.5361  40.1291 C.3            1 <1>                0.0000
      8 C8          28.1321  36.7809  39.9508 C.ar           1 <1>                0.0000
      9 C9          27.6592  37.3222  38.7693 C.ar           1 <1>                0.0000
     10 C10         26.3056  37.5479  38.6026 C.ar           1 <1>                0.0000
     11 C11         25.4216  37.2331  39.6167 C.ar           1 <1>                0.0000
     12 C12         25.8931  36.6896  40.8026 C.ar           1 <1>                0.0000
     13 O13         25.0255  36.3787  41.8013 O.3            1 <1>                0.0000
     14 C14         27.2517  36.4592  40.9654 C.ar           1 <1>                0.0000
     15 H15         33.2013  37.6734  37.3912 H              1 <1>                0.0000
     16 H16         33.7916  36.3366  38.4073 H              1 <1>                0.0000
     17 H17         33.3460  36.0351  36.7106 H              1 <1>                0.0000
     18 H18         30.9520  36.0471  36.0854 H              1 <1>                0.0000
     19 H19         29.7555  36.5087  37.3197 H              1 <1>                0.0000
     20 H20         30.9003  37.7192  36.6933 H              1 <1>                0.0000
     21 H21         31.8766  34.2677  37.5737 H              1 <1>                0.0000
     22 H22         32.2209  34.6978  39.2662 H              1 <1>                0.0000
     23 H23         29.4671  35.1501  38.0828 H              1 <1>                0.0000
     24 H24         29.9345  33.5528  38.7140 H              1 <1>                0.0000
     25 H25         29.9379  36.9740  41.0714 H              1 <1>                0.0000
     26 H26         30.1548  36.9942  39.3047 H              1 <1>                0.0000
     27 H27         28.3488  37.5692  37.9756 H              1 <1>                0.0000
     28 H28         25.9389  37.9710  37.6791 H              1 <1>                0.0000
     29 H29         24.3642  37.4103  39.4862 H              1 <1>                0.0000
     30 H30         27.6214  36.0359  41.8876 H              1 <1>                0.0000
     31 H31         29.0620  34.6087  40.5174 H              1 <1>                0.0000
     32 H32         30.6711  34.8981  40.7222 H              1 <1>                0.0000
     33 H33         25.2205  35.5422  42.2454 H              1 <1>                0.0000
@<TRIPOS>BOND
    1    1    2 1     
    2    1   15 1     
    3    1   16 1     
    4    1   17 1     
    5    2    3 1     
    6    2    4 1     
    7    3   18 1     
    8    3   19 1     
    9    3   20 1     
   10    4    5 1     
   11    4   21 1     
   12    4   22 1     
   13    5    6 1     
   14    5   23 1     
   15    5   24 1     
   16    6    7 1     
   17    6   31 1     
   18    6   32 1     
   19    7    8 1     
   20    7   25 1     
   21    7   26 1     
   22    8    9 ar    
   23    8   14 ar    
   24    9   10 ar    
   25    9   27 1     
   26   10   11 ar    
   27   10   28 1     
   28   11   12 ar    
   29   11   29 1     
   30   12   13 1     
   31   12   14 ar    
   32   13   33 1     
   33   14   30 1     
@<TRIPOS>SUBSTRUCTURE
      1 ****           1
@<TRIPOS>SET
DONOR_HYDROGENS      STATIC     ATOMS    <user>   **** ""
3 31 32 33
ATOM$RED        STATIC     ATOMS    COLORGROUP SYSTEM
3 31 32 33
@<TRIPOS>COMMENT
> <Gold.Version>
2022.2.0

> <Gold.Id.Protein>
1qkm|1qkm_protein|mol2

> <Gold.Protein.RotatedTorsions>
[  496  491  490  487 ] final  -23.79 input  -89.99 | X-H torsion

> <Gold.Protein.ActiveResidues>
 MET295  LEU298  THR299  LEU301  ALA302  GLU305  TRP335  MET336  LEU339  MET340 
 GLY342  LEU343  ARG346  PHE356  ILE373  ILE376  PHE377  LEU380  LYS471  GLY472 
 MET473  HIS475  LEU476  LEU477  ASN478  MET479  VAL484  VAL487 

> <Gold.Protein.RotatedAtoms>
   36.2920   34.5107   41.9873 H   0  0  0  0  0  0  0  0  0  0  0  0  # atno 496  bound_to 491 

> <Gold.Score>
     Score     S(PLP)   S(hbond)     S(cho)   S(metal)  DE(clash)   DE(tors)     intcor
     52.61     -45.44       2.71       0.00       0.00       0.00       0.48       0.02

> <Gold.PLP.Fitness>
52.6071

> <Gold.PLP.PLP>
-45.4416

> <Gold.PLP.part.hbond>
-3.3056

> <Gold.PLP.part.metal>
0.0000

> <Gold.PLP.part.buried>
-2.0678

> <Gold.PLP.part.nonpolar>
-40.8288

> <Gold.PLP.part.repulsive>
0.1260

> <Gold.PLP.ligand.clash>
0.0000

> <Gold.PLP.ligand.torsion>
0.4843

> <Gold.PLP.Chemscore.Hbond>
2.7057

> <Gold.PLP.Chemscore.CHOScore>
0.0000

> <Gold.PLP.Chemscore.Metal>
0.0000

> <Gold.Chemscore.Hbonds>
donor molecule, donor type, donor heavy atom, donor atom, acceptor molecule, acceptor atom, score
      L1  H     6    32       P1   470  1.00
      L1  H    13    33       P1   582  0.99
      P1  H  1258  1270       L1    13  0.71

> <Gold.PLP.Chemscore.Internal.Correction>
0.0170

