#       Name:                EN300-53173_i001
#       Creating user name   aseyller
#       Creation time:       Fri Apr 21 14:58:13 2023


#       File generated by GOLD software.
#

@<TRIPOS>MOLECULE
EN300-53173_i001|amine_1|mol2|818|dock19
    33    33     1
SMALL
USER_CHARGES


@<TRIPOS>ATOM
      1 C1          32.1862  38.2053  34.6103 C.3            1 <1>                0.0000
      2 N2          31.3548  37.3599  35.4777 N.3            1 <1>                0.0000
      3 C3          32.1299  36.2331  36.0139 C.3            1 <1>                0.0000
      4 C4          30.7535  38.1485  36.5615 C.3            1 <1>                0.0000
      5 C5          29.7014  37.3041  37.2834 C.3            1 <1>                0.0000
      6 N6          30.1272  37.0719  38.6699 N.4            1 <1>                1.0000
      7 C7          29.3671  35.9484  39.2339 C.3            1 <1>                0.0000
      8 C8          28.0021  36.4272  39.6565 C.ar           1 <1>                0.0000
      9 C9          27.0743  36.8001  38.7012 C.ar           1 <1>                0.0000
     10 C10         25.8213  37.2397  39.0856 C.ar           1 <1>                0.0000
     11 C11         25.4930  37.3075  40.4260 C.ar           1 <1>                0.0000
     12 C12         26.4216  36.9337  41.3862 C.ar           1 <1>                0.0000
     13 O13         26.1008  36.9991  42.7052 O.3            1 <1>                0.0000
     14 C14         27.6767  36.4879  40.9975 C.ar           1 <1>                0.0000
     15 H15         32.5622  37.6118  33.7770 H              1 <1>                0.0000
     16 H16         31.5878  39.0317  34.2268 H              1 <1>                0.0000
     17 H17         33.0252  38.5996  35.1835 H              1 <1>                0.0000
     18 H18         32.9266  36.6121  36.6540 H              1 <1>                0.0000
     19 H19         31.4741  35.5850  36.5953 H              1 <1>                0.0000
     20 H20         32.5640  35.6661  35.1904 H              1 <1>                0.0000
     21 H21         31.5285  38.4453  37.2680 H              1 <1>                0.0000
     22 H22         30.2817  39.0384  36.1447 H              1 <1>                0.0000
     23 H23         28.7474  37.8314  37.2798 H              1 <1>                0.0000
     24 H24         29.5899  36.3478  36.7724 H              1 <1>                0.0000
     25 H25         29.2611  35.1672  38.4811 H              1 <1>                0.0000
     26 H26         29.8964  35.5497  40.0994 H              1 <1>                0.0000
     27 H27         27.3293  36.7480  37.6529 H              1 <1>                0.0000
     28 H28         25.0987  37.5306  38.3376 H              1 <1>                0.0000
     29 H29         24.5142  37.6517  40.7258 H              1 <1>                0.0000
     30 H30         28.4014  36.1958  41.7431 H              1 <1>                0.0000
     31 H31         31.1122  36.8539  38.6873 H              1 <1>                0.0000
     32 H32         29.9567  37.9019  39.2177 H              1 <1>                0.0000
     33 H33         26.3612  36.2181  43.2125 H              1 <1>                0.0000
@<TRIPOS>BOND
    1    1    2 1     
    2    1   15 1     
    3    1   16 1     
    4    1   17 1     
    5    2    3 1     
    6    2    4 1     
    7    3   18 1     
    8    3   19 1     
    9    3   20 1     
   10    4    5 1     
   11    4   21 1     
   12    4   22 1     
   13    5    6 1     
   14    5   23 1     
   15    5   24 1     
   16    6    7 1     
   17    6   31 1     
   18    6   32 1     
   19    7    8 1     
   20    7   25 1     
   21    7   26 1     
   22    8    9 ar    
   23    8   14 ar    
   24    9   10 ar    
   25    9   27 1     
   26   10   11 ar    
   27   10   28 1     
   28   11   12 ar    
   29   11   29 1     
   30   12   13 1     
   31   12   14 ar    
   32   13   33 1     
   33   14   30 1     
@<TRIPOS>SUBSTRUCTURE
      1 ****           1
@<TRIPOS>SET
DONOR_HYDROGENS      STATIC     ATOMS    <user>   **** ""
3 31 32 33
ATOM$RED        STATIC     ATOMS    COLORGROUP SYSTEM
3 31 32 33
@<TRIPOS>COMMENT
> <Gold.Version>
2022.2.0

> <Gold.Id.Protein>
1qkm|1qkm_protein|mol2

> <Gold.Protein.RotatedTorsions>
[  496  491  490  487 ] final   -2.38 input  -89.99 | X-H torsion

> <Gold.Protein.ActiveResidues>
 MET295  LEU298  THR299  LEU301  ALA302  GLU305  TRP335  MET336  LEU339  MET340 
 GLY342  LEU343  ARG346  PHE356  ILE373  ILE376  PHE377  LEU380  LYS471  GLY472 
 MET473  HIS475  LEU476  LEU477  ASN478  MET479  VAL484  VAL487 

> <Gold.Protein.RotatedAtoms>
   36.2589   34.2471   42.2159 H   0  0  0  0  0  0  0  0  0  0  0  0  # atno 496  bound_to 491 

> <Gold.Score>
     Score     S(PLP)   S(hbond)     S(cho)   S(metal)  DE(clash)   DE(tors)     intcor
     51.38     -49.66       1.00       0.00       0.00       0.00       0.65       0.02

> <Gold.PLP.Fitness>
51.3779

> <Gold.PLP.PLP>
-49.6577

> <Gold.PLP.part.hbond>
-2.0000

> <Gold.PLP.part.metal>
0.0000

> <Gold.PLP.part.buried>
-4.7563

> <Gold.PLP.part.nonpolar>
-42.8446

> <Gold.PLP.part.repulsive>
0.0429

> <Gold.PLP.ligand.clash>
0.0000

> <Gold.PLP.ligand.torsion>
0.6484

> <Gold.PLP.Chemscore.Hbond>
1.0000

> <Gold.PLP.Chemscore.CHOScore>
0.0000

> <Gold.PLP.Chemscore.Metal>
0.0000

> <Gold.Chemscore.Hbonds>
donor molecule, donor type, donor heavy atom, donor atom, acceptor molecule, acceptor atom, score
      L1  H    13    33       P1   582  1.00

> <Gold.PLP.Chemscore.Internal.Correction>
0.0170

