#       Name:                EN300-53173_i001
#       Creating user name   aseyller
#       Creation time:       Fri Apr 21 14:57:50 2023


#       File generated by GOLD software.
#

@<TRIPOS>MOLECULE
EN300-53173_i001|amine_1|mol2|818|dock1
    33    33     1
SMALL
USER_CHARGES


@<TRIPOS>ATOM
      1 C1          33.2936  35.8615  36.2749 C.3            1 <1>                0.0000
      2 N2          32.2901  36.6774  36.9716 N.3            1 <1>                0.0000
      3 C3          31.2786  37.1822  36.0334 C.3            1 <1>                0.0000
      4 C4          31.6637  35.9217  38.0646 C.3            1 <1>                0.0000
      5 C5          30.6034  36.7910  38.7435 C.3            1 <1>                0.0000
      6 N6          30.1303  36.1231  39.9632 N.4            1 <1>                1.0000
      7 C7          29.0213  35.2199  39.6282 C.3            1 <1>                0.0000
      8 C8          27.7171  35.9690  39.7237 C.ar           1 <1>                0.0000
      9 C9          27.3521  36.8511  38.7231 C.ar           1 <1>                0.0000
     10 C10         26.1564  37.5397  38.8076 C.ar           1 <1>                0.0000
     11 C11         25.3228  37.3480  39.8927 C.ar           1 <1>                0.0000
     12 C12         25.6863  36.4635  40.8975 C.ar           1 <1>                0.0000
     13 O13         24.8679  36.2730  41.9656 O.3            1 <1>                0.0000
     14 C14         26.8846  35.7697  40.8077 C.ar           1 <1>                0.0000
     15 H15         33.7911  36.4665  35.5169 H              1 <1>                0.0000
     16 H16         34.0303  35.5006  36.9927 H              1 <1>                0.0000
     17 H17         32.8041  35.0122  35.7984 H              1 <1>                0.0000
     18 H18         30.7275  36.3437  35.6075 H              1 <1>                0.0000
     19 H19         30.5885  37.8396  36.5622 H              1 <1>                0.0000
     20 H20         31.7694  37.7378  35.2343 H              1 <1>                0.0000
     21 H21         31.1947  35.0235  37.6630 H              1 <1>                0.0000
     22 H22         32.4237  35.6398  38.7934 H              1 <1>                0.0000
     23 H23         31.0371  37.7568  39.0030 H              1 <1>                0.0000
     24 H24         29.7655  36.9403  38.0625 H              1 <1>                0.0000
     25 H25         29.1517  34.8455  38.6129 H              1 <1>                0.0000
     26 H26         29.0112  34.3825  40.3259 H              1 <1>                0.0000
     27 H27         28.0025  37.0024  37.8742 H              1 <1>                0.0000
     28 H28         25.8738  38.2282  38.0250 H              1 <1>                0.0000
     29 H29         24.3891  37.8868  39.9587 H              1 <1>                0.0000
     30 H30         27.1697  35.0802  41.5885 H              1 <1>                0.0000
     31 H31         30.8855  35.5919  40.3703 H              1 <1>                0.0000
     32 H32         29.8120  36.8159  40.6242 H              1 <1>                0.0000
     33 H33         25.1772  35.5954  42.5821 H              1 <1>                0.0000
@<TRIPOS>BOND
    1    1    2 1     
    2    1   15 1     
    3    1   16 1     
    4    1   17 1     
    5    2    3 1     
    6    2    4 1     
    7    3   18 1     
    8    3   19 1     
    9    3   20 1     
   10    4    5 1     
   11    4   21 1     
   12    4   22 1     
   13    5    6 1     
   14    5   23 1     
   15    5   24 1     
   16    6    7 1     
   17    6   31 1     
   18    6   32 1     
   19    7    8 1     
   20    7   25 1     
   21    7   26 1     
   22    8    9 ar    
   23    8   14 ar    
   24    9   10 ar    
   25    9   27 1     
   26   10   11 ar    
   27   10   28 1     
   28   11   12 ar    
   29   11   29 1     
   30   12   13 1     
   31   12   14 ar    
   32   13   33 1     
   33   14   30 1     
@<TRIPOS>SUBSTRUCTURE
      1 ****           1
@<TRIPOS>SET
DONOR_HYDROGENS      STATIC     ATOMS    <user>   **** ""
3 31 32 33
ATOM$RED        STATIC     ATOMS    COLORGROUP SYSTEM
3 31 32 33
@<TRIPOS>COMMENT
> <Gold.Version>
2022.2.0

> <Gold.Id.Protein>
1qkm|1qkm_protein|mol2

> <Gold.Protein.RotatedTorsions>
[  496  491  490  487 ] final -107.49 input  -89.99 | X-H torsion

> <Gold.Protein.ActiveResidues>
 MET295  LEU298  THR299  LEU301  ALA302  GLU305  TRP335  MET336  LEU339  MET340 
 GLY342  LEU343  ARG346  PHE356  ILE373  ILE376  PHE377  LEU380  LYS471  GLY472 
 MET473  HIS475  LEU476  LEU477  ASN478  MET479  VAL484  VAL487 

> <Gold.Protein.RotatedAtoms>
   36.9178   34.5026   40.8955 H   0  0  0  0  0  0  0  0  0  0  0  0  # atno 496  bound_to 491 

> <Gold.Score>
     Score     S(PLP)   S(hbond)     S(cho)   S(metal)  DE(clash)   DE(tors)     intcor
     55.71     -48.67       2.71       0.00       0.00       0.00       0.58       0.08

> <Gold.PLP.Fitness>
55.7141

> <Gold.PLP.PLP>
-48.6708

> <Gold.PLP.part.hbond>
-3.4621

> <Gold.PLP.part.metal>
0.0000

> <Gold.PLP.part.buried>
-4.0642

> <Gold.PLP.part.nonpolar>
-41.6747

> <Gold.PLP.part.repulsive>
0.0493

> <Gold.PLP.ligand.clash>
0.0000

> <Gold.PLP.ligand.torsion>
0.5839

> <Gold.PLP.Chemscore.Hbond>
2.7120

> <Gold.PLP.Chemscore.CHOScore>
0.0000

> <Gold.PLP.Chemscore.Metal>
0.0000

> <Gold.Chemscore.Hbonds>
donor molecule, donor type, donor heavy atom, donor atom, acceptor molecule, acceptor atom, score
      L1  H     6    31       P1   470  0.91
      L1  H    13    33       P1   582  1.00
      P1  H  1258  1270       L1    13  0.80

> <Gold.PLP.Chemscore.Internal.Correction>
0.0751

