#       Name:                EN300-53173_i001
#       Creating user name   aseyller
#       Creation time:       Fri Apr 21 14:58:07 2023


#       File generated by GOLD software.
#

@<TRIPOS>MOLECULE
EN300-53173_i001|amine_1|mol2|818|dock14
    33    33     1
SMALL
USER_CHARGES


@<TRIPOS>ATOM
      1 C1          26.1657  36.9015  41.2020 C.3            1 <1>                0.0000
      2 N2          26.9433  36.2375  40.1472 N.3            1 <1>                0.0000
      3 C3          26.5403  36.7138  38.8172 C.3            1 <1>                0.0000
      4 C4          28.3849  36.4245  40.3590 C.3            1 <1>                0.0000
      5 C5          29.1622  35.6252  39.3112 C.3            1 <1>                0.0000
      6 N6          30.5946  35.9295  39.4266 N.4            1 <1>                1.0000
      7 C7          31.3266  35.2579  38.3445 C.3            1 <1>                0.0000
      8 C8          31.5725  36.2341  37.2230 C.ar           1 <1>                0.0000
      9 C9          30.7382  37.3250  37.0612 C.ar           1 <1>                0.0000
     10 C10         30.9611  38.2223  36.0335 C.ar           1 <1>                0.0000
     11 C11         32.0186  38.0310  35.1651 C.ar           1 <1>                0.0000
     12 C12         32.8572  36.9378  35.3254 C.ar           1 <1>                0.0000
     13 O13         33.8983  36.7477  34.4729 O.3            1 <1>                0.0000
     14 C14         32.6344  36.0415  36.3610 C.ar           1 <1>                0.0000
     15 H15         25.1061  36.6887  41.0609 H              1 <1>                0.0000
     16 H16         26.4841  36.5306  42.1763 H              1 <1>                0.0000
     17 H17         26.3301  37.9778  41.1516 H              1 <1>                0.0000
     18 H18         26.7722  37.7748  38.7256 H              1 <1>                0.0000
     19 H19         27.0811  36.1563  38.0524 H              1 <1>                0.0000
     20 H20         25.4687  36.5635  38.6868 H              1 <1>                0.0000
     21 H21         28.6316  37.4821  40.2658 H              1 <1>                0.0000
     22 H22         28.6540  36.0751  41.3558 H              1 <1>                0.0000
     23 H23         29.0028  34.5594  39.4755 H              1 <1>                0.0000
     24 H24         28.8123  35.8954  38.3149 H              1 <1>                0.0000
     25 H25         32.2809  34.8924  38.7237 H              1 <1>                0.0000
     26 H26         30.7377  34.4190  37.9735 H              1 <1>                0.0000
     27 H27         29.9108  37.4761  37.7389 H              1 <1>                0.0000
     28 H28         30.3079  39.0733  35.9091 H              1 <1>                0.0000
     29 H29         32.1919  38.7319  34.3619 H              1 <1>                0.0000
     30 H30         33.2861  35.1898  36.4882 H              1 <1>                0.0000
     31 H31         30.7331  36.9267  39.3580 H              1 <1>                0.0000
     32 H32         30.9371  35.6029  40.3177 H              1 <1>                0.0000
     33 H33         34.1912  37.5526  34.0241 H              1 <1>                0.0000
@<TRIPOS>BOND
    1    1    2 1     
    2    1   15 1     
    3    1   16 1     
    4    1   17 1     
    5    2    3 1     
    6    2    4 1     
    7    3   18 1     
    8    3   19 1     
    9    3   20 1     
   10    4    5 1     
   11    4   21 1     
   12    4   22 1     
   13    5    6 1     
   14    5   23 1     
   15    5   24 1     
   16    6    7 1     
   17    6   31 1     
   18    6   32 1     
   19    7    8 1     
   20    7   25 1     
   21    7   26 1     
   22    8    9 ar    
   23    8   14 ar    
   24    9   10 ar    
   25    9   27 1     
   26   10   11 ar    
   27   10   28 1     
   28   11   12 ar    
   29   11   29 1     
   30   12   13 1     
   31   12   14 ar    
   32   13   33 1     
   33   14   30 1     
@<TRIPOS>SUBSTRUCTURE
      1 ****           1
@<TRIPOS>SET
DONOR_HYDROGENS      STATIC     ATOMS    <user>   **** ""
3 31 32 33
ATOM$RED        STATIC     ATOMS    COLORGROUP SYSTEM
3 31 32 33
@<TRIPOS>COMMENT
> <Gold.Version>
2022.2.0

> <Gold.Id.Protein>
1qkm|1qkm_protein|mol2

> <Gold.Protein.RotatedTorsions>
[  496  491  490  487 ] final   91.27 input  -89.99 | X-H torsion

> <Gold.Protein.ActiveResidues>
 MET295  LEU298  THR299  LEU301  ALA302  GLU305  TRP335  MET336  LEU339  MET340 
 GLY342  LEU343  ARG346  PHE356  ILE373  ILE376  PHE377  LEU380  LYS471  GLY472 
 MET473  HIS475  LEU476  LEU477  ASN478  MET479  VAL484  VAL487 

> <Gold.Protein.RotatedAtoms>
   36.8320   33.0138   42.0089 H   0  0  0  0  0  0  0  0  0  0  0  0  # atno 496  bound_to 491 

> <Gold.Score>
     Score     S(PLP)   S(hbond)     S(cho)   S(metal)  DE(clash)   DE(tors)     intcor
     52.19     -47.45       2.00       0.00       0.00       0.00       0.63       0.02

> <Gold.PLP.Fitness>
52.1928

> <Gold.PLP.PLP>
-47.4455

> <Gold.PLP.part.hbond>
-2.1060

> <Gold.PLP.part.metal>
0.0000

> <Gold.PLP.part.buried>
-4.9350

> <Gold.PLP.part.nonpolar>
-40.7831

> <Gold.PLP.part.repulsive>
0.1157

> <Gold.PLP.ligand.clash>
0.0000

> <Gold.PLP.ligand.torsion>
0.6348

> <Gold.PLP.Chemscore.Hbond>
2.0000

> <Gold.PLP.Chemscore.CHOScore>
0.0000

> <Gold.PLP.Chemscore.Metal>
0.0000

> <Gold.Chemscore.Hbonds>
donor molecule, donor type, donor heavy atom, donor atom, acceptor molecule, acceptor atom, score
      L1  H     6    32       P1   470  1.00
      L1  H    13    33       P1  3229  1.00

> <Gold.PLP.Chemscore.Internal.Correction>
0.0170

