#       Name:                EN300-53173_i001
#       Creating user name   aseyller
#       Creation time:       Fri Apr 21 14:58:12 2023


#       File generated by GOLD software.
#

@<TRIPOS>MOLECULE
EN300-53173_i001|amine_1|mol2|818|dock18
    33    33     1
SMALL
USER_CHARGES


@<TRIPOS>ATOM
      1 C1          31.8928  38.4583  34.8659 C.3            1 <1>                0.0000
      2 N2          32.2377  37.1508  35.4397 N.3            1 <1>                0.0000
      3 C3          33.5294  36.6749  34.9266 C.3            1 <1>                0.0000
      4 C4          32.2420  37.2046  36.9078 C.3            1 <1>                0.0000
      5 C5          31.9324  35.8158  37.4700 C.3            1 <1>                0.0000
      6 N6          30.9325  35.9323  38.5397 N.4            1 <1>                1.0000
      7 C7          29.7903  36.7209  38.0585 C.3            1 <1>                0.0000
      8 C8          28.6081  36.4981  38.9662 C.ar           1 <1>                0.0000
      9 C9          27.3244  36.6879  38.4880 C.ar           1 <1>                0.0000
     10 C10         26.2378  36.4843  39.3180 C.ar           1 <1>                0.0000
     11 C11         26.4321  36.0905  40.6280 C.ar           1 <1>                0.0000
     12 C12         27.7185  35.8989  41.1101 C.ar           1 <1>                0.0000
     13 O13         27.9121  35.5111  42.3981 O.3            1 <1>                0.0000
     14 C14         28.8073  36.0989  40.2734 C.ar           1 <1>                0.0000
     15 H15         31.8281  38.3734  33.7811 H              1 <1>                0.0000
     16 H16         30.9323  38.7872  35.2625 H              1 <1>                0.0000
     17 H17         32.6621  39.1846  35.1283 H              1 <1>                0.0000
     18 H18         34.3202  37.3521  35.2492 H              1 <1>                0.0000
     19 H19         33.7275  35.6749  35.3125 H              1 <1>                0.0000
     20 H20         33.4988  36.6446  33.8375 H              1 <1>                0.0000
     21 H21         33.2228  37.5276  37.2566 H              1 <1>                0.0000
     22 H22         31.4848  37.9113  37.2476 H              1 <1>                0.0000
     23 H23         31.5415  35.1808  36.6749 H              1 <1>                0.0000
     24 H24         32.8447  35.3748  37.8717 H              1 <1>                0.0000
     25 H25         30.0535  37.7786  38.0579 H              1 <1>                0.0000
     26 H26         29.5346  36.4094  37.0457 H              1 <1>                0.0000
     27 H27         27.1706  36.9961  37.4643 H              1 <1>                0.0000
     28 H28         25.2364  36.6336  38.9422 H              1 <1>                0.0000
     29 H29         25.5829  35.9323  41.2763 H              1 <1>                0.0000
     30 H30         29.8099  35.9501  40.6462 H              1 <1>                0.0000
     31 H31         30.6169  35.0119  38.8069 H              1 <1>                0.0000
     32 H32         31.3456  36.3911  39.3378 H              1 <1>                0.0000
     33 H33         27.0945  35.3977  42.9018 H              1 <1>                0.0000
@<TRIPOS>BOND
    1    1    2 1     
    2    1   15 1     
    3    1   16 1     
    4    1   17 1     
    5    2    3 1     
    6    2    4 1     
    7    3   18 1     
    8    3   19 1     
    9    3   20 1     
   10    4    5 1     
   11    4   21 1     
   12    4   22 1     
   13    5    6 1     
   14    5   23 1     
   15    5   24 1     
   16    6    7 1     
   17    6   31 1     
   18    6   32 1     
   19    7    8 1     
   20    7   25 1     
   21    7   26 1     
   22    8    9 ar    
   23    8   14 ar    
   24    9   10 ar    
   25    9   27 1     
   26   10   11 ar    
   27   10   28 1     
   28   11   12 ar    
   29   11   29 1     
   30   12   13 1     
   31   12   14 ar    
   32   13   33 1     
   33   14   30 1     
@<TRIPOS>SUBSTRUCTURE
      1 ****           1
@<TRIPOS>SET
DONOR_HYDROGENS      STATIC     ATOMS    <user>   **** ""
3 31 32 33
ATOM$RED        STATIC     ATOMS    COLORGROUP SYSTEM
3 31 32 33
@<TRIPOS>COMMENT
> <Gold.Version>
2022.2.0

> <Gold.Id.Protein>
1qkm|1qkm_protein|mol2

> <Gold.Protein.RotatedTorsions>
[  496  491  490  487 ] final -138.46 input  -89.99 | X-H torsion

> <Gold.Protein.ActiveResidues>
 MET295  LEU298  THR299  LEU301  ALA302  GLU305  TRP335  MET336  LEU339  MET340 
 GLY342  LEU343  ARG346  PHE356  ILE373  ILE376  PHE377  LEU380  LYS471  GLY472 
 MET473  HIS475  LEU476  LEU477  ASN478  MET479  VAL484  VAL487 

> <Gold.Protein.RotatedAtoms>
   37.1639   34.0971   40.7262 H   0  0  0  0  0  0  0  0  0  0  0  0  # atno 496  bound_to 491 

> <Gold.Score>
     Score     S(PLP)   S(hbond)     S(cho)   S(metal)  DE(clash)   DE(tors)     intcor
     50.13     -49.27       1.00       0.00       0.00       0.08       1.04       0.02

> <Gold.PLP.Fitness>
50.1254

> <Gold.PLP.PLP>
-49.2714

> <Gold.PLP.part.hbond>
-0.8498

> <Gold.PLP.part.metal>
0.0000

> <Gold.PLP.part.buried>
-3.6597

> <Gold.PLP.part.nonpolar>
-44.0346

> <Gold.PLP.part.repulsive>
0.1067

> <Gold.PLP.ligand.clash>
0.0822

> <Gold.PLP.ligand.torsion>
1.0404

> <Gold.PLP.Chemscore.Hbond>
1.0000

> <Gold.PLP.Chemscore.CHOScore>
0.0000

> <Gold.PLP.Chemscore.Metal>
0.0000

> <Gold.Chemscore.Hbonds>
donor molecule, donor type, donor heavy atom, donor atom, acceptor molecule, acceptor atom, score
      L1  H    13    33       P1   582  1.00

> <Gold.PLP.Chemscore.Internal.Correction>
0.0170

