#       Name:                EN300-53173_i001
#       Creating user name   aseyller
#       Creation time:       Fri Apr 21 14:58:02 2023


#       File generated by GOLD software.
#

@<TRIPOS>MOLECULE
EN300-53173_i001|amine_1|mol2|818|dock10
    33    33     1
SMALL
USER_CHARGES


@<TRIPOS>ATOM
      1 C1          31.2030  36.7054  35.5886 C.3            1 <1>                0.0000
      2 N2          32.3859  35.9276  35.9807 N.3            1 <1>                0.0000
      3 C3          33.5848  36.4017  35.2765 C.3            1 <1>                0.0000
      4 C4          32.5814  35.9642  37.4362 C.3            1 <1>                0.0000
      5 C5          31.8539  34.7814  38.0785 C.3            1 <1>                0.0000
      6 N6          30.4248  35.0962  38.2060 N.4            1 <1>                1.0000
      7 C7          30.2660  36.3717  38.9173 C.3            1 <1>                0.0000
      8 C8          28.8252  36.5440  39.3242 C.ar           1 <1>                0.0000
      9 C9          27.8549  36.7494  38.3605 C.ar           1 <1>                0.0000
     10 C10         26.5323  36.9077  38.7305 C.ar           1 <1>                0.0000
     11 C11         26.1769  36.8611  40.0649 C.ar           1 <1>                0.0000
     12 C12         27.1481  36.6547  41.0335 C.ar           1 <1>                0.0000
     13 O13         26.8008  36.6080  42.3466 O.3            1 <1>                0.0000
     14 C14         28.4741  36.4909  40.6591 C.ar           1 <1>                0.0000
     15 H15         31.0408  36.6041  34.5156 H              1 <1>                0.0000
     16 H16         30.3297  36.3337  36.1247 H              1 <1>                0.0000
     17 H17         31.3606  37.7554  35.8348 H              1 <1>                0.0000
     18 H18         33.7993  37.4280  35.5745 H              1 <1>                0.0000
     19 H19         34.4317  35.7647  35.5315 H              1 <1>                0.0000
     20 H20         33.4129  36.3641  34.2008 H              1 <1>                0.0000
     21 H21         33.6460  35.9018  37.6615 H              1 <1>                0.0000
     22 H22         32.1801  36.8967  37.8333 H              1 <1>                0.0000
     23 H23         31.9766  33.8967  37.4536 H              1 <1>                0.0000
     24 H24         32.2734  34.5896  39.0660 H              1 <1>                0.0000
     25 H25         30.8971  36.3731  39.8060 H              1 <1>                0.0000
     26 H26         30.5591  37.1921  38.2621 H              1 <1>                0.0000
     27 H27         28.1309  36.7864  37.3170 H              1 <1>                0.0000
     28 H28         25.7765  37.0683  37.9760 H              1 <1>                0.0000
     29 H29         25.1436  36.9856  40.3535 H              1 <1>                0.0000
     30 H30         29.2321  36.3297  41.4112 H              1 <1>                0.0000
     31 H31         30.0133  35.1699  37.2877 H              1 <1>                0.0000
     32 H32         29.9636  34.3629  38.7234 H              1 <1>                0.0000
     33 H33         26.6344  35.7149  42.6778 H              1 <1>                0.0000
@<TRIPOS>BOND
    1    1    2 1     
    2    1   15 1     
    3    1   16 1     
    4    1   17 1     
    5    2    3 1     
    6    2    4 1     
    7    3   18 1     
    8    3   19 1     
    9    3   20 1     
   10    4    5 1     
   11    4   21 1     
   12    4   22 1     
   13    5    6 1     
   14    5   23 1     
   15    5   24 1     
   16    6    7 1     
   17    6   31 1     
   18    6   32 1     
   19    7    8 1     
   20    7   25 1     
   21    7   26 1     
   22    8    9 ar    
   23    8   14 ar    
   24    9   10 ar    
   25    9   27 1     
   26   10   11 ar    
   27   10   28 1     
   28   11   12 ar    
   29   11   29 1     
   30   12   13 1     
   31   12   14 ar    
   32   13   33 1     
   33   14   30 1     
@<TRIPOS>SUBSTRUCTURE
      1 ****           1
@<TRIPOS>SET
DONOR_HYDROGENS      STATIC     ATOMS    <user>   **** ""
3 31 32 33
ATOM$RED        STATIC     ATOMS    COLORGROUP SYSTEM
3 31 32 33
@<TRIPOS>COMMENT
> <Gold.Version>
2022.2.0

> <Gold.Id.Protein>
1qkm|1qkm_protein|mol2

> <Gold.Protein.RotatedTorsions>
[  496  491  490  487 ] final   43.55 input  -89.99 | X-H torsion

> <Gold.Protein.ActiveResidues>
 MET295  LEU298  THR299  LEU301  ALA302  GLU305  TRP335  MET336  LEU339  MET340 
 GLY342  LEU343  ARG346  PHE356  ILE373  ILE376  PHE377  LEU380  LYS471  GLY472 
 MET473  HIS475  LEU476  LEU477  ASN478  MET479  VAL484  VAL487 

> <Gold.Protein.RotatedAtoms>
   36.4270   33.5482   42.3732 H   0  0  0  0  0  0  0  0  0  0  0  0  # atno 496  bound_to 491 

> <Gold.Score>
     Score     S(PLP)   S(hbond)     S(cho)   S(metal)  DE(clash)   DE(tors)     intcor
     51.26     -49.55       1.00       0.00       0.00       0.00       0.66       0.02

> <Gold.PLP.Fitness>
51.2559

> <Gold.PLP.PLP>
-49.5546

> <Gold.PLP.part.hbond>
-1.0000

> <Gold.PLP.part.metal>
0.0000

> <Gold.PLP.part.buried>
-4.1842

> <Gold.PLP.part.nonpolar>
-44.1843

> <Gold.PLP.part.repulsive>
0.0466

> <Gold.PLP.ligand.clash>
0.0000

> <Gold.PLP.ligand.torsion>
0.6578

> <Gold.PLP.Chemscore.Hbond>
1.0000

> <Gold.PLP.Chemscore.CHOScore>
0.0000

> <Gold.PLP.Chemscore.Metal>
0.0000

> <Gold.Chemscore.Hbonds>
donor molecule, donor type, donor heavy atom, donor atom, acceptor molecule, acceptor atom, score
      L1  H    13    33       P1   582  1.00

> <Gold.PLP.Chemscore.Internal.Correction>
0.0170

