#       Name:                EN300-53173_i001
#       Creating user name   aseyller
#       Creation time:       Fri Apr 21 14:58:04 2023


#       File generated by GOLD software.
#

@<TRIPOS>MOLECULE
EN300-53173_i001|amine_1|mol2|818|dock12
    33    33     1
SMALL
USER_CHARGES


@<TRIPOS>ATOM
      1 C1          30.8275  37.8965  37.3982 C.3            1 <1>                0.0000
      2 N2          30.8174  36.6489  36.6226 N.3            1 <1>                0.0000
      3 C3          31.0509  36.9138  35.1966 C.3            1 <1>                0.0000
      4 C4          31.8017  35.6939  37.1487 C.3            1 <1>                0.0000
      5 C5          31.2958  35.1172  38.4725 C.3            1 <1>                0.0000
      6 N6          29.8429  35.3116  38.5678 N.4            1 <1>                1.0000
      7 C7          29.4934  35.7313  39.9314 C.3            1 <1>                0.0000
      8 C8          28.0876  36.2741  39.9452 C.ar           1 <1>                0.0000
      9 C9          27.5405  36.8049  38.7914 C.ar           1 <1>                0.0000
     10 C10         26.2512  37.3036  38.8007 C.ar           1 <1>                0.0000
     11 C11         25.5059  37.2728  39.9637 C.ar           1 <1>                0.0000
     12 C12         26.0520  36.7405  41.1223 C.ar           1 <1>                0.0000
     13 O13         25.3207  36.7087  42.2673 O.3            1 <1>                0.0000
     14 C14         27.3445  36.2359  41.1090 C.ar           1 <1>                0.0000
     15 H15         30.0422  38.5581  37.0325 H              1 <1>                0.0000
     16 H16         30.6523  37.6716  38.4503 H              1 <1>                0.0000
     17 H17         31.7954  38.3853  37.2874 H              1 <1>                0.0000
     18 H18         32.0488  37.3314  35.0632 H              1 <1>                0.0000
     19 H19         30.9687  35.9826  34.6359 H              1 <1>                0.0000
     20 H20         30.3083  37.6238  34.8326 H              1 <1>                0.0000
     21 H21         31.9437  34.8860  36.4310 H              1 <1>                0.0000
     22 H22         32.7507  36.2041  37.3138 H              1 <1>                0.0000
     23 H23         31.5234  34.0521  38.5154 H              1 <1>                0.0000
     24 H24         31.7858  35.6271  39.3019 H              1 <1>                0.0000
     25 H25         29.5588  34.8753  40.6031 H              1 <1>                0.0000
     26 H26         30.1853  36.5061  40.2618 H              1 <1>                0.0000
     27 H27         28.1217  36.8301  37.8814 H              1 <1>                0.0000
     28 H28         25.8264  37.7179  37.8983 H              1 <1>                0.0000
     29 H29         24.4989  37.6632  39.9707 H              1 <1>                0.0000
     30 H30         27.7719  35.8206  42.0096 H              1 <1>                0.0000
     31 H31         29.5551  36.0231  37.9128 H              1 <1>                0.0000
     32 H32         29.3727  34.4454  38.3515 H              1 <1>                0.0000
     33 H33         25.6448  36.0767  42.9236 H              1 <1>                0.0000
@<TRIPOS>BOND
    1    1    2 1     
    2    1   15 1     
    3    1   16 1     
    4    1   17 1     
    5    2    3 1     
    6    2    4 1     
    7    3   18 1     
    8    3   19 1     
    9    3   20 1     
   10    4    5 1     
   11    4   21 1     
   12    4   22 1     
   13    5    6 1     
   14    5   23 1     
   15    5   24 1     
   16    6    7 1     
   17    6   31 1     
   18    6   32 1     
   19    7    8 1     
   20    7   25 1     
   21    7   26 1     
   22    8    9 ar    
   23    8   14 ar    
   24    9   10 ar    
   25    9   27 1     
   26   10   11 ar    
   27   10   28 1     
   28   11   12 ar    
   29   11   29 1     
   30   12   13 1     
   31   12   14 ar    
   32   13   33 1     
   33   14   30 1     
@<TRIPOS>SUBSTRUCTURE
      1 ****           1
@<TRIPOS>SET
DONOR_HYDROGENS      STATIC     ATOMS    <user>   **** ""
3 31 32 33
ATOM$RED        STATIC     ATOMS    COLORGROUP SYSTEM
3 31 32 33
@<TRIPOS>COMMENT
> <Gold.Version>
2022.2.0

> <Gold.Id.Protein>
1qkm|1qkm_protein|mol2

> <Gold.Protein.RotatedTorsions>
[  496  491  490  487 ] final  136.81 input  -89.99 | X-H torsion

> <Gold.Protein.ActiveResidues>
 MET295  LEU298  THR299  LEU301  ALA302  GLU305  TRP335  MET336  LEU339  MET340 
 GLY342  LEU343  ARG346  PHE356  ILE373  ILE376  PHE377  LEU380  LYS471  GLY472 
 MET473  HIS475  LEU476  LEU477  ASN478  MET479  VAL484  VAL487 

> <Gold.Protein.RotatedAtoms>
   37.1961   33.0053   41.3761 H   0  0  0  0  0  0  0  0  0  0  0  0  # atno 496  bound_to 491 

> <Gold.Score>
     Score     S(PLP)   S(hbond)     S(cho)   S(metal)  DE(clash)   DE(tors)     intcor
     50.07     -48.06       1.40       0.00       0.00       0.00       1.10       0.02

> <Gold.PLP.Fitness>
50.0744

> <Gold.PLP.PLP>
-48.0615

> <Gold.PLP.part.hbond>
-2.0000

> <Gold.PLP.part.metal>
0.0000

> <Gold.PLP.part.buried>
-3.9161

> <Gold.PLP.part.nonpolar>
-42.8440

> <Gold.PLP.part.repulsive>
0.0000

> <Gold.PLP.ligand.clash>
0.0000

> <Gold.PLP.ligand.torsion>
1.1020

> <Gold.PLP.Chemscore.Hbond>
1.4000

> <Gold.PLP.Chemscore.CHOScore>
0.0000

> <Gold.PLP.Chemscore.Metal>
0.0000

> <Gold.Chemscore.Hbonds>
donor molecule, donor type, donor heavy atom, donor atom, acceptor molecule, acceptor atom, score
      L1  H    13    33       P1   582  1.00
      P1  H  1258  1270       L1    13  0.40

> <Gold.PLP.Chemscore.Internal.Correction>
0.0170

