#       Name:                EN300-53173_i001
#       Creating user name   aseyller
#       Creation time:       Fri Apr 21 14:57:56 2023


#       File generated by GOLD software.
#

@<TRIPOS>MOLECULE
EN300-53173_i001|amine_1|mol2|818|dock6
    33    33     1
SMALL
USER_CHARGES


@<TRIPOS>ATOM
      1 C1          32.5275  37.8987  36.8516 C.3            1 <1>                0.0000
      2 N2          31.1162  37.7859  37.2436 N.3            1 <1>                0.0000
      3 C3          30.2506  38.5205  36.3114 C.3            1 <1>                0.0000
      4 C4          30.7083  36.3781  37.3427 C.3            1 <1>                0.0000
      5 C5          31.2376  35.7845  38.6497 C.3            1 <1>                0.0000
      6 N6          30.2579  36.0080  39.7211 N.4            1 <1>                1.0000
      7 C7          29.0782  35.1638  39.4898 C.3            1 <1>                0.0000
      8 C8          27.8281  35.9779  39.7036 C.ar           1 <1>                0.0000
      9 C9          27.3096  36.7328  38.6674 C.ar           1 <1>                0.0000
     10 C10         26.1631  37.4807  38.8603 C.ar           1 <1>                0.0000
     11 C11         25.5323  37.4756  40.0896 C.ar           1 <1>                0.0000
     12 C12         26.0500  36.7189  41.1305 C.ar           1 <1>                0.0000
     13 O13         25.4312  36.7119  42.3403 O.3            1 <1>                0.0000
     14 C14         27.1980  35.9650  40.9327 C.ar           1 <1>                0.0000
     15 H15         32.8225  38.9480  36.8540 H              1 <1>                0.0000
     16 H16         33.1463  37.3458  37.5585 H              1 <1>                0.0000
     17 H17         32.6609  37.4860  35.8517 H              1 <1>                0.0000
     18 H18         30.3151  38.0675  35.3221 H              1 <1>                0.0000
     19 H19         29.2199  38.4793  36.6635 H              1 <1>                0.0000
     20 H20         30.5746  39.5598  36.2570 H              1 <1>                0.0000
     21 H21         29.6204  36.3133  37.3284 H              1 <1>                0.0000
     22 H22         31.1165  35.8214  36.4992 H              1 <1>                0.0000
     23 H23         31.3997  34.7141  38.5232 H              1 <1>                0.0000
     24 H24         32.1795  36.2661  38.9123 H              1 <1>                0.0000
     25 H25         29.0958  34.7871  38.4671 H              1 <1>                0.0000
     26 H26         29.0892  34.3252  40.1861 H              1 <1>                0.0000
     27 H27         27.8014  36.7383  37.7058 H              1 <1>                0.0000
     28 H28         25.7603  38.0696  38.0496 H              1 <1>                0.0000
     29 H29         24.6370  38.0606  40.2400 H              1 <1>                0.0000
     30 H30         27.6030  35.3748  41.7414 H              1 <1>                0.0000
     31 H31         30.6718  35.7709  40.6103 H              1 <1>                0.0000
     32 H32         29.9812  36.9783  39.7269 H              1 <1>                0.0000
     33 H33         25.6742  35.9633  42.9021 H              1 <1>                0.0000
@<TRIPOS>BOND
    1    1    2 1     
    2    1   15 1     
    3    1   16 1     
    4    1   17 1     
    5    2    3 1     
    6    2    4 1     
    7    3   18 1     
    8    3   19 1     
    9    3   20 1     
   10    4    5 1     
   11    4   21 1     
   12    4   22 1     
   13    5    6 1     
   14    5   23 1     
   15    5   24 1     
   16    6    7 1     
   17    6   31 1     
   18    6   32 1     
   19    7    8 1     
   20    7   25 1     
   21    7   26 1     
   22    8    9 ar    
   23    8   14 ar    
   24    9   10 ar    
   25    9   27 1     
   26   10   11 ar    
   27   10   28 1     
   28   11   12 ar    
   29   11   29 1     
   30   12   13 1     
   31   12   14 ar    
   32   13   33 1     
   33   14   30 1     
@<TRIPOS>SUBSTRUCTURE
      1 ****           1
@<TRIPOS>SET
DONOR_HYDROGENS      STATIC     ATOMS    <user>   **** ""
3 31 32 33
ATOM$RED        STATIC     ATOMS    COLORGROUP SYSTEM
3 31 32 33
@<TRIPOS>COMMENT
> <Gold.Version>
2022.2.0

> <Gold.Id.Protein>
1qkm|1qkm_protein|mol2

> <Gold.Protein.RotatedTorsions>
[  496  491  490  487 ] final   65.79 input  -89.99 | X-H torsion

> <Gold.Protein.ActiveResidues>
 MET295  LEU298  THR299  LEU301  ALA302  GLU305  TRP335  MET336  LEU339  MET340 
 GLY342  LEU343  ARG346  PHE356  ILE373  ILE376  PHE377  LEU380  LYS471  GLY472 
 MET473  HIS475  LEU476  LEU477  ASN478  MET479  VAL484  VAL487 

> <Gold.Protein.RotatedAtoms>
   36.6005   33.2479   42.2633 H   0  0  0  0  0  0  0  0  0  0  0  0  # atno 496  bound_to 491 

> <Gold.Score>
     Score     S(PLP)   S(hbond)     S(cho)   S(metal)  DE(clash)   DE(tors)     intcor
     52.56     -47.55       2.37       0.00       0.00       0.00       1.05       0.02

> <Gold.PLP.Fitness>
52.5630

> <Gold.PLP.PLP>
-47.5475

> <Gold.PLP.part.hbond>
-3.0000

> <Gold.PLP.part.metal>
0.0000

> <Gold.PLP.part.buried>
-5.0224

> <Gold.PLP.part.nonpolar>
-40.0190

> <Gold.PLP.part.repulsive>
0.0446

> <Gold.PLP.ligand.clash>
0.0000

> <Gold.PLP.ligand.torsion>
1.0527

> <Gold.PLP.Chemscore.Hbond>
2.3680

> <Gold.PLP.Chemscore.CHOScore>
0.0000

> <Gold.PLP.Chemscore.Metal>
0.0000

> <Gold.Chemscore.Hbonds>
donor molecule, donor type, donor heavy atom, donor atom, acceptor molecule, acceptor atom, score
      L1  H     6    31       P1   470  1.00
      L1  H    13    33       P1   582  1.00
      P1  H  1258  1270       L1    13  0.37

> <Gold.PLP.Chemscore.Internal.Correction>
0.0170

