#       Name:                EN300-53173_i001
#       Creating user name   aseyller
#       Creation time:       Fri Apr 21 14:57:55 2023


#       File generated by GOLD software.
#

@<TRIPOS>MOLECULE
EN300-53173_i001|amine_1|mol2|818|dock5
    33    33     1
SMALL
USER_CHARGES


@<TRIPOS>ATOM
      1 C1          30.5078  37.8746  35.1882 C.3            1 <1>                0.0000
      2 N2          30.6136  38.1129  36.6339 N.3            1 <1>                0.0000
      3 C3          29.7681  39.2419  37.0446 C.3            1 <1>                0.0000
      4 C4          30.2787  36.9008  37.3933 C.3            1 <1>                0.0000
      5 C5          30.3414  37.2040  38.8916 C.3            1 <1>                0.0000
      6 N6          30.1752  35.9575  39.6508 N.4            1 <1>                1.0000
      7 C7          28.9791  35.2500  39.1747 C.3            1 <1>                0.0000
      8 C8          27.7456  35.9917  39.6213 C.ar           1 <1>                0.0000
      9 C9          26.8709  36.5065  38.6820 C.ar           1 <1>                0.0000
     10 C10         25.7385  37.1874  39.0884 C.ar           1 <1>                0.0000
     11 C11         25.4780  37.3551  40.4348 C.ar           1 <1>                0.0000
     12 C12         26.3535  36.8393  41.3791 C.ar           1 <1>                0.0000
     13 O13         26.0991  37.0026  42.7041 O.3            1 <1>                0.0000
     14 C14         27.4866  36.1519  40.9686 C.ar           1 <1>                0.0000
     15 H15         30.8284  38.7657  34.6486 H              1 <1>                0.0000
     16 H16         31.1436  37.0336  34.9111 H              1 <1>                0.0000
     17 H17         29.4729  37.6474  34.9323 H              1 <1>                0.0000
     18 H18         28.7214  38.9957  36.8660 H              1 <1>                0.0000
     19 H19         29.9185  39.4414  38.1056 H              1 <1>                0.0000
     20 H20         30.0371  40.1262  36.4669 H              1 <1>                0.0000
     21 H21         29.2727  36.5738  37.1304 H              1 <1>                0.0000
     22 H22         30.9916  36.1123  37.1520 H              1 <1>                0.0000
     23 H23         31.3066  37.6498  39.1320 H              1 <1>                0.0000
     24 H24         29.5444  37.8992  39.1553 H              1 <1>                0.0000
     25 H25         28.9972  35.1975  38.0861 H              1 <1>                0.0000
     26 H26         28.9656  34.2410  39.5869 H              1 <1>                0.0000
     27 H27         27.0731  36.3767  37.6289 H              1 <1>                0.0000
     28 H28         25.0572  37.5888  38.3528 H              1 <1>                0.0000
     29 H29         24.5936  37.8877  40.7519 H              1 <1>                0.0000
     30 H30         28.1696  35.7490  41.7017 H              1 <1>                0.0000
     31 H31         30.9867  35.3726  39.5189 H              1 <1>                0.0000
     32 H32         30.0710  36.1721  40.6312 H              1 <1>                0.0000
     33 H33         26.3451  36.2422  43.2484 H              1 <1>                0.0000
@<TRIPOS>BOND
    1    1    2 1     
    2    1   15 1     
    3    1   16 1     
    4    1   17 1     
    5    2    3 1     
    6    2    4 1     
    7    3   18 1     
    8    3   19 1     
    9    3   20 1     
   10    4    5 1     
   11    4   21 1     
   12    4   22 1     
   13    5    6 1     
   14    5   23 1     
   15    5   24 1     
   16    6    7 1     
   17    6   31 1     
   18    6   32 1     
   19    7    8 1     
   20    7   25 1     
   21    7   26 1     
   22    8    9 ar    
   23    8   14 ar    
   24    9   10 ar    
   25    9   27 1     
   26   10   11 ar    
   27   10   28 1     
   28   11   12 ar    
   29   11   29 1     
   30   12   13 1     
   31   12   14 ar    
   32   13   33 1     
   33   14   30 1     
@<TRIPOS>SUBSTRUCTURE
      1 ****           1
@<TRIPOS>SET
DONOR_HYDROGENS      STATIC     ATOMS    <user>   **** ""
3 31 32 33
ATOM$RED        STATIC     ATOMS    COLORGROUP SYSTEM
3 31 32 33
@<TRIPOS>COMMENT
> <Gold.Version>
2022.2.0

> <Gold.Id.Protein>
1qkm|1qkm_protein|mol2

> <Gold.Protein.RotatedTorsions>
[  496  491  490  487 ] final  101.16 input  -89.99 | X-H torsion

> <Gold.Protein.ActiveResidues>
 MET295  LEU298  THR299  LEU301  ALA302  GLU305  TRP335  MET336  LEU339  MET340 
 GLY342  LEU343  ARG346  PHE356  ILE373  ILE376  PHE377  LEU380  LYS471  GLY472 
 MET473  HIS475  LEU476  LEU477  ASN478  MET479  VAL484  VAL487 

> <Gold.Protein.RotatedAtoms>
   36.9221   32.9646   41.8828 H   0  0  0  0  0  0  0  0  0  0  0  0  # atno 496  bound_to 491 

> <Gold.Score>
     Score     S(PLP)   S(hbond)     S(cho)   S(metal)  DE(clash)   DE(tors)     intcor
     52.66     -49.80       1.00       0.00       0.00       0.00       0.08       0.02

> <Gold.PLP.Fitness>
52.6553

> <Gold.PLP.PLP>
-49.8008

> <Gold.PLP.part.hbond>
-2.9450

> <Gold.PLP.part.metal>
0.0000

> <Gold.PLP.part.buried>
-4.8137

> <Gold.PLP.part.nonpolar>
-43.0139

> <Gold.PLP.part.repulsive>
0.0379

> <Gold.PLP.ligand.clash>
0.0000

> <Gold.PLP.ligand.torsion>
0.0813

> <Gold.PLP.Chemscore.Hbond>
1.0000

> <Gold.PLP.Chemscore.CHOScore>
0.0000

> <Gold.PLP.Chemscore.Metal>
0.0000

> <Gold.Chemscore.Hbonds>
donor molecule, donor type, donor heavy atom, donor atom, acceptor molecule, acceptor atom, score
      L1  H    13    33       P1   582  1.00

> <Gold.PLP.Chemscore.Internal.Correction>
0.0170

