#       Name:                EN300-53173_i001
#       Creating user name   aseyller
#       Creation time:       Fri Apr 21 14:58:03 2023


#       File generated by GOLD software.
#

@<TRIPOS>MOLECULE
EN300-53173_i001|amine_1|mol2|818|dock11
    33    33     1
SMALL
USER_CHARGES


@<TRIPOS>ATOM
      1 C1          25.9611  37.0099  41.4868 C.3            1 <1>                0.0000
      2 N2          26.5129  35.9570  40.6237 N.3            1 <1>                0.0000
      3 C3          26.5789  36.4032  39.2256 C.3            1 <1>                0.0000
      4 C4          27.8329  35.5233  41.1007 C.3            1 <1>                0.0000
      5 C5          28.8531  36.6383  40.8622 C.3            1 <1>                0.0000
      6 N6          29.9358  36.1363  40.0059 N.4            1 <1>                1.0000
      7 C7          30.2382  37.1291  38.9662 C.3            1 <1>                0.0000
      8 C8          31.1176  36.5033  37.9145 C.ar           1 <1>                0.0000
      9 C9          31.9254  35.4288  38.2392 C.ar           1 <1>                0.0000
     10 C10         32.7332  34.8525  37.2768 C.ar           1 <1>                0.0000
     11 C11         32.7354  35.3491  35.9875 C.ar           1 <1>                0.0000
     12 C12         31.9258  36.4265  35.6590 C.ar           1 <1>                0.0000
     13 O13         31.9258  36.9164  34.3914 O.3            1 <1>                0.0000
     14 C14         31.1120  36.9998  36.6256 C.ar           1 <1>                0.0000
     15 H15         24.9548  37.2631  41.1529 H              1 <1>                0.0000
     16 H16         25.9234  36.6533  42.5161 H              1 <1>                0.0000
     17 H17         26.5956  37.8945  41.4317 H              1 <1>                0.0000
     18 H18         27.2724  37.2400  39.1436 H              1 <1>                0.0000
     19 H19         26.9247  35.5818  38.5980 H              1 <1>                0.0000
     20 H20         25.5884  36.7186  38.8978 H              1 <1>                0.0000
     21 H21         27.7792  35.3017  42.1665 H              1 <1>                0.0000
     22 H22         28.1391  34.6285  40.5586 H              1 <1>                0.0000
     23 H23         28.3634  37.4801  40.3727 H              1 <1>                0.0000
     24 H24         29.2659  36.9633  41.8172 H              1 <1>                0.0000
     25 H25         29.3096  37.4694  38.5078 H              1 <1>                0.0000
     26 H26         30.7549  37.9781  39.4138 H              1 <1>                0.0000
     27 H27         31.9253  35.0395  39.2467 H              1 <1>                0.0000
     28 H28         33.3633  34.0137  37.5331 H              1 <1>                0.0000
     29 H29         33.3672  34.8990  35.2361 H              1 <1>                0.0000
     30 H30         30.4805  37.8385  36.3723 H              1 <1>                0.0000
     31 H31         30.7596  35.9740  40.5656 H              1 <1>                0.0000
     32 H32         29.6483  35.2719  39.5720 H              1 <1>                0.0000
     33 H33         32.0158  36.2385  33.7077 H              1 <1>                0.0000
@<TRIPOS>BOND
    1    1    2 1     
    2    1   15 1     
    3    1   16 1     
    4    1   17 1     
    5    2    3 1     
    6    2    4 1     
    7    3   18 1     
    8    3   19 1     
    9    3   20 1     
   10    4    5 1     
   11    4   21 1     
   12    4   22 1     
   13    5    6 1     
   14    5   23 1     
   15    5   24 1     
   16    6    7 1     
   17    6   31 1     
   18    6   32 1     
   19    7    8 1     
   20    7   25 1     
   21    7   26 1     
   22    8    9 ar    
   23    8   14 ar    
   24    9   10 ar    
   25    9   27 1     
   26   10   11 ar    
   27   10   28 1     
   28   11   12 ar    
   29   11   29 1     
   30   12   13 1     
   31   12   14 ar    
   32   13   33 1     
   33   14   30 1     
@<TRIPOS>SUBSTRUCTURE
      1 ****           1
@<TRIPOS>SET
DONOR_HYDROGENS      STATIC     ATOMS    <user>   **** ""
3 31 32 33
ATOM$RED        STATIC     ATOMS    COLORGROUP SYSTEM
3 31 32 33
@<TRIPOS>COMMENT
> <Gold.Version>
2022.2.0

> <Gold.Id.Protein>
1qkm|1qkm_protein|mol2

> <Gold.Protein.RotatedTorsions>
[  496  491  490  487 ] final   16.27 input  -89.99 | X-H torsion

> <Gold.Protein.ActiveResidues>
 MET295  LEU298  THR299  LEU301  ALA302  GLU305  TRP335  MET336  LEU339  MET340 
 GLY342  LEU343  ARG346  PHE356  ILE373  ILE376  PHE377  LEU380  LYS471  GLY472 
 MET473  HIS475  LEU476  LEU477  ASN478  MET479  VAL484  VAL487 

> <Gold.Protein.RotatedAtoms>
   36.2897   33.9700   42.3410 H   0  0  0  0  0  0  0  0  0  0  0  0  # atno 496  bound_to 491 

> <Gold.Score>
     Score     S(PLP)   S(hbond)     S(cho)   S(metal)  DE(clash)   DE(tors)     intcor
     52.32     -48.73       1.94       0.00       0.00       0.00       1.12       0.02

> <Gold.PLP.Fitness>
52.3228

> <Gold.PLP.PLP>
-48.7287

> <Gold.PLP.part.hbond>
-2.0000

> <Gold.PLP.part.metal>
0.0000

> <Gold.PLP.part.buried>
-5.3916

> <Gold.PLP.part.nonpolar>
-42.8019

> <Gold.PLP.part.repulsive>
0.1733

> <Gold.PLP.ligand.clash>
0.0000

> <Gold.PLP.ligand.torsion>
1.1233

> <Gold.PLP.Chemscore.Hbond>
1.9413

> <Gold.PLP.Chemscore.CHOScore>
0.0000

> <Gold.PLP.Chemscore.Metal>
0.0000

> <Gold.Chemscore.Hbonds>
donor molecule, donor type, donor heavy atom, donor atom, acceptor molecule, acceptor atom, score
      L1  H     6    31       P1   470  0.95
      L1  H    13    33       P1  3187  0.99

> <Gold.PLP.Chemscore.Internal.Correction>
0.0170

