#       Name:                EN300-53173_i001
#       Creating user name   aseyller
#       Creation time:       Fri Apr 21 14:57:54 2023


#       File generated by GOLD software.
#

@<TRIPOS>MOLECULE
EN300-53173_i001|amine_1|mol2|818|dock4
    33    33     1
SMALL
USER_CHARGES


@<TRIPOS>ATOM
      1 C1          32.7352  36.4014  35.2032 C.3            1 <1>                0.0000
      2 N2          32.0879  36.2577  36.5141 N.3            1 <1>                0.0000
      3 C3          33.0869  36.1212  37.5824 C.3            1 <1>                0.0000
      4 C4          31.1827  37.3837  36.7805 C.3            1 <1>                0.0000
      5 C5          30.6144  37.2574  38.1954 C.3            1 <1>                0.0000
      6 N6          29.9314  35.9645  38.3352 N.4            1 <1>                1.0000
      7 C7          29.4647  35.8043  39.7188 C.3            1 <1>                0.0000
      8 C8          28.0668  36.3530  39.8442 C.ar           1 <1>                0.0000
      9 C9          27.4529  36.9366  38.7510 C.ar           1 <1>                0.0000
     10 C10         26.1706  37.4408  38.8627 C.ar           1 <1>                0.0000
     11 C11         25.4991  37.3629  40.0677 C.ar           1 <1>                0.0000
     12 C12         26.1123  36.7777  41.1657 C.ar           1 <1>                0.0000
     13 O13         25.4536  36.6995  42.3518 O.3            1 <1>                0.0000
     14 C14         27.3975  36.2677  41.0495 C.ar           1 <1>                0.0000
     15 H15         33.3452  35.5210  35.0007 H              1 <1>                0.0000
     16 H16         31.9729  36.5007  34.4304 H              1 <1>                0.0000
     17 H17         33.3678  37.2890  35.2057 H              1 <1>                0.0000
     18 H18         33.6765  37.0356  37.6475 H              1 <1>                0.0000
     19 H19         32.5816  35.9462  38.5322 H              1 <1>                0.0000
     20 H20         33.7439  35.2803  37.3601 H              1 <1>                0.0000
     21 H21         31.7326  38.3206  36.6920 H              1 <1>                0.0000
     22 H22         30.3661  37.3720  36.0586 H              1 <1>                0.0000
     23 H23         31.4265  37.3195  38.9199 H              1 <1>                0.0000
     24 H24         29.9046  38.0648  38.3753 H              1 <1>                0.0000
     25 H25         29.4647  34.7466  39.9821 H              1 <1>                0.0000
     26 H26         30.1295  36.3462  40.3916 H              1 <1>                0.0000
     27 H27         27.9764  36.9987  37.8083 H              1 <1>                0.0000
     28 H28         25.6936  37.8963  38.0076 H              1 <1>                0.0000
     29 H29         24.4976  37.7577  40.1547 H              1 <1>                0.0000
     30 H30         27.8770  35.8112  41.9027 H              1 <1>                0.0000
     31 H31         29.1416  35.9318  37.7080 H              1 <1>                0.0000
     32 H32         30.5724  35.2191  38.1080 H              1 <1>                0.0000
     33 H33         25.8180  36.0433  42.9615 H              1 <1>                0.0000
@<TRIPOS>BOND
    1    1    2 1     
    2    1   15 1     
    3    1   16 1     
    4    1   17 1     
    5    2    3 1     
    6    2    4 1     
    7    3   18 1     
    8    3   19 1     
    9    3   20 1     
   10    4    5 1     
   11    4   21 1     
   12    4   22 1     
   13    5    6 1     
   14    5   23 1     
   15    5   24 1     
   16    6    7 1     
   17    6   31 1     
   18    6   32 1     
   19    7    8 1     
   20    7   25 1     
   21    7   26 1     
   22    8    9 ar    
   23    8   14 ar    
   24    9   10 ar    
   25    9   27 1     
   26   10   11 ar    
   27   10   28 1     
   28   11   12 ar    
   29   11   29 1     
   30   12   13 1     
   31   12   14 ar    
   32   13   33 1     
   33   14   30 1     
@<TRIPOS>SUBSTRUCTURE
      1 ****           1
@<TRIPOS>SET
DONOR_HYDROGENS      STATIC     ATOMS    <user>   **** ""
3 31 32 33
ATOM$RED        STATIC     ATOMS    COLORGROUP SYSTEM
3 31 32 33
@<TRIPOS>COMMENT
> <Gold.Version>
2022.2.0

> <Gold.Id.Protein>
1qkm|1qkm_protein|mol2

> <Gold.Protein.RotatedTorsions>
[  496  491  490  487 ] final  -36.74 input  -89.99 | X-H torsion

> <Gold.Protein.ActiveResidues>
 MET295  LEU298  THR299  LEU301  ALA302  GLU305  TRP335  MET336  LEU339  MET340 
 GLY342  LEU343  ARG346  PHE356  ILE373  ILE376  PHE377  LEU380  LYS471  GLY472 
 MET473  HIS475  LEU476  LEU477  ASN478  MET479  VAL484  VAL487 

> <Gold.Protein.RotatedAtoms>
   36.3460   34.6269   41.8175 H   0  0  0  0  0  0  0  0  0  0  0  0  # atno 496  bound_to 491 

> <Gold.Score>
     Score     S(PLP)   S(hbond)     S(cho)   S(metal)  DE(clash)   DE(tors)     intcor
     52.71     -51.07       1.35       0.00       0.00       2.00       0.23       0.03

> <Gold.PLP.Fitness>
52.7075

> <Gold.PLP.PLP>
-51.0653

> <Gold.PLP.part.hbond>
-2.0000

> <Gold.PLP.part.metal>
0.0000

> <Gold.PLP.part.buried>
-5.1432

> <Gold.PLP.part.nonpolar>
-44.4516

> <Gold.PLP.part.repulsive>
0.0152

> <Gold.PLP.ligand.clash>
1.9961

> <Gold.PLP.ligand.torsion>
0.2258

> <Gold.PLP.Chemscore.Hbond>
1.3528

> <Gold.PLP.Chemscore.CHOScore>
0.0000

> <Gold.PLP.Chemscore.Metal>
0.0000

> <Gold.Chemscore.Hbonds>
donor molecule, donor type, donor heavy atom, donor atom, acceptor molecule, acceptor atom, score
      L1  H    13    33       P1   582  1.00
      P1  H  1258  1270       L1    13  0.35

> <Gold.PLP.Chemscore.Internal.Correction>
0.0315

