#       Name:                EN300-53173_i001
#       Creating user name   aseyller
#       Creation time:       Fri Apr 21 14:58:08 2023


#       File generated by GOLD software.
#

@<TRIPOS>MOLECULE
EN300-53173_i001|amine_1|mol2|818|dock15
    33    33     1
SMALL
USER_CHARGES


@<TRIPOS>ATOM
      1 C1          32.4030  35.1270  36.9233 C.3            1 <1>                0.0000
      2 N2          33.0666  36.3861  36.5594 N.3            1 <1>                0.0000
      3 C3          33.3217  36.4481  35.1140 C.3            1 <1>                0.0000
      4 C4          32.2798  37.5438  37.0053 C.3            1 <1>                0.0000
      5 C5          30.9757  37.6118  36.2080 C.3            1 <1>                0.0000
      6 N6          29.8897  37.0106  36.9935 N.4            1 <1>                1.0000
      7 C7          29.8759  37.5982  38.3397 C.3            1 <1>                0.0000
      8 C8          28.7533  36.9911  39.1412 C.ar           1 <1>                0.0000
      9 C9          27.4705  36.9668  38.6253 C.ar           1 <1>                0.0000
     10 C10         26.4385  36.4106  39.3580 C.ar           1 <1>                0.0000
     11 C11         26.6868  35.8775  40.6082 C.ar           1 <1>                0.0000
     12 C12         27.9726  35.9002  41.1280 C.ar           1 <1>                0.0000
     13 O13         28.2193  35.3760  42.3573 O.3            1 <1>                0.0000
     14 C14         29.0076  36.4544  40.3883 C.ar           1 <1>                0.0000
     15 H15         33.0393  34.2872  36.6444 H              1 <1>                0.0000
     16 H16         32.2258  35.1072  37.9986 H              1 <1>                0.0000
     17 H17         31.4515  35.0525  36.3968 H              1 <1>                0.0000
     18 H18         32.3730  36.4535  34.5775 H              1 <1>                0.0000
     19 H19         33.8758  37.3576  34.8816 H              1 <1>                0.0000
     20 H20         33.9059  35.5793  34.8106 H              1 <1>                0.0000
     21 H21         32.0522  37.4416  38.0663 H              1 <1>                0.0000
     22 H22         32.8529  38.4568  36.8430 H              1 <1>                0.0000
     23 H23         30.7352  38.6530  35.9930 H              1 <1>                0.0000
     24 H24         31.0931  37.0653  35.2722 H              1 <1>                0.0000
     25 H25         30.8259  37.3960  38.8343 H              1 <1>                0.0000
     26 H26         29.7274  38.6754  38.2645 H              1 <1>                0.0000
     27 H27         27.2744  37.3834  37.6482 H              1 <1>                0.0000
     28 H28         25.4376  36.3932  38.9529 H              1 <1>                0.0000
     29 H29         25.8801  35.4437  41.1806 H              1 <1>                0.0000
     30 H30         30.0097  36.4729  40.7905 H              1 <1>                0.0000
     31 H31         29.0068  37.1900  36.5391 H              1 <1>                0.0000
     32 H32         30.0361  36.0147  37.0627 H              1 <1>                0.0000
     33 H33         27.4336  35.2942  42.9149 H              1 <1>                0.0000
@<TRIPOS>BOND
    1    1    2 1     
    2    1   15 1     
    3    1   16 1     
    4    1   17 1     
    5    2    3 1     
    6    2    4 1     
    7    3   18 1     
    8    3   19 1     
    9    3   20 1     
   10    4    5 1     
   11    4   21 1     
   12    4   22 1     
   13    5    6 1     
   14    5   23 1     
   15    5   24 1     
   16    6    7 1     
   17    6   31 1     
   18    6   32 1     
   19    7    8 1     
   20    7   25 1     
   21    7   26 1     
   22    8    9 ar    
   23    8   14 ar    
   24    9   10 ar    
   25    9   27 1     
   26   10   11 ar    
   27   10   28 1     
   28   11   12 ar    
   29   11   29 1     
   30   12   13 1     
   31   12   14 ar    
   32   13   33 1     
   33   14   30 1     
@<TRIPOS>SUBSTRUCTURE
      1 ****           1
@<TRIPOS>SET
DONOR_HYDROGENS      STATIC     ATOMS    <user>   **** ""
3 31 32 33
ATOM$RED        STATIC     ATOMS    COLORGROUP SYSTEM
3 31 32 33
@<TRIPOS>COMMENT
> <Gold.Version>
2022.2.0

> <Gold.Id.Protein>
1qkm|1qkm_protein|mol2

> <Gold.Protein.RotatedTorsions>
[  496  491  490  487 ] final  178.21 input  -89.99 | X-H torsion

> <Gold.Protein.ActiveResidues>
 MET295  LEU298  THR299  LEU301  ALA302  GLU305  TRP335  MET336  LEU339  MET340 
 GLY342  LEU343  ARG346  PHE356  ILE373  ILE376  PHE377  LEU380  LYS471  GLY472 
 MET473  HIS475  LEU476  LEU477  ASN478  MET479  VAL484  VAL487 

> <Gold.Protein.RotatedAtoms>
   37.3186   33.4364   40.8825 H   0  0  0  0  0  0  0  0  0  0  0  0  # atno 496  bound_to 491 

> <Gold.Score>
     Score     S(PLP)   S(hbond)     S(cho)   S(metal)  DE(clash)   DE(tors)     intcor
     49.83     -47.55       1.00       0.00       0.00       0.00       0.37       0.02

> <Gold.PLP.Fitness>
49.8275

> <Gold.PLP.PLP>
-47.5461

> <Gold.PLP.part.hbond>
-1.5750

> <Gold.PLP.part.metal>
0.0000

> <Gold.PLP.part.buried>
-3.3872

> <Gold.PLP.part.nonpolar>
-42.5667

> <Gold.PLP.part.repulsive>
0.0031

> <Gold.PLP.ligand.clash>
0.0000

> <Gold.PLP.ligand.torsion>
0.3678

> <Gold.PLP.Chemscore.Hbond>
1.0000

> <Gold.PLP.Chemscore.CHOScore>
0.0000

> <Gold.PLP.Chemscore.Metal>
0.0000

> <Gold.Chemscore.Hbonds>
donor molecule, donor type, donor heavy atom, donor atom, acceptor molecule, acceptor atom, score
      L1  H    13    33       P1   582  1.00

> <Gold.PLP.Chemscore.Internal.Correction>
0.0170

