#       Name:                EN300-53173_i001
#       Creating user name   aseyller
#       Creation time:       Fri Apr 21 14:57:57 2023


#       File generated by GOLD software.
#

@<TRIPOS>MOLECULE
EN300-53173_i001|amine_1|mol2|818|dock7
    33    33     1
SMALL
USER_CHARGES


@<TRIPOS>ATOM
      1 C1          31.9217  38.2424  34.3141 C.3            1 <1>                0.0000
      2 N2          32.0716  37.2273  35.3654 N.3            1 <1>                0.0000
      3 C3          33.3042  36.4509  35.1755 C.3            1 <1>                0.0000
      4 C4          32.0366  37.8417  36.6993 C.3            1 <1>                0.0000
      5 C5          30.7241  38.6084  36.8734 C.3            1 <1>                0.0000
      6 N6          30.0045  38.0879  38.0434 N.4            1 <1>                1.0000
      7 C7          28.8857  37.2476  37.5962 C.3            1 <1>                0.0000
      8 C8          27.9778  36.9570  38.7634 C.ar           1 <1>                0.0000
      9 C9          26.6346  37.2782  38.6908 C.ar           1 <1>                0.0000
     10 C10         25.7992  37.0130  39.7597 C.ar           1 <1>                0.0000
     11 C11         26.3046  36.4260  40.9038 C.ar           1 <1>                0.0000
     12 C12         27.6513  36.1024  40.9792 C.ar           1 <1>                0.0000
     13 O13         28.1507  35.5245  42.1033 O.3            1 <1>                0.0000
     14 C14         28.4867  36.3649  39.9029 C.ar           1 <1>                0.0000
     15 H15         31.8805  37.7539  33.3406 H              1 <1>                0.0000
     16 H16         31.0012  38.8026  34.4787 H              1 <1>                0.0000
     17 H17         32.7719  38.9238  34.3431 H              1 <1>                0.0000
     18 H18         34.1674  37.1082  35.2803 H              1 <1>                0.0000
     19 H19         33.3555  35.6615  35.9254 H              1 <1>                0.0000
     20 H20         33.3043  36.0070  34.1800 H              1 <1>                0.0000
     21 H21         32.1067  37.0638  37.4595 H              1 <1>                0.0000
     22 H22         32.8758  38.5293  36.8047 H              1 <1>                0.0000
     23 H23         30.9385  39.6670  37.0201 H              1 <1>                0.0000
     24 H24         30.1088  38.4824  35.9826 H              1 <1>                0.0000
     25 H25         28.3252  37.7709  36.8216 H              1 <1>                0.0000
     26 H26         29.2725  36.3109  37.1948 H              1 <1>                0.0000
     27 H27         26.2378  37.7375  37.7974 H              1 <1>                0.0000
     28 H28         24.7507  37.2651  39.7006 H              1 <1>                0.0000
     29 H29         25.6516  36.2196  41.7390 H              1 <1>                0.0000
     30 H30         29.5355  36.1136  39.9588 H              1 <1>                0.0000
     31 H31         30.6340  37.5372  38.6079 H              1 <1>                0.0000
     32 H32         29.6492  38.8581  38.5899 H              1 <1>                0.0000
     33 H33         27.4877  35.3562  42.7868 H              1 <1>                0.0000
@<TRIPOS>BOND
    1    1    2 1     
    2    1   15 1     
    3    1   16 1     
    4    1   17 1     
    5    2    3 1     
    6    2    4 1     
    7    3   18 1     
    8    3   19 1     
    9    3   20 1     
   10    4    5 1     
   11    4   21 1     
   12    4   22 1     
   13    5    6 1     
   14    5   23 1     
   15    5   24 1     
   16    6    7 1     
   17    6   31 1     
   18    6   32 1     
   19    7    8 1     
   20    7   25 1     
   21    7   26 1     
   22    8    9 ar    
   23    8   14 ar    
   24    9   10 ar    
   25    9   27 1     
   26   10   11 ar    
   27   10   28 1     
   28   11   12 ar    
   29   11   29 1     
   30   12   13 1     
   31   12   14 ar    
   32   13   33 1     
   33   14   30 1     
@<TRIPOS>SUBSTRUCTURE
      1 ****           1
@<TRIPOS>SET
DONOR_HYDROGENS      STATIC     ATOMS    <user>   **** ""
3 31 32 33
ATOM$RED        STATIC     ATOMS    COLORGROUP SYSTEM
3 31 32 33
@<TRIPOS>COMMENT
> <Gold.Version>
2022.2.0

> <Gold.Id.Protein>
1qkm|1qkm_protein|mol2

> <Gold.Protein.RotatedTorsions>
[  496  491  490  487 ] final   36.79 input  -89.99 | X-H torsion

> <Gold.Protein.ActiveResidues>
 MET295  LEU298  THR299  LEU301  ALA302  GLU305  TRP335  MET336  LEU339  MET340 
 GLY342  LEU343  ARG346  PHE356  ILE373  ILE376  PHE377  LEU380  LYS471  GLY472 
 MET473  HIS475  LEU476  LEU477  ASN478  MET479  VAL484  VAL487 

> <Gold.Protein.RotatedAtoms>
   36.3839   33.6502   42.3827 H   0  0  0  0  0  0  0  0  0  0  0  0  # atno 496  bound_to 491 

> <Gold.Score>
     Score     S(PLP)   S(hbond)     S(cho)   S(metal)  DE(clash)   DE(tors)     intcor
     50.39     -48.86       1.00       0.00       0.00       0.00       0.74       0.02

> <Gold.PLP.Fitness>
50.3942

> <Gold.PLP.PLP>
-48.8590

> <Gold.PLP.part.hbond>
-1.0000

> <Gold.PLP.part.metal>
0.0000

> <Gold.PLP.part.buried>
-4.9866

> <Gold.PLP.part.nonpolar>
-43.1631

> <Gold.PLP.part.repulsive>
0.0815

> <Gold.PLP.ligand.clash>
0.0000

> <Gold.PLP.ligand.torsion>
0.7409

> <Gold.PLP.Chemscore.Hbond>
1.0000

> <Gold.PLP.Chemscore.CHOScore>
0.0000

> <Gold.PLP.Chemscore.Metal>
0.0000

> <Gold.Chemscore.Hbonds>
donor molecule, donor type, donor heavy atom, donor atom, acceptor molecule, acceptor atom, score
      L1  H    13    33       P1   582  1.00

> <Gold.PLP.Chemscore.Internal.Correction>
0.0170

