#       Name:                EN300-53173_i001
#       Creating user name   aseyller
#       Creation time:       Fri Apr 21 14:58:00 2023


#       File generated by GOLD software.
#

@<TRIPOS>MOLECULE
EN300-53173_i001|amine_1|mol2|818|dock9
    33    33     1
SMALL
USER_CHARGES


@<TRIPOS>ATOM
      1 C1          33.1239  36.4145  37.8801 C.3            1 <1>                0.0000
      2 N2          32.1325  35.7191  37.0484 N.3            1 <1>                0.0000
      3 C3          32.5231  35.7436  35.6325 C.3            1 <1>                0.0000
      4 C4          31.9282  34.3410  37.5144 C.3            1 <1>                0.0000
      5 C5          31.1531  34.3582  38.8334 C.3            1 <1>                0.0000
      6 N6          29.8879  35.0814  38.6485 N.4            1 <1>                1.0000
      7 C7          29.7282  36.0711  39.7222 C.3            1 <1>                0.0000
      8 C8          28.2772  36.4629  39.8324 C.ar           1 <1>                0.0000
      9 C9          27.5873  36.8815  38.7094 C.ar           1 <1>                0.0000
     10 C10         26.2562  37.2416  38.8071 C.ar           1 <1>                0.0000
     11 C11         25.6117  37.1841  40.0279 C.ar           1 <1>                0.0000
     12 C12         26.3012  36.7641  41.1559 C.ar           1 <1>                0.0000
     13 O13         25.6694  36.7062  42.3577 O.3            1 <1>                0.0000
     14 C14         27.6358  36.3983  41.0541 C.ar           1 <1>                0.0000
     15 H15         33.2045  37.4526  37.5578 H              1 <1>                0.0000
     16 H16         32.8103  36.3813  38.9235 H              1 <1>                0.0000
     17 H17         34.0925  35.9254  37.7761 H              1 <1>                0.0000
     18 H18         33.4525  35.1893  35.5023 H              1 <1>                0.0000
     19 H19         31.7386  35.2841  35.0312 H              1 <1>                0.0000
     20 H20         32.6678  36.7758  35.3134 H              1 <1>                0.0000
     21 H21         31.3618  33.7851  36.7673 H              1 <1>                0.0000
     22 H22         32.8953  33.8621  37.6675 H              1 <1>                0.0000
     23 H23         30.9443  33.3349  39.1455 H              1 <1>                0.0000
     24 H24         31.7484  34.8570  39.5982 H              1 <1>                0.0000
     25 H25         30.0606  35.6396  40.6664 H              1 <1>                0.0000
     26 H26         30.3266  36.9534  39.4952 H              1 <1>                0.0000
     27 H27         28.0895  36.9275  37.7543 H              1 <1>                0.0000
     28 H28         25.7198  37.5685  37.9286 H              1 <1>                0.0000
     29 H29         24.5720  37.4662  40.1039 H              1 <1>                0.0000
     30 H30         28.1748  36.0706  41.9307 H              1 <1>                0.0000
     31 H31         29.8969  35.5521  37.7560 H              1 <1>                0.0000
     32 H32         29.1197  34.4279  38.6764 H              1 <1>                0.0000
     33 H33         25.9829  35.9951  42.9330 H              1 <1>                0.0000
@<TRIPOS>BOND
    1    1    2 1     
    2    1   15 1     
    3    1   16 1     
    4    1   17 1     
    5    2    3 1     
    6    2    4 1     
    7    3   18 1     
    8    3   19 1     
    9    3   20 1     
   10    4    5 1     
   11    4   21 1     
   12    4   22 1     
   13    5    6 1     
   14    5   23 1     
   15    5   24 1     
   16    6    7 1     
   17    6   31 1     
   18    6   32 1     
   19    7    8 1     
   20    7   25 1     
   21    7   26 1     
   22    8    9 ar    
   23    8   14 ar    
   24    9   10 ar    
   25    9   27 1     
   26   10   11 ar    
   27   10   28 1     
   28   11   12 ar    
   29   11   29 1     
   30   12   13 1     
   31   12   14 ar    
   32   13   33 1     
   33   14   30 1     
@<TRIPOS>SUBSTRUCTURE
      1 ****           1
@<TRIPOS>SET
DONOR_HYDROGENS      STATIC     ATOMS    <user>   **** ""
3 31 32 33
ATOM$RED        STATIC     ATOMS    COLORGROUP SYSTEM
3 31 32 33
@<TRIPOS>COMMENT
> <Gold.Version>
2022.2.0

> <Gold.Id.Protein>
1qkm|1qkm_protein|mol2

> <Gold.Protein.RotatedTorsions>
[  496  491  490  487 ] final  -46.21 input  -89.99 | X-H torsion

> <Gold.Protein.ActiveResidues>
 MET295  LEU298  THR299  LEU301  ALA302  GLU305  TRP335  MET336  LEU339  MET340 
 GLY342  LEU343  ARG346  PHE356  ILE373  ILE376  PHE377  LEU380  LYS471  GLY472 
 MET473  HIS475  LEU476  LEU477  ASN478  MET479  VAL484  VAL487 

> <Gold.Protein.RotatedAtoms>
   36.3999   34.6866   41.6843 H   0  0  0  0  0  0  0  0  0  0  0  0  # atno 496  bound_to 491 

> <Gold.Score>
     Score     S(PLP)   S(hbond)     S(cho)   S(metal)  DE(clash)   DE(tors)     intcor
     55.07     -52.81       1.15       0.00       0.00       0.00       0.60       0.02

> <Gold.PLP.Fitness>
55.0722

> <Gold.PLP.PLP>
-52.8134

> <Gold.PLP.part.hbond>
-2.0000

> <Gold.PLP.part.metal>
0.0000

> <Gold.PLP.part.buried>
-5.3139

> <Gold.PLP.part.nonpolar>
-46.6547

> <Gold.PLP.part.repulsive>
0.0000

> <Gold.PLP.ligand.clash>
0.0000

> <Gold.PLP.ligand.torsion>
0.5975

> <Gold.PLP.Chemscore.Hbond>
1.1456

> <Gold.PLP.Chemscore.CHOScore>
0.0000

> <Gold.PLP.Chemscore.Metal>
0.0000

> <Gold.Chemscore.Hbonds>
donor molecule, donor type, donor heavy atom, donor atom, acceptor molecule, acceptor atom, score
      L1  H    13    33       P1   582  1.00
      P1  H  1258  1270       L1    13  0.15

> <Gold.PLP.Chemscore.Internal.Correction>
0.0170

