#       Name:                EN300-7455669_i001
#       Creating user name   aseyller
#       Creation time:       Fri Apr 21 16:43:09 2023


#       File generated by GOLD software.
#

@<TRIPOS>MOLECULE
EN300-7455669_i001|aminophenols|mol2|102|dock17
    24    24     1
SMALL
USER_CHARGES


@<TRIPOS>ATOM
      1 N1          25.4992  37.0230  43.2585 N.4            1 <1>                1.0000
      2 C2          26.2846  37.4796  42.1041 C.3            1 <1>                0.0000
      3 C3          25.8599  36.7002  40.8579 C.3            1 <1>                0.0000
      4 C4          26.9721  36.7329  39.8417 C.ar           1 <1>                0.0000
      5 C5          26.7392  37.2498  38.5807 C.ar           1 <1>                0.0000
      6 C6          27.7558  37.2821  37.6440 C.ar           1 <1>                0.0000
      7 C7          29.0119  36.7963  37.9675 C.ar           1 <1>                0.0000
      8 O8          30.0129  36.8279  37.0472 O.3            1 <1>                0.0000
      9 C9          29.2477  36.2757  39.2380 C.ar           1 <1>                0.0000
     10 N10         30.5150  35.7834  39.5706 N.pl3          1 <1>                0.0000
     11 C11         28.2243  36.2513  40.1743 C.ar           1 <1>                0.0000
     12 H12         26.1104  38.5436  41.9441 H              1 <1>                0.0000
     13 H13         27.3442  37.3096  42.2954 H              1 <1>                0.0000
     14 H14         25.6472  35.6666  41.1307 H              1 <1>                0.0000
     15 H15         24.9654  37.1550  40.4322 H              1 <1>                0.0000
     16 H16         25.7605  37.6291  38.3266 H              1 <1>                0.0000
     17 H17         27.5703  37.6860  36.6596 H              1 <1>                0.0000
     18 H18         28.4037  35.8483  41.1602 H              1 <1>                0.0000
     19 H19         25.7088  36.0540  43.4459 H              1 <1>                0.0000
     20 H20         25.7337  37.5801  44.0663 H              1 <1>                0.0000
     21 H21         24.5155  37.1213  43.0562 H              1 <1>                0.0000
     22 H22         30.4668  35.9820  36.9307 H              1 <1>                0.0000
     23 H23         31.2305  35.8044  38.9160 H              1 <1>                0.0000
     24 H24         30.6777  35.4211  40.4555 H              1 <1>                0.0000
@<TRIPOS>BOND
    1    1    2 1     
    2    1   19 1     
    3    1   20 1     
    4    1   21 1     
    5    2    3 1     
    6    2   12 1     
    7    2   13 1     
    8    3    4 1     
    9    3   14 1     
   10    3   15 1     
   11    4    5 ar    
   12    4   11 ar    
   13    5    6 ar    
   14    5   16 1     
   15    6    7 ar    
   16    6   17 1     
   17    7    8 1     
   18    7    9 ar    
   19    8   22 1     
   20    9   10 1     
   21    9   11 ar    
   22   10   23 1     
   23   10   24 1     
   24   11   18 1     
@<TRIPOS>SUBSTRUCTURE
      1 ****           1
@<TRIPOS>SET
DONOR_HYDROGENS      STATIC     ATOMS    <user>   **** ""
6 19 20 21 22 23 24
ATOM$RED        STATIC     ATOMS    COLORGROUP SYSTEM
6 19 20 21 22 23 24
@<TRIPOS>COMMENT
> <Gold.Version>
2022.2.0

> <Gold.Id.Protein>
1qkm|1qkm_protein|mol2

> <Gold.Protein.RotatedTorsions>
[  496  491  490  487 ] final   72.02 input  -89.99 | X-H torsion

> <Gold.Protein.ActiveResidues>
 MET295  LEU298  THR299  LEU301  ALA302  GLU305  TRP335  MET336  LEU339  MET340 
 GLY342  LEU343  ARG346  PHE356  ILE373  ILE376  PHE377  LEU380  LYS471  GLY472 
 MET473  HIS475  LEU476  LEU477  ASN478  MET479  VAL484  VAL487 

> <Gold.Protein.RotatedAtoms>
   36.6554   33.1779   42.2124 H   0  0  0  0  0  0  0  0  0  0  0  0  # atno 496  bound_to 491 

> <Gold.Score>
     Score     S(PLP)   S(hbond)     S(cho)   S(metal)  DE(clash)   DE(tors)     intcor
     41.95     -30.19       4.00       0.00       0.00       0.00       0.12       0.00

> <Gold.PLP.Fitness>
41.9477

> <Gold.PLP.PLP>
-30.1912

> <Gold.PLP.part.hbond>
-3.0178

> <Gold.PLP.part.metal>
0.0000

> <Gold.PLP.part.buried>
-3.3433

> <Gold.PLP.part.nonpolar>
-30.5545

> <Gold.PLP.part.repulsive>
5.4945

> <Gold.PLP.ligand.clash>
0.0000

> <Gold.PLP.ligand.torsion>
0.1218

> <Gold.PLP.Chemscore.Hbond>
4.0000

> <Gold.PLP.Chemscore.CHOScore>
0.0000

> <Gold.PLP.Chemscore.Metal>
0.0000

> <Gold.Chemscore.Hbonds>
donor molecule, donor type, donor heavy atom, donor atom, acceptor molecule, acceptor atom, score
      L1  H     1    19       P1   582  2.00
      L1  H     1    20       P1  1408  1.00
      L1  H    10    24       P1   470  1.00

> <Gold.PLP.Chemscore.Internal.Correction>
0.0002

