#       Name:                EN300-7455669_i001
#       Creating user name   aseyller
#       Creation time:       Fri Apr 21 16:42:58 2023


#       File generated by GOLD software.
#

@<TRIPOS>MOLECULE
EN300-7455669_i001|aminophenols|mol2|102|dock5
    24    24     1
SMALL
USER_CHARGES


@<TRIPOS>ATOM
      1 N1          24.9687  36.1313  41.5376 N.4            1 <1>                1.0000
      2 C2          26.2905  36.3252  40.9265 C.3            1 <1>                0.0000
      3 C3          26.1249  36.6085  39.4321 C.3            1 <1>                0.0000
      4 C4          27.4808  36.8078  38.8054 C.ar           1 <1>                0.0000
      5 C5          27.6028  37.5562  37.6493 C.ar           1 <1>                0.0000
      6 C6          28.8443  37.7423  37.0695 C.ar           1 <1>                0.0000
      7 C7          29.9702  37.1789  37.6468 C.ar           1 <1>                0.0000
      8 O8          31.1920  37.3614  37.0778 O.3            1 <1>                0.0000
      9 C9          29.8483  36.4251  38.8120 C.ar           1 <1>                0.0000
     10 N10         30.9825  35.8533  39.3999 N.pl3          1 <1>                0.0000
     11 C11         28.6002  36.2469  39.3910 C.ar           1 <1>                0.0000
     12 H12         26.7909  37.1682  41.4029 H              1 <1>                0.0000
     13 H13         26.8888  35.4241  41.0614 H              1 <1>                0.0000
     14 H14         25.6249  35.7653  38.9557 H              1 <1>                0.0000
     15 H15         25.5263  37.5093  39.2972 H              1 <1>                0.0000
     16 H16         26.7261  37.9963  37.1976 H              1 <1>                0.0000
     17 H17         28.9361  38.3268  36.1660 H              1 <1>                0.0000
     18 H18         28.5021  35.6631  40.2942 H              1 <1>                0.0000
     19 H19         24.3049  35.8650  40.8259 H              1 <1>                0.0000
     20 H20         25.0240  35.4042  42.2349 H              1 <1>                0.0000
     21 H21         24.6695  36.9916  41.9717 H              1 <1>                0.0000
     22 H22         31.1700  37.8630  36.2513 H              1 <1>                0.0000
     23 H23         31.8550  35.9817  38.9959 H              1 <1>                0.0000
     24 H24         30.8961  35.3287  40.2111 H              1 <1>                0.0000
@<TRIPOS>BOND
    1    1    2 1     
    2    1   19 1     
    3    1   20 1     
    4    1   21 1     
    5    2    3 1     
    6    2   12 1     
    7    2   13 1     
    8    3    4 1     
    9    3   14 1     
   10    3   15 1     
   11    4    5 ar    
   12    4   11 ar    
   13    5    6 ar    
   14    5   16 1     
   15    6    7 ar    
   16    6   17 1     
   17    7    8 1     
   18    7    9 ar    
   19    8   22 1     
   20    9   10 1     
   21    9   11 ar    
   22   10   23 1     
   23   10   24 1     
   24   11   18 1     
@<TRIPOS>SUBSTRUCTURE
      1 ****           1
@<TRIPOS>SET
DONOR_HYDROGENS      STATIC     ATOMS    <user>   **** ""
6 19 20 21 22 23 24
ATOM$RED        STATIC     ATOMS    COLORGROUP SYSTEM
6 19 20 21 22 23 24
@<TRIPOS>COMMENT
> <Gold.Version>
2022.2.0

> <Gold.Id.Protein>
1qkm|1qkm_protein|mol2

> <Gold.Protein.RotatedTorsions>
[  496  491  490  487 ] final -170.78 input  -89.99 | X-H torsion

> <Gold.Protein.ActiveResidues>
 MET295  LEU298  THR299  LEU301  ALA302  GLU305  TRP335  MET336  LEU339  MET340 
 GLY342  LEU343  ARG346  PHE356  ILE373  ILE376  PHE377  LEU380  LYS471  GLY472 
 MET473  HIS475  LEU476  LEU477  ASN478  MET479  VAL484  VAL487 

> <Gold.Protein.RotatedAtoms>
   37.3060   33.5972   40.8006 H   0  0  0  0  0  0  0  0  0  0  0  0  # atno 496  bound_to 491 

> <Gold.Score>
     Score     S(PLP)   S(hbond)     S(cho)   S(metal)  DE(clash)   DE(tors)     intcor
     44.72     -34.57       3.62       0.00       0.00       0.00       0.35       0.00

> <Gold.PLP.Fitness>
44.7234

> <Gold.PLP.PLP>
-34.5664

> <Gold.PLP.part.hbond>
-3.0000

> <Gold.PLP.part.metal>
0.0000

> <Gold.PLP.part.buried>
-1.4333

> <Gold.PLP.part.nonpolar>
-30.6867

> <Gold.PLP.part.repulsive>
0.3651

> <Gold.PLP.ligand.clash>
0.0000

> <Gold.PLP.ligand.torsion>
0.3485

> <Gold.PLP.Chemscore.Hbond>
3.6180

> <Gold.PLP.Chemscore.CHOScore>
0.0000

> <Gold.PLP.Chemscore.Metal>
0.0000

> <Gold.Chemscore.Hbonds>
donor molecule, donor type, donor heavy atom, donor atom, acceptor molecule, acceptor atom, score
      L1  H     1    19       P1  1131  0.96
      L1  H     1    20       P1   582  1.98
      L1  H    10    24       P1   470  0.68

> <Gold.PLP.Chemscore.Internal.Correction>
0.0002

