#       Name:                EN300-7455669_i001
#       Creating user name   aseyller
#       Creation time:       Fri Apr 21 16:43:08 2023


#       File generated by GOLD software.
#

@<TRIPOS>MOLECULE
EN300-7455669_i001|aminophenols|mol2|102|dock16
    24    24     1
SMALL
USER_CHARGES


@<TRIPOS>ATOM
      1 N1          27.4498  36.2480  42.0011 N.4            1 <1>                1.0000
      2 C2          28.6909  35.9715  41.2655 C.3            1 <1>                0.0000
      3 C3          28.4357  36.1121  39.7635 C.3            1 <1>                0.0000
      4 C4          29.7369  35.9676  39.0172 C.ar           1 <1>                0.0000
      5 C5          30.4517  34.7870  39.0996 C.ar           1 <1>                0.0000
      6 C6          31.6465  34.6487  38.4174 C.ar           1 <1>                0.0000
      7 C7          32.1304  35.6941  37.6483 C.ar           1 <1>                0.0000
      8 O8          33.3052  35.5593  36.9764 O.3            1 <1>                0.0000
      9 C9          31.4105  36.8839  37.5643 C.ar           1 <1>                0.0000
     10 N10         31.8946  37.9436  36.7887 N.pl3          1 <1>                0.0000
     11 C11         30.2100  37.0136  38.2474 C.ar           1 <1>                0.0000
     12 H12         29.4602  36.6807  41.5713 H              1 <1>                0.0000
     13 H13         29.0244  34.9570  41.4840 H              1 <1>                0.0000
     14 H14         27.7424  35.3364  39.4386 H              1 <1>                0.0000
     15 H15         28.0061  37.0926  39.5582 H              1 <1>                0.0000
     16 H16         30.0760  33.9707  39.6988 H              1 <1>                0.0000
     17 H17         32.2027  33.7254  38.4845 H              1 <1>                0.0000
     18 H18         29.6495  37.9346  38.1845 H              1 <1>                0.0000
     19 H19         27.2713  35.4990  42.6532 H              1 <1>                0.0000
     20 H20         27.5439  37.1172  42.5048 H              1 <1>                0.0000
     21 H21         26.6816  36.3178  41.3505 H              1 <1>                0.0000
     22 H22         33.2192  35.1235  36.1175 H              1 <1>                0.0000
     23 H23         32.7323  37.8502  36.3088 H              1 <1>                0.0000
     24 H24         31.3924  38.7715  36.7312 H              1 <1>                0.0000
@<TRIPOS>BOND
    1    1    2 1     
    2    1   19 1     
    3    1   20 1     
    4    1   21 1     
    5    2    3 1     
    6    2   12 1     
    7    2   13 1     
    8    3    4 1     
    9    3   14 1     
   10    3   15 1     
   11    4    5 ar    
   12    4   11 ar    
   13    5    6 ar    
   14    5   16 1     
   15    6    7 ar    
   16    6   17 1     
   17    7    8 1     
   18    7    9 ar    
   19    8   22 1     
   20    9   10 1     
   21    9   11 ar    
   22   10   23 1     
   23   10   24 1     
   24   11   18 1     
@<TRIPOS>SUBSTRUCTURE
      1 ****           1
@<TRIPOS>SET
DONOR_HYDROGENS      STATIC     ATOMS    <user>   **** ""
6 19 20 21 22 23 24
ATOM$RED        STATIC     ATOMS    COLORGROUP SYSTEM
6 19 20 21 22 23 24
@<TRIPOS>COMMENT
> <Gold.Version>
2022.2.0

> <Gold.Id.Protein>
1qkm|1qkm_protein|mol2

> <Gold.Protein.RotatedTorsions>
[  496  491  490  487 ] final  163.83 input  -89.99 | X-H torsion

> <Gold.Protein.ActiveResidues>
 MET295  LEU298  THR299  LEU301  ALA302  GLU305  TRP335  MET336  LEU339  MET340 
 GLY342  LEU343  ARG346  PHE356  ILE373  ILE376  PHE377  LEU380  LYS471  GLY472 
 MET473  HIS475  LEU476  LEU477  ASN478  MET479  VAL484  VAL487 

> <Gold.Protein.RotatedAtoms>
   37.3057   33.2494   41.0260 H   0  0  0  0  0  0  0  0  0  0  0  0  # atno 496  bound_to 491 

> <Gold.Score>
     Score     S(PLP)   S(hbond)     S(cho)   S(metal)  DE(clash)   DE(tors)     intcor
     40.83     -34.85       2.00       0.00       0.00       0.00       0.01       0.00

> <Gold.PLP.Fitness>
40.8252

> <Gold.PLP.PLP>
-34.8461

> <Gold.PLP.part.hbond>
-1.0000

> <Gold.PLP.part.metal>
0.0000

> <Gold.PLP.part.buried>
-3.5117

> <Gold.PLP.part.nonpolar>
-31.1233

> <Gold.PLP.part.repulsive>
0.0472

> <Gold.PLP.ligand.clash>
0.0000

> <Gold.PLP.ligand.torsion>
0.0105

> <Gold.PLP.Chemscore.Hbond>
2.0000

> <Gold.PLP.Chemscore.CHOScore>
0.0000

> <Gold.PLP.Chemscore.Metal>
0.0000

> <Gold.Chemscore.Hbonds>
donor molecule, donor type, donor heavy atom, donor atom, acceptor molecule, acceptor atom, score
      L1  H     1    19       P1   582  2.00

> <Gold.PLP.Chemscore.Internal.Correction>
0.0002

