#       Name:                EN300-7455669_i001
#       Creating user name   aseyller
#       Creation time:       Fri Apr 21 16:43:12 2023


#       File generated by GOLD software.
#

@<TRIPOS>MOLECULE
EN300-7455669_i001|aminophenols|mol2|102|dock20
    24    24     1
SMALL
USER_CHARGES


@<TRIPOS>ATOM
      1 N1          33.3000  36.7874  34.0116 N.4            1 <1>                1.0000
      2 C2          32.6002  37.6374  34.9840 C.3            1 <1>                0.0000
      3 C3          31.1392  37.1957  35.0893 C.3            1 <1>                0.0000
      4 C4          30.8013  36.9170  36.5312 C.ar           1 <1>                0.0000
      5 C5          29.8423  37.6775  37.1742 C.ar           1 <1>                0.0000
      6 C6          29.5283  37.4267  38.4973 C.ar           1 <1>                0.0000
      7 C7          30.1747  36.4112  39.1824 C.ar           1 <1>                0.0000
      8 O8          29.8666  36.1633  40.4837 O.3            1 <1>                0.0000
      9 C9          31.1409  35.6441  38.5352 C.ar           1 <1>                0.0000
     10 N10         31.7973  34.6166  39.2225 N.pl3          1 <1>                0.0000
     11 C11         31.4469  35.8981  37.2061 C.ar           1 <1>                0.0000
     12 H12         33.0791  37.5444  35.9588 H              1 <1>                0.0000
     13 H13         32.6431  38.6760  34.6558 H              1 <1>                0.0000
     14 H14         30.4922  37.9869  34.7109 H              1 <1>                0.0000
     15 H15         30.9898  36.2911  34.4998 H              1 <1>                0.0000
     16 H16         29.3372  38.4698  36.6416 H              1 <1>                0.0000
     17 H17         28.7792  38.0231  38.9968 H              1 <1>                0.0000
     18 H18         32.1955  35.3053  36.7014 H              1 <1>                0.0000
     19 H19         33.7388  36.0168  34.4929 H              1 <1>                0.0000
     20 H20         32.6380  36.4307  33.3389 H              1 <1>                0.0000
     21 H21         34.0040  37.3309  33.5350 H              1 <1>                0.0000
     22 H22         30.6242  35.9003  41.0240 H              1 <1>                0.0000
     23 H23         31.5797  34.4379  40.1507 H              1 <1>                0.0000
     24 H24         32.4698  34.0834  38.7707 H              1 <1>                0.0000
@<TRIPOS>BOND
    1    1    2 1     
    2    1   19 1     
    3    1   20 1     
    4    1   21 1     
    5    2    3 1     
    6    2   12 1     
    7    2   13 1     
    8    3    4 1     
    9    3   14 1     
   10    3   15 1     
   11    4    5 ar    
   12    4   11 ar    
   13    5    6 ar    
   14    5   16 1     
   15    6    7 ar    
   16    6   17 1     
   17    7    8 1     
   18    7    9 ar    
   19    8   22 1     
   20    9   10 1     
   21    9   11 ar    
   22   10   23 1     
   23   10   24 1     
   24   11   18 1     
@<TRIPOS>SUBSTRUCTURE
      1 ****           1
@<TRIPOS>SET
DONOR_HYDROGENS      STATIC     ATOMS    <user>   **** ""
6 19 20 21 22 23 24
ATOM$RED        STATIC     ATOMS    COLORGROUP SYSTEM
6 19 20 21 22 23 24
@<TRIPOS>COMMENT
> <Gold.Version>
2022.2.0

> <Gold.Id.Protein>
1qkm|1qkm_protein|mol2

> <Gold.Protein.RotatedTorsions>
[  496  491  490  487 ] final  112.89 input  -89.99 | X-H torsion

> <Gold.Protein.ActiveResidues>
 MET295  LEU298  THR299  LEU301  ALA302  GLU305  TRP335  MET336  LEU339  MET340 
 GLY342  LEU343  ARG346  PHE356  ILE373  ILE376  PHE377  LEU380  LYS471  GLY472 
 MET473  HIS475  LEU476  LEU477  ASN478  MET479  VAL484  VAL487 

> <Gold.Protein.RotatedAtoms>
   37.0235   32.9399   41.7209 H   0  0  0  0  0  0  0  0  0  0  0  0  # atno 496  bound_to 491 

> <Gold.Score>
     Score     S(PLP)   S(hbond)     S(cho)   S(metal)  DE(clash)   DE(tors)     intcor
     43.24     -32.38       3.87       0.00       0.00       0.00       0.38       0.00

> <Gold.PLP.Fitness>
43.2443

> <Gold.PLP.PLP>
-32.3803

> <Gold.PLP.part.hbond>
-4.0000

> <Gold.PLP.part.metal>
0.0000

> <Gold.PLP.part.buried>
-3.2377

> <Gold.PLP.part.nonpolar>
-26.3640

> <Gold.PLP.part.repulsive>
0.2009

> <Gold.PLP.ligand.clash>
0.0000

> <Gold.PLP.ligand.torsion>
0.3765

> <Gold.PLP.Chemscore.Hbond>
3.8723

> <Gold.PLP.Chemscore.CHOScore>
0.0000

> <Gold.PLP.Chemscore.Metal>
0.0000

> <Gold.Chemscore.Hbonds>
donor molecule, donor type, donor heavy atom, donor atom, acceptor molecule, acceptor atom, score
      L1  H     1    20       P1  3187  1.00
      L1  H     1    21       P1  3229  1.00
      L1  H     8    22       P1   470  1.00
      L1  H    10    23       P1   470  0.87

> <Gold.PLP.Chemscore.Internal.Correction>
0.0002

