#       Name:                EN300-7455669_i001
#       Creating user name   aseyller
#       Creation time:       Fri Apr 21 16:42:59 2023


#       File generated by GOLD software.
#

@<TRIPOS>MOLECULE
EN300-7455669_i001|aminophenols|mol2|102|dock6
    24    24     1
SMALL
USER_CHARGES


@<TRIPOS>ATOM
      1 N1          32.2832  37.4289  36.8704 N.4            1 <1>                1.0000
      2 C2          31.3150  37.0191  37.8964 C.3            1 <1>                0.0000
      3 C3          29.9536  37.6480  37.5932 C.3            1 <1>                0.0000
      4 C4          28.9435  37.1709  38.6046 C.ar           1 <1>                0.0000
      5 C5          27.5922  37.2741  38.3312 C.ar           1 <1>                0.0000
      6 C6          26.6606  36.8384  39.2555 C.ar           1 <1>                0.0000
      7 C7          27.0798  36.2962  40.4591 C.ar           1 <1>                0.0000
      8 O8          26.1646  35.8668  41.3690 O.3            1 <1>                0.0000
      9 C9          28.4413  36.1914  40.7353 C.ar           1 <1>                0.0000
     10 N10         28.8708  35.6444  41.9499 N.pl3          1 <1>                0.0000
     11 C11         29.3702  36.6259  39.8010 C.ar           1 <1>                0.0000
     12 H12         31.2220  35.9330  37.8950 H              1 <1>                0.0000
     13 H13         31.6597  37.3529  38.8752 H              1 <1>                0.0000
     14 H14         30.0352  38.7336  37.6455 H              1 <1>                0.0000
     15 H15         29.6328  37.3554  36.5935 H              1 <1>                0.0000
     16 H16         27.2633  37.6966  37.3932 H              1 <1>                0.0000
     17 H17         25.6057  36.9211  39.0390 H              1 <1>                0.0000
     18 H18         30.4264  36.5461  40.0120 H              1 <1>                0.0000
     19 H19         31.8209  37.4860  35.9754 H              1 <1>                0.0000
     20 H20         32.6653  38.3314  37.1100 H              1 <1>                0.0000
     21 H21         33.0286  36.7504  36.8213 H              1 <1>                0.0000
     22 H22         26.5535  35.4982  42.1740 H              1 <1>                0.0000
     23 H23         28.2202  35.3377  42.6007 H              1 <1>                0.0000
     24 H24         29.8190  35.5720  42.1410 H              1 <1>                0.0000
@<TRIPOS>BOND
    1    1    2 1     
    2    1   19 1     
    3    1   20 1     
    4    1   21 1     
    5    2    3 1     
    6    2   12 1     
    7    2   13 1     
    8    3    4 1     
    9    3   14 1     
   10    3   15 1     
   11    4    5 ar    
   12    4   11 ar    
   13    5    6 ar    
   14    5   16 1     
   15    6    7 ar    
   16    6   17 1     
   17    7    8 1     
   18    7    9 ar    
   19    8   22 1     
   20    9   10 1     
   21    9   11 ar    
   22   10   23 1     
   23   10   24 1     
   24   11   18 1     
@<TRIPOS>SUBSTRUCTURE
      1 ****           1
@<TRIPOS>SET
DONOR_HYDROGENS      STATIC     ATOMS    <user>   **** ""
6 19 20 21 22 23 24
ATOM$RED        STATIC     ATOMS    COLORGROUP SYSTEM
6 19 20 21 22 23 24
@<TRIPOS>COMMENT
> <Gold.Version>
2022.2.0

> <Gold.Id.Protein>
1qkm|1qkm_protein|mol2

> <Gold.Protein.RotatedTorsions>
[  496  491  490  487 ] final  152.44 input  -89.99 | X-H torsion

> <Gold.Protein.ActiveResidues>
 MET295  LEU298  THR299  LEU301  ALA302  GLU305  TRP335  MET336  LEU339  MET340 
 GLY342  LEU343  ARG346  PHE356  ILE373  ILE376  PHE377  LEU380  LYS471  GLY472 
 MET473  HIS475  LEU476  LEU477  ASN478  MET479  VAL484  VAL487 

> <Gold.Protein.RotatedAtoms>
   37.2724   33.1270   41.1636 H   0  0  0  0  0  0  0  0  0  0  0  0  # atno 496  bound_to 491 

> <Gold.Score>
     Score     S(PLP)   S(hbond)     S(cho)   S(metal)  DE(clash)   DE(tors)     intcor
     40.58     -35.63       1.82       0.00       0.00       0.00       0.26       0.00

> <Gold.PLP.Fitness>
40.5802

> <Gold.PLP.PLP>
-35.6337

> <Gold.PLP.part.hbond>
-2.0000

> <Gold.PLP.part.metal>
0.0000

> <Gold.PLP.part.buried>
-4.4569

> <Gold.PLP.part.nonpolar>
-29.8479

> <Gold.PLP.part.repulsive>
0.0964

> <Gold.PLP.ligand.clash>
0.0000

> <Gold.PLP.ligand.torsion>
0.2617

> <Gold.PLP.Chemscore.Hbond>
1.8233

> <Gold.PLP.Chemscore.CHOScore>
0.0000

> <Gold.PLP.Chemscore.Metal>
0.0000

> <Gold.Chemscore.Hbonds>
donor molecule, donor type, donor heavy atom, donor atom, acceptor molecule, acceptor atom, score
      L1  H     8    22       P1   582  0.83
      L1  H    10    24       P1   470  0.99

> <Gold.PLP.Chemscore.Internal.Correction>
0.0002

