#       Name:                EN300-7455669_i001
#       Creating user name   aseyller
#       Creation time:       Fri Apr 21 16:43:11 2023


#       File generated by GOLD software.
#

@<TRIPOS>MOLECULE
EN300-7455669_i001|aminophenols|mol2|102|dock19
    24    24     1
SMALL
USER_CHARGES


@<TRIPOS>ATOM
      1 N1          31.3891  37.2742  36.3961 N.4            1 <1>                1.0000
      2 C2          30.2071  37.3881  37.2610 C.3            1 <1>                0.0000
      3 C3          29.9353  36.0410  37.9334 C.3            1 <1>                0.0000
      4 C4          28.6759  36.1349  38.7555 C.ar           1 <1>                0.0000
      5 C5          27.5297  36.6746  38.2020 C.ar           1 <1>                0.0000
      6 C6          26.3711  36.7638  38.9516 C.ar           1 <1>                0.0000
      7 C7          26.3562  36.3115  40.2606 C.ar           1 <1>                0.0000
      8 O8          25.2173  36.3983  40.9990 O.3            1 <1>                0.0000
      9 C9          27.5106  35.7672  40.8191 C.ar           1 <1>                0.0000
     10 N10         27.5015  35.3086  42.1414 N.pl3          1 <1>                0.0000
     11 C11         28.6678  35.6762  40.0594 C.ar           1 <1>                0.0000
     12 H12         30.3870  38.1454  38.0241 H              1 <1>                0.0000
     13 H13         29.3438  37.6753  36.6605 H              1 <1>                0.0000
     14 H14         29.8147  35.2719  37.1705 H              1 <1>                0.0000
     15 H15         30.7733  35.7824  38.5807 H              1 <1>                0.0000
     16 H16         27.5393  37.0278  37.1814 H              1 <1>                0.0000
     17 H17         25.4777  37.1865  38.5163 H              1 <1>                0.0000
     18 H18         29.5645  35.2547  40.4892 H              1 <1>                0.0000
     19 H19         31.8174  38.1817  36.2906 H              1 <1>                0.0000
     20 H20         32.0505  36.6365  36.8129 H              1 <1>                0.0000
     21 H21         31.1110  36.9262  35.4907 H              1 <1>                0.0000
     22 H22         24.4102  36.2101  40.5006 H              1 <1>                0.0000
     23 H23         26.6906  35.3695  42.6703 H              1 <1>                0.0000
     24 H24         28.3060  34.9298  42.5290 H              1 <1>                0.0000
@<TRIPOS>BOND
    1    1    2 1     
    2    1   19 1     
    3    1   20 1     
    4    1   21 1     
    5    2    3 1     
    6    2   12 1     
    7    2   13 1     
    8    3    4 1     
    9    3   14 1     
   10    3   15 1     
   11    4    5 ar    
   12    4   11 ar    
   13    5    6 ar    
   14    5   16 1     
   15    6    7 ar    
   16    6   17 1     
   17    7    8 1     
   18    7    9 ar    
   19    8   22 1     
   20    9   10 1     
   21    9   11 ar    
   22   10   23 1     
   23   10   24 1     
   24   11   18 1     
@<TRIPOS>SUBSTRUCTURE
      1 ****           1
@<TRIPOS>SET
DONOR_HYDROGENS      STATIC     ATOMS    <user>   **** ""
6 19 20 21 22 23 24
ATOM$RED        STATIC     ATOMS    COLORGROUP SYSTEM
6 19 20 21 22 23 24
@<TRIPOS>COMMENT
> <Gold.Version>
2022.2.0

> <Gold.Id.Protein>
1qkm|1qkm_protein|mol2

> <Gold.Protein.RotatedTorsions>
[  496  491  490  487 ] final -115.63 input  -89.99 | X-H torsion

> <Gold.Protein.ActiveResidues>
 MET295  LEU298  THR299  LEU301  ALA302  GLU305  TRP335  MET336  LEU339  MET340 
 GLY342  LEU343  ARG346  PHE356  ILE373  ILE376  PHE377  LEU380  LYS471  GLY472 
 MET473  HIS475  LEU476  LEU477  ASN478  MET479  VAL484  VAL487 

> <Gold.Protein.RotatedAtoms>
   36.9893   34.4104   40.8297 H   0  0  0  0  0  0  0  0  0  0  0  0  # atno 496  bound_to 491 

> <Gold.Score>
     Score     S(PLP)   S(hbond)     S(cho)   S(metal)  DE(clash)   DE(tors)     intcor
     39.18     -34.39       1.67       0.00       0.00       0.00       0.12       0.00

> <Gold.PLP.Fitness>
39.1776

> <Gold.PLP.PLP>
-34.3930

> <Gold.PLP.part.hbond>
-1.2252

> <Gold.PLP.part.metal>
0.0000

> <Gold.PLP.part.buried>
-4.8465

> <Gold.PLP.part.nonpolar>
-29.7290

> <Gold.PLP.part.repulsive>
0.0697

> <Gold.PLP.ligand.clash>
0.0000

> <Gold.PLP.ligand.torsion>
0.1202

> <Gold.PLP.Chemscore.Hbond>
1.6750

> <Gold.PLP.Chemscore.CHOScore>
0.0000

> <Gold.PLP.Chemscore.Metal>
0.0000

> <Gold.Chemscore.Hbonds>
donor molecule, donor type, donor heavy atom, donor atom, acceptor molecule, acceptor atom, score
      L1  H     8    22       P1  1131  1.00
      L1  H    10    23       P1   582  0.67

> <Gold.PLP.Chemscore.Internal.Correction>
0.0002

