#       Name:                EN300-7455669_i001
#       Creating user name   aseyller
#       Creation time:       Fri Apr 21 16:43:10 2023


#       File generated by GOLD software.
#

@<TRIPOS>MOLECULE
EN300-7455669_i001|aminophenols|mol2|102|dock18
    24    24     1
SMALL
USER_CHARGES


@<TRIPOS>ATOM
      1 N1          26.6604  36.5304  42.0991 N.4            1 <1>                1.0000
      2 C2          27.9479  36.2711  41.4409 C.3            1 <1>                0.0000
      3 C3          27.7229  36.0725  39.9406 C.3            1 <1>                0.0000
      4 C4          29.0277  36.2532  39.2087 C.ar           1 <1>                0.0000
      5 C5          30.0556  35.3481  39.3979 C.ar           1 <1>                0.0000
      6 C6          31.2553  35.5089  38.7294 C.ar           1 <1>                0.0000
      7 C7          31.4301  36.5785  37.8671 C.ar           1 <1>                0.0000
      8 O8          32.6095  36.7377  37.2086 O.3            1 <1>                0.0000
      9 C9          30.3948  37.4908  37.6754 C.ar           1 <1>                0.0000
     10 N10         30.5657  38.5736  36.8052 N.pl3          1 <1>                0.0000
     11 C11         29.1921  37.3202  38.3456 C.ar           1 <1>                0.0000
     12 H12         28.6142  37.1191  41.5993 H              1 <1>                0.0000
     13 H13         28.3972  35.3722  41.8630 H              1 <1>                0.0000
     14 H14         27.3413  35.0677  39.7603 H              1 <1>                0.0000
     15 H15         27.0004  36.8054  39.5815 H              1 <1>                0.0000
     16 H16         29.9212  34.5134  40.0699 H              1 <1>                0.0000
     17 H17         32.0564  34.8004  38.8800 H              1 <1>                0.0000
     18 H18         28.3875  38.0256  38.1993 H              1 <1>                0.0000
     19 H19         26.3085  35.6735  42.4989 H              1 <1>                0.0000
     20 H20         26.7879  37.2149  42.8293 H              1 <1>                0.0000
     21 H21         26.0006  36.8810  41.4209 H              1 <1>                0.0000
     22 H22         33.3015  37.1579  37.7373 H              1 <1>                0.0000
     23 H23         31.4059  38.6896  36.3346 H              1 <1>                0.0000
     24 H24         29.8441  39.2081  36.6728 H              1 <1>                0.0000
@<TRIPOS>BOND
    1    1    2 1     
    2    1   19 1     
    3    1   20 1     
    4    1   21 1     
    5    2    3 1     
    6    2   12 1     
    7    2   13 1     
    8    3    4 1     
    9    3   14 1     
   10    3   15 1     
   11    4    5 ar    
   12    4   11 ar    
   13    5    6 ar    
   14    5   16 1     
   15    6    7 ar    
   16    6   17 1     
   17    7    8 1     
   18    7    9 ar    
   19    8   22 1     
   20    9   10 1     
   21    9   11 ar    
   22   10   23 1     
   23   10   24 1     
   24   11   18 1     
@<TRIPOS>SUBSTRUCTURE
      1 ****           1
@<TRIPOS>SET
DONOR_HYDROGENS      STATIC     ATOMS    <user>   **** ""
6 19 20 21 22 23 24
ATOM$RED        STATIC     ATOMS    COLORGROUP SYSTEM
6 19 20 21 22 23 24
@<TRIPOS>COMMENT
> <Gold.Version>
2022.2.0

> <Gold.Id.Protein>
1qkm|1qkm_protein|mol2

> <Gold.Protein.RotatedTorsions>
[  496  491  490  487 ] final  -82.21 input  -89.99 | X-H torsion

> <Gold.Protein.ActiveResidues>
 MET295  LEU298  THR299  LEU301  ALA302  GLU305  TRP335  MET336  LEU339  MET340 
 GLY342  LEU343  ARG346  PHE356  ILE373  ILE376  PHE377  LEU380  LYS471  GLY472 
 MET473  HIS475  LEU476  LEU477  ASN478  MET479  VAL484  VAL487 

> <Gold.Protein.RotatedAtoms>
   36.6859   34.6968   41.1764 H   0  0  0  0  0  0  0  0  0  0  0  0  # atno 496  bound_to 491 

> <Gold.Score>
     Score     S(PLP)   S(hbond)     S(cho)   S(metal)  DE(clash)   DE(tors)     intcor
     39.30     -33.54       2.00       0.00       0.00       0.00       0.12       0.00

> <Gold.PLP.Fitness>
39.3019

> <Gold.PLP.PLP>
-33.5424

> <Gold.PLP.part.hbond>
-1.0000

> <Gold.PLP.part.metal>
0.0000

> <Gold.PLP.part.buried>
-3.2431

> <Gold.PLP.part.nonpolar>
-29.7873

> <Gold.PLP.part.repulsive>
0.0615

> <Gold.PLP.ligand.clash>
0.0000

> <Gold.PLP.ligand.torsion>
0.1203

> <Gold.PLP.Chemscore.Hbond>
2.0000

> <Gold.PLP.Chemscore.CHOScore>
0.0000

> <Gold.PLP.Chemscore.Metal>
0.0000

> <Gold.Chemscore.Hbonds>
donor molecule, donor type, donor heavy atom, donor atom, acceptor molecule, acceptor atom, score
      L1  H     1    19       P1   582  2.00

> <Gold.PLP.Chemscore.Internal.Correction>
0.0002

