#       Name:                EN300-7455669_i001
#       Creating user name   aseyller
#       Creation time:       Fri Apr 21 16:43:03 2023


#       File generated by GOLD software.
#

@<TRIPOS>MOLECULE
EN300-7455669_i001|aminophenols|mol2|102|dock10
    24    24     1
SMALL
USER_CHARGES


@<TRIPOS>ATOM
      1 N1          29.7083  39.4363  37.2982 N.4            1 <1>                1.0000
      2 C2          29.3967  38.2299  36.5200 C.3            1 <1>                0.0000
      3 C3          29.7993  36.9891  37.3195 C.3            1 <1>                0.0000
      4 C4          28.8683  36.8236  38.4928 C.ar           1 <1>                0.0000
      5 C5          27.5035  36.9525  38.3137 C.ar           1 <1>                0.0000
      6 C6          26.6443  36.8021  39.3866 C.ar           1 <1>                0.0000
      7 C7          27.1498  36.5211  40.6452 C.ar           1 <1>                0.0000
      8 O8          26.3058  36.3725  41.7013 O.3            1 <1>                0.0000
      9 C9          28.5249  36.3906  40.8265 C.ar           1 <1>                0.0000
     10 N10         29.0415  36.1067  42.0960 N.pl3          1 <1>                0.0000
     11 C11         29.3805  36.5377  39.7444 C.ar           1 <1>                0.0000
     12 H12         28.3270  38.1975  36.3130 H              1 <1>                0.0000
     13 H13         29.9482  38.2513  35.5800 H              1 <1>                0.0000
     14 H14         29.7377  36.1089  36.6797 H              1 <1>                0.0000
     15 H15         30.8213  37.1053  37.6802 H              1 <1>                0.0000
     16 H16         27.1073  37.1716  37.3331 H              1 <1>                0.0000
     17 H17         25.5787  36.9041  39.2434 H              1 <1>                0.0000
     18 H18         30.4470  36.4372  39.8815 H              1 <1>                0.0000
     19 H19         30.4523  39.9457  36.8453 H              1 <1>                0.0000
     20 H20         28.8877  40.0203  37.3563 H              1 <1>                0.0000
     21 H21         29.9992  39.1713  38.2274 H              1 <1>                0.0000
     22 H22         26.5220  35.6250  42.2754 H              1 <1>                0.0000
     23 H23         28.4418  36.0006  42.8509 H              1 <1>                0.0000
     24 H24         29.9991  36.0162  42.2208 H              1 <1>                0.0000
@<TRIPOS>BOND
    1    1    2 1     
    2    1   19 1     
    3    1   20 1     
    4    1   21 1     
    5    2    3 1     
    6    2   12 1     
    7    2   13 1     
    8    3    4 1     
    9    3   14 1     
   10    3   15 1     
   11    4    5 ar    
   12    4   11 ar    
   13    5    6 ar    
   14    5   16 1     
   15    6    7 ar    
   16    6   17 1     
   17    7    8 1     
   18    7    9 ar    
   19    8   22 1     
   20    9   10 1     
   21    9   11 ar    
   22   10   23 1     
   23   10   24 1     
   24   11   18 1     
@<TRIPOS>SUBSTRUCTURE
      1 ****           1
@<TRIPOS>SET
DONOR_HYDROGENS      STATIC     ATOMS    <user>   **** ""
6 19 20 21 22 23 24
ATOM$RED        STATIC     ATOMS    COLORGROUP SYSTEM
6 19 20 21 22 23 24
@<TRIPOS>COMMENT
> <Gold.Version>
2022.2.0

> <Gold.Id.Protein>
1qkm|1qkm_protein|mol2

> <Gold.Protein.RotatedTorsions>
[  496  491  490  487 ] final   17.61 input  -89.99 | X-H torsion

> <Gold.Protein.ActiveResidues>
 MET295  LEU298  THR299  LEU301  ALA302  GLU305  TRP335  MET336  LEU339  MET340 
 GLY342  LEU343  ARG346  PHE356  ILE373  ILE376  PHE377  LEU380  LYS471  GLY472 
 MET473  HIS475  LEU476  LEU477  ASN478  MET479  VAL484  VAL487 

> <Gold.Protein.RotatedAtoms>
   36.2940   33.9493   42.3469 H   0  0  0  0  0  0  0  0  0  0  0  0  # atno 496  bound_to 491 

> <Gold.Score>
     Score     S(PLP)   S(hbond)     S(cho)   S(metal)  DE(clash)   DE(tors)     intcor
     41.31     -35.78       1.98       0.00       0.00       0.00       0.20       0.00

> <Gold.PLP.Fitness>
41.3095

> <Gold.PLP.PLP>
-35.7785

> <Gold.PLP.part.hbond>
-2.0000

> <Gold.PLP.part.metal>
0.0000

> <Gold.PLP.part.buried>
-4.0571

> <Gold.PLP.part.nonpolar>
-29.8378

> <Gold.PLP.part.repulsive>
0.0825

> <Gold.PLP.ligand.clash>
0.0000

> <Gold.PLP.ligand.torsion>
0.1986

> <Gold.PLP.Chemscore.Hbond>
1.9760

> <Gold.PLP.Chemscore.CHOScore>
0.0000

> <Gold.PLP.Chemscore.Metal>
0.0000

> <Gold.Chemscore.Hbonds>
donor molecule, donor type, donor heavy atom, donor atom, acceptor molecule, acceptor atom, score
      L1  H     8    22       P1   582  0.98
      L1  H    10    24       P1   470  1.00

> <Gold.PLP.Chemscore.Internal.Correction>
0.0002

