#       Name:                EN300-7455669_i001
#       Creating user name   aseyller
#       Creation time:       Fri Apr 21 16:43:07 2023


#       File generated by GOLD software.
#

@<TRIPOS>MOLECULE
EN300-7455669_i001|aminophenols|mol2|102|dock15
    24    24     1
SMALL
USER_CHARGES


@<TRIPOS>ATOM
      1 N1          24.5419  36.0611  41.9706 N.4            1 <1>                1.0000
      2 C2          25.5211  36.8082  41.1700 C.3            1 <1>                0.0000
      3 C3          26.5922  35.8483  40.6483 C.3            1 <1>                0.0000
      4 C4          27.3807  36.5217  39.5549 C.ar           1 <1>                0.0000
      5 C5          26.7288  37.2871  38.6058 C.ar           1 <1>                0.0000
      6 C6          27.4470  37.9072  37.5999 C.ar           1 <1>                0.0000
      7 C7          28.8233  37.7630  37.5410 C.ar           1 <1>                0.0000
      8 O8          29.5310  38.3727  36.5524 O.3            1 <1>                0.0000
      9 C9          29.4810  36.9923  38.4972 C.ar           1 <1>                0.0000
     10 N10         30.8716  36.8430  38.4427 N.pl3          1 <1>                0.0000
     11 C11         28.7545  36.3774  39.5065 C.ar           1 <1>                0.0000
     12 H12         25.0163  37.2818  40.3279 H              1 <1>                0.0000
     13 H13         25.9893  37.5730  41.7897 H              1 <1>                0.0000
     14 H14         27.2620  35.5738  41.4631 H              1 <1>                0.0000
     15 H15         26.1149  34.9518  40.2526 H              1 <1>                0.0000
     16 H16         25.6557  37.4008  38.6500 H              1 <1>                0.0000
     17 H17         26.9346  38.5038  36.8597 H              1 <1>                0.0000
     18 H18         29.2613  35.7792  40.2493 H              1 <1>                0.0000
     19 H19         23.7964  35.7366  41.3731 H              1 <1>                0.0000
     20 H20         24.9947  35.2701  42.4033 H              1 <1>                0.0000
     21 H21         24.1620  36.6637  42.6854 H              1 <1>                0.0000
     22 H22         29.9499  39.2014  36.8223 H              1 <1>                0.0000
     23 H23         31.3787  37.2765  37.7385 H              1 <1>                0.0000
     24 H24         31.3283  36.3061  39.1091 H              1 <1>                0.0000
@<TRIPOS>BOND
    1    1    2 1     
    2    1   19 1     
    3    1   20 1     
    4    1   21 1     
    5    2    3 1     
    6    2   12 1     
    7    2   13 1     
    8    3    4 1     
    9    3   14 1     
   10    3   15 1     
   11    4    5 ar    
   12    4   11 ar    
   13    5    6 ar    
   14    5   16 1     
   15    6    7 ar    
   16    6   17 1     
   17    7    8 1     
   18    7    9 ar    
   19    8   22 1     
   20    9   10 1     
   21    9   11 ar    
   22   10   23 1     
   23   10   24 1     
   24   11   18 1     
@<TRIPOS>SUBSTRUCTURE
      1 ****           1
@<TRIPOS>SET
DONOR_HYDROGENS      STATIC     ATOMS    <user>   **** ""
6 19 20 21 22 23 24
ATOM$RED        STATIC     ATOMS    COLORGROUP SYSTEM
6 19 20 21 22 23 24
@<TRIPOS>COMMENT
> <Gold.Version>
2022.2.0

> <Gold.Id.Protein>
1qkm|1qkm_protein|mol2

> <Gold.Protein.RotatedTorsions>
[  496  491  490  487 ] final  101.38 input  -89.99 | X-H torsion

> <Gold.Protein.ActiveResidues>
 MET295  LEU298  THR299  LEU301  ALA302  GLU305  TRP335  MET336  LEU339  MET340 
 GLY342  LEU343  ARG346  PHE356  ILE373  ILE376  PHE377  LEU380  LYS471  GLY472 
 MET473  HIS475  LEU476  LEU477  ASN478  MET479  VAL484  VAL487 

> <Gold.Protein.RotatedAtoms>
   36.9240   32.9638   41.8799 H   0  0  0  0  0  0  0  0  0  0  0  0  # atno 496  bound_to 491 

> <Gold.Score>
     Score     S(PLP)   S(hbond)     S(cho)   S(metal)  DE(clash)   DE(tors)     intcor
     44.15     -35.75       3.00       0.00       0.00       0.00       0.30       0.00

> <Gold.PLP.Fitness>
44.1538

> <Gold.PLP.PLP>
-35.7538

> <Gold.PLP.part.hbond>
-2.7221

> <Gold.PLP.part.metal>
0.0000

> <Gold.PLP.part.buried>
-3.3256

> <Gold.PLP.part.nonpolar>
-33.1723

> <Gold.PLP.part.repulsive>
3.0272

> <Gold.PLP.ligand.clash>
0.0000

> <Gold.PLP.ligand.torsion>
0.3000

> <Gold.PLP.Chemscore.Hbond>
3.0000

> <Gold.PLP.Chemscore.CHOScore>
0.0000

> <Gold.PLP.Chemscore.Metal>
0.0000

> <Gold.Chemscore.Hbonds>
donor molecule, donor type, donor heavy atom, donor atom, acceptor molecule, acceptor atom, score
      L1  H     1    19       P1  1131  1.00
      L1  H     1    20       P1   582  2.00

> <Gold.PLP.Chemscore.Internal.Correction>
0.0002

