#       Name:                EN300-7455669_i001
#       Creating user name   aseyller
#       Creation time:       Fri Apr 21 16:43:00 2023


#       File generated by GOLD software.
#

@<TRIPOS>MOLECULE
EN300-7455669_i001|aminophenols|mol2|102|dock7
    24    24     1
SMALL
USER_CHARGES


@<TRIPOS>ATOM
      1 N1          31.2475  34.5865  39.2491 N.4            1 <1>                1.0000
      2 C2          30.6498  35.4171  38.1950 C.3            1 <1>                0.0000
      3 C3          30.3007  36.7929  38.7662 C.3            1 <1>                0.0000
      4 C4          28.8989  36.7665  39.3186 C.ar           1 <1>                0.0000
      5 C5          27.8273  37.0560  38.4944 C.ar           1 <1>                0.0000
      6 C6          26.5388  37.0337  38.9957 C.ar           1 <1>                0.0000
      7 C7          26.3184  36.7203  40.3268 C.ar           1 <1>                0.0000
      8 O8          25.0516  36.6977  40.8211 O.3            1 <1>                0.0000
      9 C9          27.3976  36.4280  41.1579 C.ar           1 <1>                0.0000
     10 N10         27.1810  36.1107  42.5038 N.pl3          1 <1>                0.0000
     11 C11         28.6871  36.4473  40.6467 C.ar           1 <1>                0.0000
     12 H12         31.3607  35.5330  37.3769 H              1 <1>                0.0000
     13 H13         29.7440  34.9372  37.8241 H              1 <1>                0.0000
     14 H14         31.0006  37.0436  39.5631 H              1 <1>                0.0000
     15 H15         30.3659  37.5413  37.9765 H              1 <1>                0.0000
     16 H16         27.9971  37.3005  37.4562 H              1 <1>                0.0000
     17 H17         25.7040  37.2610  38.3494 H              1 <1>                0.0000
     18 H18         29.5260  36.2212  41.2883 H              1 <1>                0.0000
     19 H19         32.1987  34.3602  39.0001 H              1 <1>                0.0000
     20 H20         31.2396  35.0932  40.1215 H              1 <1>                0.0000
     21 H21         30.7145  33.7356  39.3495 H              1 <1>                0.0000
     22 H22         24.3784  36.4641  40.1673 H              1 <1>                0.0000
     23 H23         26.2785  36.0941  42.8589 H              1 <1>                0.0000
     24 H24         27.9333  35.9074  43.0814 H              1 <1>                0.0000
@<TRIPOS>BOND
    1    1    2 1     
    2    1   19 1     
    3    1   20 1     
    4    1   21 1     
    5    2    3 1     
    6    2   12 1     
    7    2   13 1     
    8    3    4 1     
    9    3   14 1     
   10    3   15 1     
   11    4    5 ar    
   12    4   11 ar    
   13    5    6 ar    
   14    5   16 1     
   15    6    7 ar    
   16    6   17 1     
   17    7    8 1     
   18    7    9 ar    
   19    8   22 1     
   20    9   10 1     
   21    9   11 ar    
   22   10   23 1     
   23   10   24 1     
   24   11   18 1     
@<TRIPOS>SUBSTRUCTURE
      1 ****           1
@<TRIPOS>SET
DONOR_HYDROGENS      STATIC     ATOMS    <user>   **** ""
6 19 20 21 22 23 24
ATOM$RED        STATIC     ATOMS    COLORGROUP SYSTEM
6 19 20 21 22 23 24
@<TRIPOS>COMMENT
> <Gold.Version>
2022.2.0

> <Gold.Id.Protein>
1qkm|1qkm_protein|mol2

> <Gold.Protein.RotatedTorsions>
[  496  491  490  487 ] final   98.28 input  -89.99 | X-H torsion

> <Gold.Protein.ActiveResidues>
 MET295  LEU298  THR299  LEU301  ALA302  GLU305  TRP335  MET336  LEU339  MET340 
 GLY342  LEU343  ARG346  PHE356  ILE373  ILE376  PHE377  LEU380  LYS471  GLY472 
 MET473  HIS475  LEU476  LEU477  ASN478  MET479  VAL484  VAL487 

> <Gold.Protein.RotatedAtoms>
   36.8961   32.9763   41.9208 H   0  0  0  0  0  0  0  0  0  0  0  0  # atno 496  bound_to 491 

> <Gold.Score>
     Score     S(PLP)   S(hbond)     S(cho)   S(metal)  DE(clash)   DE(tors)     intcor
     41.29     -36.16       2.08       0.00       0.00       0.00       0.56       0.00

> <Gold.PLP.Fitness>
41.2896

> <Gold.PLP.PLP>
-36.1615

> <Gold.PLP.part.hbond>
-2.2278

> <Gold.PLP.part.metal>
0.0000

> <Gold.PLP.part.buried>
-3.2287

> <Gold.PLP.part.nonpolar>
-31.2919

> <Gold.PLP.part.repulsive>
0.1541

> <Gold.PLP.ligand.clash>
0.0000

> <Gold.PLP.ligand.torsion>
0.5561

> <Gold.PLP.Chemscore.Hbond>
2.0800

> <Gold.PLP.Chemscore.CHOScore>
0.0000

> <Gold.PLP.Chemscore.Metal>
0.0000

> <Gold.Chemscore.Hbonds>
donor molecule, donor type, donor heavy atom, donor atom, acceptor molecule, acceptor atom, score
      L1  H     1    20       P1   470  0.91
      L1  H     8    22       P1  1131  0.99
      L1  H    10    23       P1   582  0.18

> <Gold.PLP.Chemscore.Internal.Correction>
0.0002

