#       Name:                EN300-7455669_i001
#       Creating user name   aseyller
#       Creation time:       Fri Apr 21 16:42:54 2023


#       File generated by GOLD software.
#

@<TRIPOS>MOLECULE
EN300-7455669_i001|aminophenols|mol2|102|dock2
    24    24     1
SMALL
USER_CHARGES


@<TRIPOS>ATOM
      1 N1          30.8724  37.5606  36.2071 N.4            1 <1>                1.0000
      2 C2          30.2331  37.3325  37.5099 C.3            1 <1>                0.0000
      3 C3          28.7189  37.2193  37.3221 C.3            1 <1>                0.0000
      4 C4          28.0595  37.0255  38.6632 C.ar           1 <1>                0.0000
      5 C5          26.7060  37.2675  38.8076 C.ar           1 <1>                0.0000
      6 C6          26.0955  37.0918  40.0358 C.ar           1 <1>                0.0000
      7 C7          26.8397  36.6718  41.1258 C.ar           1 <1>                0.0000
      8 O8          26.2405  36.4982  42.3344 O.3            1 <1>                0.0000
      9 C9          28.2036  36.4272  40.9811 C.ar           1 <1>                0.0000
     10 N10         28.9607  36.0027  42.0791 N.pl3          1 <1>                0.0000
     11 C11         28.8082  36.6007  39.7446 C.ar           1 <1>                0.0000
     12 H12         30.6153  36.4093  37.9454 H              1 <1>                0.0000
     13 H13         30.4553  38.1672  38.1748 H              1 <1>                0.0000
     14 H14         28.3409  38.1310  36.8597 H              1 <1>                0.0000
     15 H15         28.4951  36.3668  36.6807 H              1 <1>                0.0000
     16 H16         26.1239  37.5951  37.9588 H              1 <1>                0.0000
     17 H17         25.0381  37.2824  40.1453 H              1 <1>                0.0000
     18 H18         29.8653  36.4120  39.6290 H              1 <1>                0.0000
     19 H19         30.5036  38.4044  35.7946 H              1 <1>                0.0000
     20 H20         31.8689  37.6558  36.3336 H              1 <1>                0.0000
     21 H21         30.6838  36.7783  35.5983 H              1 <1>                0.0000
     22 H22         26.3864  35.6252  42.7239 H              1 <1>                0.0000
     23 H23         28.5359  35.8783  42.9422 H              1 <1>                0.0000
     24 H24         29.9102  35.8328  41.9769 H              1 <1>                0.0000
@<TRIPOS>BOND
    1    1    2 1     
    2    1   19 1     
    3    1   20 1     
    4    1   21 1     
    5    2    3 1     
    6    2   12 1     
    7    2   13 1     
    8    3    4 1     
    9    3   14 1     
   10    3   15 1     
   11    4    5 ar    
   12    4   11 ar    
   13    5    6 ar    
   14    5   16 1     
   15    6    7 ar    
   16    6   17 1     
   17    7    8 1     
   18    7    9 ar    
   19    8   22 1     
   20    9   10 1     
   21    9   11 ar    
   22   10   23 1     
   23   10   24 1     
   24   11   18 1     
@<TRIPOS>SUBSTRUCTURE
      1 ****           1
@<TRIPOS>SET
DONOR_HYDROGENS      STATIC     ATOMS    <user>   **** ""
6 19 20 21 22 23 24
ATOM$RED        STATIC     ATOMS    COLORGROUP SYSTEM
6 19 20 21 22 23 24
@<TRIPOS>COMMENT
> <Gold.Version>
2022.2.0

> <Gold.Id.Protein>
1qkm|1qkm_protein|mol2

> <Gold.Protein.RotatedTorsions>
[  496  491  490  487 ] final  178.73 input  -89.99 | X-H torsion

> <Gold.Protein.ActiveResidues>
 MET295  LEU298  THR299  LEU301  ALA302  GLU305  TRP335  MET336  LEU339  MET340 
 GLY342  LEU343  ARG346  PHE356  ILE373  ILE376  PHE377  LEU380  LYS471  GLY472 
 MET473  HIS475  LEU476  LEU477  ASN478  MET479  VAL484  VAL487 

> <Gold.Protein.RotatedAtoms>
   37.3184   33.4437   40.8781 H   0  0  0  0  0  0  0  0  0  0  0  0  # atno 496  bound_to 491 

> <Gold.Score>
     Score     S(PLP)   S(hbond)     S(cho)   S(metal)  DE(clash)   DE(tors)     intcor
     41.96     -36.47       2.00       0.00       0.00       0.02       0.25       0.00

> <Gold.PLP.Fitness>
41.9591

> <Gold.PLP.PLP>
-36.4734

> <Gold.PLP.part.hbond>
-1.6586

> <Gold.PLP.part.metal>
0.0000

> <Gold.PLP.part.buried>
-4.2461

> <Gold.PLP.part.nonpolar>
-30.9228

> <Gold.PLP.part.repulsive>
0.0854

> <Gold.PLP.ligand.clash>
0.0179

> <Gold.PLP.ligand.torsion>
0.2487

> <Gold.PLP.Chemscore.Hbond>
2.0000

> <Gold.PLP.Chemscore.CHOScore>
0.0000

> <Gold.PLP.Chemscore.Metal>
0.0000

> <Gold.Chemscore.Hbonds>
donor molecule, donor type, donor heavy atom, donor atom, acceptor molecule, acceptor atom, score
      L1  H     8    22       P1   582  1.00
      L1  H    10    24       P1   470  1.00

> <Gold.PLP.Chemscore.Internal.Correction>
0.0010

