#       Name:                EN300-7455669_i001
#       Creating user name   aseyller
#       Creation time:       Fri Apr 21 16:43:06 2023


#       File generated by GOLD software.
#

@<TRIPOS>MOLECULE
EN300-7455669_i001|aminophenols|mol2|102|dock13
    24    24     1
SMALL
USER_CHARGES


@<TRIPOS>ATOM
      1 N1          27.0793  36.6691  42.0957 N.4            1 <1>                1.0000
      2 C2          28.4962  36.4830  41.7553 C.3            1 <1>                0.0000
      3 C3          28.6154  35.5036  40.5859 C.3            1 <1>                0.0000
      4 C4          29.3998  36.1458  39.4709 C.ar           1 <1>                0.0000
      5 C5          28.8860  37.2472  38.8119 C.ar           1 <1>                0.0000
      6 C6          29.6009  37.8405  37.7877 C.ar           1 <1>                0.0000
      7 C7          30.8356  37.3321  37.4194 C.ar           1 <1>                0.0000
      8 O8          31.5400  37.9149  36.4125 O.3            1 <1>                0.0000
      9 C9          31.3543  36.2226  38.0833 C.ar           1 <1>                0.0000
     10 N10         32.6014  35.7044  37.7155 N.pl3          1 <1>                0.0000
     11 C11         30.6337  35.6357  39.1133 C.ar           1 <1>                0.0000
     12 H12         28.9308  37.4417  41.4722 H              1 <1>                0.0000
     13 H13         29.0279  36.0840  42.6192 H              1 <1>                0.0000
     14 H14         29.1287  34.6014  40.9185 H              1 <1>                0.0000
     15 H15         27.6197  35.2436  40.2268 H              1 <1>                0.0000
     16 H16         27.9234  37.6451  39.0976 H              1 <1>                0.0000
     17 H17         29.1964  38.7004  37.2745 H              1 <1>                0.0000
     18 H18         31.0328  34.7754  39.6300 H              1 <1>                0.0000
     19 H19         26.5454  36.8048  41.2504 H              1 <1>                0.0000
     20 H20         26.7397  35.8520  42.5805 H              1 <1>                0.0000
     21 H21         26.9797  37.4785  42.6900 H              1 <1>                0.0000
     22 H22         32.1567  38.5985  36.7084 H              1 <1>                0.0000
     23 H23         33.1057  36.1180  36.9975 H              1 <1>                0.0000
     24 H24         32.9613  34.9318  38.1785 H              1 <1>                0.0000
@<TRIPOS>BOND
    1    1    2 1     
    2    1   19 1     
    3    1   20 1     
    4    1   21 1     
    5    2    3 1     
    6    2   12 1     
    7    2   13 1     
    8    3    4 1     
    9    3   14 1     
   10    3   15 1     
   11    4    5 ar    
   12    4   11 ar    
   13    5    6 ar    
   14    5   16 1     
   15    6    7 ar    
   16    6   17 1     
   17    7    8 1     
   18    7    9 ar    
   19    8   22 1     
   20    9   10 1     
   21    9   11 ar    
   22   10   23 1     
   23   10   24 1     
   24   11   18 1     
@<TRIPOS>SUBSTRUCTURE
      1 ****           1
@<TRIPOS>SET
DONOR_HYDROGENS      STATIC     ATOMS    <user>   **** ""
6 19 20 21 22 23 24
ATOM$RED        STATIC     ATOMS    COLORGROUP SYSTEM
6 19 20 21 22 23 24
@<TRIPOS>COMMENT
> <Gold.Version>
2022.2.0

> <Gold.Id.Protein>
1qkm|1qkm_protein|mol2

> <Gold.Protein.RotatedTorsions>
[  496  491  490  487 ] final  -83.28 input  -89.99 | X-H torsion

> <Gold.Protein.ActiveResidues>
 MET295  LEU298  THR299  LEU301  ALA302  GLU305  TRP335  MET336  LEU339  MET340 
 GLY342  LEU343  ARG346  PHE356  ILE373  ILE376  PHE377  LEU380  LYS471  GLY472 
 MET473  HIS475  LEU476  LEU477  ASN478  MET479  VAL484  VAL487 

> <Gold.Protein.RotatedAtoms>
   36.6956   34.6917   41.1626 H   0  0  0  0  0  0  0  0  0  0  0  0  # atno 496  bound_to 491 

> <Gold.Score>
     Score     S(PLP)   S(hbond)     S(cho)   S(metal)  DE(clash)   DE(tors)     intcor
     39.79     -34.58       2.00       0.00       0.00       0.00       0.40       0.00

> <Gold.PLP.Fitness>
39.7857

> <Gold.PLP.PLP>
-34.5824

> <Gold.PLP.part.hbond>
-1.0000

> <Gold.PLP.part.metal>
0.0000

> <Gold.PLP.part.buried>
-2.8317

> <Gold.PLP.part.nonpolar>
-30.8099

> <Gold.PLP.part.repulsive>
0.0842

> <Gold.PLP.ligand.clash>
0.0000

> <Gold.PLP.ligand.torsion>
0.3984

> <Gold.PLP.Chemscore.Hbond>
2.0000

> <Gold.PLP.Chemscore.CHOScore>
0.0000

> <Gold.PLP.Chemscore.Metal>
0.0000

> <Gold.Chemscore.Hbonds>
donor molecule, donor type, donor heavy atom, donor atom, acceptor molecule, acceptor atom, score
      L1  H     1    20       P1   582  2.00

> <Gold.PLP.Chemscore.Internal.Correction>
0.0002

