#       Name:                EN300-7455669_i001
#       Creating user name   aseyller
#       Creation time:       Fri Apr 21 16:42:57 2023


#       File generated by GOLD software.
#

@<TRIPOS>MOLECULE
EN300-7455669_i001|aminophenols|mol2|102|dock4
    24    24     1
SMALL
USER_CHARGES


@<TRIPOS>ATOM
      1 N1          30.8740  39.0830  36.4857 N.4            1 <1>                1.0000
      2 C2          29.7311  38.8499  37.3788 C.3            1 <1>                0.0000
      3 C3          29.8438  37.4554  37.9981 C.3            1 <1>                0.0000
      4 C4          28.6031  37.1606  38.8009 C.ar           1 <1>                0.0000
      5 C5          27.3560  37.4203  38.2634 C.ar           1 <1>                0.0000
      6 C6          26.2139  37.1522  38.9954 C.ar           1 <1>                0.0000
      7 C7          26.3168  36.6215  40.2707 C.ar           1 <1>                0.0000
      8 O8          25.1943  36.3569  40.9916 O.3            1 <1>                0.0000
      9 C9          27.5730  36.3590  40.8129 C.ar           1 <1>                0.0000
     10 N10         27.6832  35.8228  42.1010 N.pl3          1 <1>                0.0000
     11 C11         28.7143  36.6258  40.0706 C.ar           1 <1>                0.0000
     12 H12         29.7293  39.5999  38.1699 H              1 <1>                0.0000
     13 H13         28.8044  38.9206  36.8091 H              1 <1>                0.0000
     14 H14         29.9492  36.7137  37.2065 H              1 <1>                0.0000
     15 H15         30.7162  37.4171  38.6505 H              1 <1>                0.0000
     16 H16         27.2737  37.8341  37.2692 H              1 <1>                0.0000
     17 H17         25.2413  37.3569  38.5729 H              1 <1>                0.0000
     18 H18         29.6896  36.4235  40.4880 H              1 <1>                0.0000
     19 H19         31.1567  38.2099  36.0665 H              1 <1>                0.0000
     20 H20         30.6078  39.7332  35.7616 H              1 <1>                0.0000
     21 H21         31.6424  39.4661  37.0159 H              1 <1>                0.0000
     22 H22         24.3773  36.3961  40.4758 H              1 <1>                0.0000
     23 H23         26.8842  35.6334  42.6175 H              1 <1>                0.0000
     24 H24         28.5584  35.6406  42.4774 H              1 <1>                0.0000
@<TRIPOS>BOND
    1    1    2 1     
    2    1   19 1     
    3    1   20 1     
    4    1   21 1     
    5    2    3 1     
    6    2   12 1     
    7    2   13 1     
    8    3    4 1     
    9    3   14 1     
   10    3   15 1     
   11    4    5 ar    
   12    4   11 ar    
   13    5    6 ar    
   14    5   16 1     
   15    6    7 ar    
   16    6   17 1     
   17    7    8 1     
   18    7    9 ar    
   19    8   22 1     
   20    9   10 1     
   21    9   11 ar    
   22   10   23 1     
   23   10   24 1     
   24   11   18 1     
@<TRIPOS>SUBSTRUCTURE
      1 ****           1
@<TRIPOS>SET
DONOR_HYDROGENS      STATIC     ATOMS    <user>   **** ""
6 19 20 21 22 23 24
ATOM$RED        STATIC     ATOMS    COLORGROUP SYSTEM
6 19 20 21 22 23 24
@<TRIPOS>COMMENT
> <Gold.Version>
2022.2.0

> <Gold.Id.Protein>
1qkm|1qkm_protein|mol2

> <Gold.Protein.RotatedTorsions>
[  496  491  490  487 ] final   -2.17 input  -89.99 | X-H torsion

> <Gold.Protein.ActiveResidues>
 MET295  LEU298  THR299  LEU301  ALA302  GLU305  TRP335  MET336  LEU339  MET340 
 GLY342  LEU343  ARG346  PHE356  ILE373  ILE376  PHE377  LEU380  LYS471  GLY472 
 MET473  HIS475  LEU476  LEU477  ASN478  MET479  VAL484  VAL487 

> <Gold.Protein.RotatedAtoms>
   36.2589   34.2443   42.2176 H   0  0  0  0  0  0  0  0  0  0  0  0  # atno 496  bound_to 491 

> <Gold.Score>
     Score     S(PLP)   S(hbond)     S(cho)   S(metal)  DE(clash)   DE(tors)     intcor
     43.03     -37.53       1.94       0.00       0.00       0.00       0.17       0.00

> <Gold.PLP.Fitness>
43.0315

> <Gold.PLP.PLP>
-37.5303

> <Gold.PLP.part.hbond>
-2.0000

> <Gold.PLP.part.metal>
0.0000

> <Gold.PLP.part.buried>
-4.5794

> <Gold.PLP.part.nonpolar>
-31.4730

> <Gold.PLP.part.repulsive>
0.0575

> <Gold.PLP.ligand.clash>
0.0000

> <Gold.PLP.ligand.torsion>
0.1655

> <Gold.PLP.Chemscore.Hbond>
1.9440

> <Gold.PLP.Chemscore.CHOScore>
0.0000

> <Gold.PLP.Chemscore.Metal>
0.0000

> <Gold.Chemscore.Hbonds>
donor molecule, donor type, donor heavy atom, donor atom, acceptor molecule, acceptor atom, score
      L1  H     8    22       P1  1131  1.00
      L1  H    10    23       P1   582  0.94

> <Gold.PLP.Chemscore.Internal.Correction>
0.0002

