#       Name:                EN300-7455669_i001
#       Creating user name   aseyller
#       Creation time:       Fri Apr 21 16:43:01 2023


#       File generated by GOLD software.
#

@<TRIPOS>MOLECULE
EN300-7455669_i001|aminophenols|mol2|102|dock8
    24    24     1
SMALL
USER_CHARGES


@<TRIPOS>ATOM
      1 N1          24.8063  36.1446  41.6303 N.4            1 <1>                1.0000
      2 C2          25.6769  37.0958  40.9265 C.3            1 <1>                0.0000
      3 C3          25.8005  36.6839  39.4581 C.3            1 <1>                0.0000
      4 C4          27.2242  36.8728  39.0017 C.ar           1 <1>                0.0000
      5 C5          28.2473  36.1906  39.6337 C.ar           1 <1>                0.0000
      6 C6          29.5556  36.3601  39.2195 C.ar           1 <1>                0.0000
      7 C7          29.8446  37.2147  38.1686 C.ar           1 <1>                0.0000
      8 O8          31.1310  37.3821  37.7599 O.3            1 <1>                0.0000
      9 C9          28.8143  37.9022  37.5308 C.ar           1 <1>                0.0000
     10 N10         29.1003  38.7671  36.4683 N.pl3          1 <1>                0.0000
     11 C11         27.5035  37.7232  37.9484 C.ar           1 <1>                0.0000
     12 H12         25.2475  38.0957  40.9885 H              1 <1>                0.0000
     13 H13         26.6642  37.0950  41.3885 H              1 <1>                0.0000
     14 H14         25.5201  35.6363  39.3498 H              1 <1>                0.0000
     15 H15         25.1393  37.3018  38.8506 H              1 <1>                0.0000
     16 H16         28.0240  35.5237  40.4534 H              1 <1>                0.0000
     17 H17         30.3525  35.8262  39.7159 H              1 <1>                0.0000
     18 H18         26.7025  38.2546  37.4562 H              1 <1>                0.0000
     19 H19         24.1872  35.7017  40.9679 H              1 <1>                0.0000
     20 H20         25.3720  35.4426  42.0832 H              1 <1>                0.0000
     21 H21         24.2617  36.6362  42.3230 H              1 <1>                0.0000
     22 H22         31.4165  38.3054  37.7279 H              1 <1>                0.0000
     23 H23         30.0169  38.8885  36.1750 H              1 <1>                0.0000
     24 H24         28.3820  39.2452  36.0252 H              1 <1>                0.0000
@<TRIPOS>BOND
    1    1    2 1     
    2    1   19 1     
    3    1   20 1     
    4    1   21 1     
    5    2    3 1     
    6    2   12 1     
    7    2   13 1     
    8    3    4 1     
    9    3   14 1     
   10    3   15 1     
   11    4    5 ar    
   12    4   11 ar    
   13    5    6 ar    
   14    5   16 1     
   15    6    7 ar    
   16    6   17 1     
   17    7    8 1     
   18    7    9 ar    
   19    8   22 1     
   20    9   10 1     
   21    9   11 ar    
   22   10   23 1     
   23   10   24 1     
   24   11   18 1     
@<TRIPOS>SUBSTRUCTURE
      1 ****           1
@<TRIPOS>SET
DONOR_HYDROGENS      STATIC     ATOMS    <user>   **** ""
6 19 20 21 22 23 24
ATOM$RED        STATIC     ATOMS    COLORGROUP SYSTEM
6 19 20 21 22 23 24
@<TRIPOS>COMMENT
> <Gold.Version>
2022.2.0

> <Gold.Id.Protein>
1qkm|1qkm_protein|mol2

> <Gold.Protein.RotatedTorsions>
[  496  491  490  487 ] final   45.22 input  -89.99 | X-H torsion

> <Gold.Protein.ActiveResidues>
 MET295  LEU298  THR299  LEU301  ALA302  GLU305  TRP335  MET336  LEU339  MET340 
 GLY342  LEU343  ARG346  PHE356  ILE373  ILE376  PHE377  LEU380  LYS471  GLY472 
 MET473  HIS475  LEU476  LEU477  ASN478  MET479  VAL484  VAL487 

> <Gold.Protein.RotatedAtoms>
   36.4384   33.5235   42.3691 H   0  0  0  0  0  0  0  0  0  0  0  0  # atno 496  bound_to 491 

> <Gold.Score>
     Score     S(PLP)   S(hbond)     S(cho)   S(metal)  DE(clash)   DE(tors)     intcor
     45.33     -37.05       2.95       0.00       0.00       0.00       0.29       0.00

> <Gold.PLP.Fitness>
45.3329

> <Gold.PLP.PLP>
-37.0509

> <Gold.PLP.part.hbond>
-2.0000

> <Gold.PLP.part.metal>
0.0000

> <Gold.PLP.part.buried>
-3.9937

> <Gold.PLP.part.nonpolar>
-32.4906

> <Gold.PLP.part.repulsive>
1.2485

> <Gold.PLP.ligand.clash>
0.0000

> <Gold.PLP.ligand.torsion>
0.2865

> <Gold.PLP.Chemscore.Hbond>
2.9516

> <Gold.PLP.Chemscore.CHOScore>
0.0000

> <Gold.PLP.Chemscore.Metal>
0.0000

> <Gold.Chemscore.Hbonds>
donor molecule, donor type, donor heavy atom, donor atom, acceptor molecule, acceptor atom, score
      L1  H     1    19       P1  1131  0.95
      L1  H     1    20       P1   582  2.00

> <Gold.PLP.Chemscore.Internal.Correction>
0.0002

