#       Name:                EN300-7455669_i001
#       Creating user name   aseyller
#       Creation time:       Fri Apr 21 16:42:53 2023


#       File generated by GOLD software.
#

@<TRIPOS>MOLECULE
EN300-7455669_i001|aminophenols|mol2|102|dock1
    24    24     1
SMALL
USER_CHARGES


@<TRIPOS>ATOM
      1 N1          29.4824  38.9765  36.1047 N.4            1 <1>                1.0000
      2 C2          28.6464  38.7565  37.2925 C.3            1 <1>                0.0000
      3 C3          28.5381  37.2556  37.5691 C.3            1 <1>                0.0000
      4 C4          27.6345  37.0271  38.7533 C.ar           1 <1>                0.0000
      5 C5          26.3357  37.5003  38.7311 C.ar           1 <1>                0.0000
      6 C6          25.5020  37.2939  39.8148 C.ar           1 <1>                0.0000
      7 C7          25.9669  36.6111  40.9266 C.ar           1 <1>                0.0000
      8 O8          25.1479  36.4071  41.9931 O.3            1 <1>                0.0000
      9 C9          27.2755  36.1335  40.9497 C.ar           1 <1>                0.0000
     10 N10         27.7508  35.4429  42.0704 N.pl3          1 <1>                0.0000
     11 C11         28.1045  36.3398  39.8566 C.ar           1 <1>                0.0000
     12 H12         29.0980  39.2527  38.1515 H              1 <1>                0.0000
     13 H13         27.6516  39.1665  37.1176 H              1 <1>                0.0000
     14 H14         28.1247  36.7539  36.6944 H              1 <1>                0.0000
     15 H15         29.5281  36.8536  37.7846 H              1 <1>                0.0000
     16 H16         25.9713  38.0329  37.8651 H              1 <1>                0.0000
     17 H17         24.4882  37.6655  39.7946 H              1 <1>                0.0000
     18 H18         29.1194  35.9709  39.8712 H              1 <1>                0.0000
     19 H19         29.0350  39.6473  35.4981 H              1 <1>                0.0000
     20 H20         30.3841  39.3288  36.3887 H              1 <1>                0.0000
     21 H21         29.6021  38.1044  35.6115 H              1 <1>                0.0000
     22 H22         25.4713  35.7415  42.6156 H              1 <1>                0.0000
     23 H23         27.1688  35.2963  42.8325 H              1 <1>                0.0000
     24 H24         28.6621  35.1110  42.0851 H              1 <1>                0.0000
@<TRIPOS>BOND
    1    1    2 1     
    2    1   19 1     
    3    1   20 1     
    4    1   21 1     
    5    2    3 1     
    6    2   12 1     
    7    2   13 1     
    8    3    4 1     
    9    3   14 1     
   10    3   15 1     
   11    4    5 ar    
   12    4   11 ar    
   13    5    6 ar    
   14    5   16 1     
   15    6    7 ar    
   16    6   17 1     
   17    7    8 1     
   18    7    9 ar    
   19    8   22 1     
   20    9   10 1     
   21    9   11 ar    
   22   10   23 1     
   23   10   24 1     
   24   11   18 1     
@<TRIPOS>SUBSTRUCTURE
      1 ****           1
@<TRIPOS>SET
DONOR_HYDROGENS      STATIC     ATOMS    <user>   **** ""
6 19 20 21 22 23 24
ATOM$RED        STATIC     ATOMS    COLORGROUP SYSTEM
6 19 20 21 22 23 24
@<TRIPOS>COMMENT
> <Gold.Version>
2022.2.0

> <Gold.Id.Protein>
1qkm|1qkm_protein|mol2

> <Gold.Protein.RotatedTorsions>
[  496  491  490  487 ] final   96.38 input  -89.99 | X-H torsion

> <Gold.Protein.ActiveResidues>
 MET295  LEU298  THR299  LEU301  ALA302  GLU305  TRP335  MET336  LEU339  MET340 
 GLY342  LEU343  ARG346  PHE356  ILE373  ILE376  PHE377  LEU380  LYS471  GLY472 
 MET473  HIS475  LEU476  LEU477  ASN478  MET479  VAL484  VAL487 

> <Gold.Protein.RotatedAtoms>
   36.8788   32.9852   41.9453 H   0  0  0  0  0  0  0  0  0  0  0  0  # atno 496  bound_to 491 

> <Gold.Score>
     Score     S(PLP)   S(hbond)     S(cho)   S(metal)  DE(clash)   DE(tors)     intcor
     47.42     -39.52       2.64       0.00       0.00       0.00       0.01       0.00

> <Gold.PLP.Fitness>
47.4217

> <Gold.PLP.PLP>
-39.5168

> <Gold.PLP.part.hbond>
-3.0000

> <Gold.PLP.part.metal>
0.0000

> <Gold.PLP.part.buried>
-4.9007

> <Gold.PLP.part.nonpolar>
-31.8398

> <Gold.PLP.part.repulsive>
0.0733

> <Gold.PLP.ligand.clash>
0.0000

> <Gold.PLP.ligand.torsion>
0.0081

> <Gold.PLP.Chemscore.Hbond>
2.6400

> <Gold.PLP.Chemscore.CHOScore>
0.0000

> <Gold.PLP.Chemscore.Metal>
0.0000

> <Gold.Chemscore.Hbonds>
donor molecule, donor type, donor heavy atom, donor atom, acceptor molecule, acceptor atom, score
      L1  H     8    22       P1   582  1.00
      L1  H    10    23       P1   582  1.00
      P1  H  1258  1270       L1     8  0.64

> <Gold.PLP.Chemscore.Internal.Correction>
0.0010

