#       Name:                EN300-7455669_i001
#       Creating user name   aseyller
#       Creation time:       Fri Apr 21 16:43:04 2023


#       File generated by GOLD software.
#

@<TRIPOS>MOLECULE
EN300-7455669_i001|aminophenols|mol2|102|dock11
    24    24     1
SMALL
USER_CHARGES


@<TRIPOS>ATOM
      1 N1          32.0536  35.4826  38.0008 N.4            1 <1>                1.0000
      2 C2          30.8426  35.4318  38.8308 C.3            1 <1>                0.0000
      3 C3          30.0601  36.7369  38.6717 C.3            1 <1>                0.0000
      4 C4          28.8603  36.7175  39.5833 C.ar           1 <1>                0.0000
      5 C5          29.0308  36.5419  40.9441 C.ar           1 <1>                0.0000
      6 C6          27.9337  36.5228  41.7854 C.ar           1 <1>                0.0000
      7 C7          26.6593  36.6803  41.2661 C.ar           1 <1>                0.0000
      8 O8          25.5793  36.6622  42.0926 O.3            1 <1>                0.0000
      9 C9          26.4866  36.8578  39.8952 C.ar           1 <1>                0.0000
     10 N10         25.2012  37.0175  39.3647 N.pl3          1 <1>                0.0000
     11 C11         27.5924  36.8810  39.0578 C.ar           1 <1>                0.0000
     12 H12         30.2205  34.5943  38.5150 H              1 <1>                0.0000
     13 H13         31.1237  35.3017  39.8760 H              1 <1>                0.0000
     14 H14         30.7011  37.5789  38.9326 H              1 <1>                0.0000
     15 H15         29.7295  36.8385  37.6381 H              1 <1>                0.0000
     16 H16         30.0237  36.4189  41.3509 H              1 <1>                0.0000
     17 H17         28.0703  36.3847  42.8478 H              1 <1>                0.0000
     18 H18         27.4620  37.0184  37.9945 H              1 <1>                0.0000
     19 H19         32.6950  36.1614  38.3828 H              1 <1>                0.0000
     20 H20         32.4923  34.5741  37.9902 H              1 <1>                0.0000
     21 H21         31.8052  35.7471  37.0593 H              1 <1>                0.0000
     22 H22         25.5871  35.9387  42.7341 H              1 <1>                0.0000
     23 H23         24.4293  37.0046  39.9519 H              1 <1>                0.0000
     24 H24         25.0824  37.1409  38.4100 H              1 <1>                0.0000
@<TRIPOS>BOND
    1    1    2 1     
    2    1   19 1     
    3    1   20 1     
    4    1   21 1     
    5    2    3 1     
    6    2   12 1     
    7    2   13 1     
    8    3    4 1     
    9    3   14 1     
   10    3   15 1     
   11    4    5 ar    
   12    4   11 ar    
   13    5    6 ar    
   14    5   16 1     
   15    6    7 ar    
   16    6   17 1     
   17    7    8 1     
   18    7    9 ar    
   19    8   22 1     
   20    9   10 1     
   21    9   11 ar    
   22   10   23 1     
   23   10   24 1     
   24   11   18 1     
@<TRIPOS>SUBSTRUCTURE
      1 ****           1
@<TRIPOS>SET
DONOR_HYDROGENS      STATIC     ATOMS    <user>   **** ""
6 19 20 21 22 23 24
ATOM$RED        STATIC     ATOMS    COLORGROUP SYSTEM
6 19 20 21 22 23 24
@<TRIPOS>COMMENT
> <Gold.Version>
2022.2.0

> <Gold.Id.Protein>
1qkm|1qkm_protein|mol2

> <Gold.Protein.RotatedTorsions>
[  496  491  490  487 ] final  169.60 input  -89.99 | X-H torsion

> <Gold.Protein.ActiveResidues>
 MET295  LEU298  THR299  LEU301  ALA302  GLU305  TRP335  MET336  LEU339  MET340 
 GLY342  LEU343  ARG346  PHE356  ILE373  ILE376  PHE377  LEU380  LYS471  GLY472 
 MET473  HIS475  LEU476  LEU477  ASN478  MET479  VAL484  VAL487 

> <Gold.Protein.RotatedAtoms>
   37.3148   33.3206   40.9639 H   0  0  0  0  0  0  0  0  0  0  0  0  # atno 496  bound_to 491 

> <Gold.Score>
     Score     S(PLP)   S(hbond)     S(cho)   S(metal)  DE(clash)   DE(tors)     intcor
     42.76     -38.66       1.37       0.00       0.00       0.00       0.01       0.00

> <Gold.PLP.Fitness>
42.7560

> <Gold.PLP.PLP>
-38.6606

> <Gold.PLP.part.hbond>
-3.0000

> <Gold.PLP.part.metal>
0.0000

> <Gold.PLP.part.buried>
-4.3862

> <Gold.PLP.part.nonpolar>
-33.1284

> <Gold.PLP.part.repulsive>
0.1599

> <Gold.PLP.ligand.clash>
0.0000

> <Gold.PLP.ligand.torsion>
0.0099

> <Gold.PLP.Chemscore.Hbond>
1.3717

> <Gold.PLP.Chemscore.CHOScore>
0.0000

> <Gold.PLP.Chemscore.Metal>
0.0000

> <Gold.Chemscore.Hbonds>
donor molecule, donor type, donor heavy atom, donor atom, acceptor molecule, acceptor atom, score
      L1  H     8    22       P1   582  1.00
      L1  H    10    23       P1  1131  0.35
      P1  H  1258  1270       L1     8  0.03

> <Gold.PLP.Chemscore.Internal.Correction>
0.0002

