#       Name:                EN300-7455669_i001
#       Creating user name   aseyller
#       Creation time:       Fri Apr 21 16:43:02 2023


#       File generated by GOLD software.
#

@<TRIPOS>MOLECULE
EN300-7455669_i001|aminophenols|mol2|102|dock9
    24    24     1
SMALL
USER_CHARGES


@<TRIPOS>ATOM
      1 N1          26.8633  35.6711  41.5697 N.4            1 <1>                1.0000
      2 C2          28.2212  35.6794  41.0091 C.3            1 <1>                0.0000
      3 C3          28.1684  36.1412  39.5514 C.3            1 <1>                0.0000
      4 C4          29.5424  36.0366  38.9413 C.ar           1 <1>                0.0000
      5 C5          30.1743  37.1710  38.4666 C.ar           1 <1>                0.0000
      6 C6          31.4349  37.0812  37.9054 C.ar           1 <1>                0.0000
      7 C7          32.0685  35.8527  37.8179 C.ar           1 <1>                0.0000
      8 O8          33.3086  35.7629  37.2665 O.3            1 <1>                0.0000
      9 C9          31.4328  34.7092  38.2965 C.ar           1 <1>                0.0000
     10 N10         32.0682  33.4650  38.2107 N.pl3          1 <1>                0.0000
     11 C11         30.1702  34.8077  38.8629 C.ar           1 <1>                0.0000
     12 H12         28.8474  36.3616  41.5840 H              1 <1>                0.0000
     13 H13         28.6401  34.6742  41.0569 H              1 <1>                0.0000
     14 H14         27.4750  35.5104  38.9954 H              1 <1>                0.0000
     15 H15         27.8306  37.1767  39.5104 H              1 <1>                0.0000
     16 H16         29.6818  38.1298  38.5339 H              1 <1>                0.0000
     17 H17         31.9254  37.9691  37.5349 H              1 <1>                0.0000
     18 H18         29.6745  33.9232  39.2349 H              1 <1>                0.0000
     19 H19         26.5184  36.6174  41.6296 H              1 <1>                0.0000
     20 H20         26.2565  35.1290  40.9731 H              1 <1>                0.0000
     21 H21         26.8826  35.2611  42.4915 H              1 <1>                0.0000
     22 H22         33.3052  35.5487  36.3236 H              1 <1>                0.0000
     23 H23         32.9525  33.3982  37.8177 H              1 <1>                0.0000
     24 H24         31.6244  32.6697  38.5442 H              1 <1>                0.0000
@<TRIPOS>BOND
    1    1    2 1     
    2    1   19 1     
    3    1   20 1     
    4    1   21 1     
    5    2    3 1     
    6    2   12 1     
    7    2   13 1     
    8    3    4 1     
    9    3   14 1     
   10    3   15 1     
   11    4    5 ar    
   12    4   11 ar    
   13    5    6 ar    
   14    5   16 1     
   15    6    7 ar    
   16    6   17 1     
   17    7    8 1     
   18    7    9 ar    
   19    8   22 1     
   20    9   10 1     
   21    9   11 ar    
   22   10   23 1     
   23   10   24 1     
   24   11   18 1     
@<TRIPOS>SUBSTRUCTURE
      1 ****           1
@<TRIPOS>SET
DONOR_HYDROGENS      STATIC     ATOMS    <user>   **** ""
6 19 20 21 22 23 24
ATOM$RED        STATIC     ATOMS    COLORGROUP SYSTEM
6 19 20 21 22 23 24
@<TRIPOS>COMMENT
> <Gold.Version>
2022.2.0

> <Gold.Id.Protein>
1qkm|1qkm_protein|mol2

> <Gold.Protein.RotatedTorsions>
[  496  491  490  487 ] final  -80.92 input  -89.99 | X-H torsion

> <Gold.Protein.ActiveResidues>
 MET295  LEU298  THR299  LEU301  ALA302  GLU305  TRP335  MET336  LEU339  MET340 
 GLY342  LEU343  ARG346  PHE356  ILE373  ILE376  PHE377  LEU380  LYS471  GLY472 
 MET473  HIS475  LEU476  LEU477  ASN478  MET479  VAL484  VAL487 

> <Gold.Protein.RotatedAtoms>
   36.6742   34.7024   41.1932 H   0  0  0  0  0  0  0  0  0  0  0  0  # atno 496  bound_to 491 

> <Gold.Score>
     Score     S(PLP)   S(hbond)     S(cho)   S(metal)  DE(clash)   DE(tors)     intcor
     40.54     -34.55       2.00       0.00       0.00       0.00       0.01       0.00

> <Gold.PLP.Fitness>
40.5360

> <Gold.PLP.PLP>
-34.5509

> <Gold.PLP.part.hbond>
-1.0000

> <Gold.PLP.part.metal>
0.0000

> <Gold.PLP.part.buried>
-4.8979

> <Gold.PLP.part.nonpolar>
-28.8622

> <Gold.PLP.part.repulsive>
0.0723

> <Gold.PLP.ligand.clash>
0.0000

> <Gold.PLP.ligand.torsion>
0.0075

> <Gold.PLP.Chemscore.Hbond>
2.0000

> <Gold.PLP.Chemscore.CHOScore>
0.0000

> <Gold.PLP.Chemscore.Metal>
0.0000

> <Gold.Chemscore.Hbonds>
donor molecule, donor type, donor heavy atom, donor atom, acceptor molecule, acceptor atom, score
      L1  H     1    21       P1   582  2.00

> <Gold.PLP.Chemscore.Internal.Correction>
0.0002

