#       Name:                EN300-7455669_i001
#       Creating user name   aseyller
#       Creation time:       Fri Apr 21 16:43:05 2023


#       File generated by GOLD software.
#

@<TRIPOS>MOLECULE
EN300-7455669_i001|aminophenols|mol2|102|dock12
    24    24     1
SMALL
USER_CHARGES


@<TRIPOS>ATOM
      1 N1          31.3086  37.2787  36.7497 N.4            1 <1>                1.0000
      2 C2          30.2028  37.4546  37.7007 C.3            1 <1>                0.0000
      3 C3          29.8548  36.1058  38.3335 C.3            1 <1>                0.0000
      4 C4          28.7431  36.2920  39.3336 C.ar           1 <1>                0.0000
      5 C5          28.9733  36.0456  40.6744 C.ar           1 <1>                0.0000
      6 C6          27.9570  36.2144  41.5968 C.ar           1 <1>                0.0000
      7 C7          26.7042  36.6319  41.1788 C.ar           1 <1>                0.0000
      8 O8          25.7037  36.7987  42.0850 O.3            1 <1>                0.0000
      9 C9          26.4714  36.8809  39.8280 C.ar           1 <1>                0.0000
     10 N10         25.2075  37.3029  39.3998 N.pl3          1 <1>                0.0000
     11 C11         27.4973  36.7143  38.9091 C.ar           1 <1>                0.0000
     12 H12         30.5021  38.1553  38.4803 H              1 <1>                0.0000
     13 H13         29.3310  37.8456  37.1760 H              1 <1>                0.0000
     14 H14         29.5323  35.4125  37.5567 H              1 <1>                0.0000
     15 H15         30.7334  35.7035  38.8377 H              1 <1>                0.0000
     16 H16         29.9495  35.7200  41.0023 H              1 <1>                0.0000
     17 H17         28.1399  36.0204  42.6433 H              1 <1>                0.0000
     18 H18         27.3203  36.9065  37.8611 H              1 <1>                0.0000
     19 H19         31.1397  36.4595  36.1854 H              1 <1>                0.0000
     20 H20         31.3720  38.0904  36.1539 H              1 <1>                0.0000
     21 H21         32.1735  37.1653  37.2569 H              1 <1>                0.0000
     22 H22         25.8110  36.2742  42.8903 H              1 <1>                0.0000
     23 H23         24.4922  37.4224  40.0440 H              1 <1>                0.0000
     24 H24         25.0468  37.4759  38.4591 H              1 <1>                0.0000
@<TRIPOS>BOND
    1    1    2 1     
    2    1   19 1     
    3    1   20 1     
    4    1   21 1     
    5    2    3 1     
    6    2   12 1     
    7    2   13 1     
    8    3    4 1     
    9    3   14 1     
   10    3   15 1     
   11    4    5 ar    
   12    4   11 ar    
   13    5    6 ar    
   14    5   16 1     
   15    6    7 ar    
   16    6   17 1     
   17    7    8 1     
   18    7    9 ar    
   19    8   22 1     
   20    9   10 1     
   21    9   11 ar    
   22   10   23 1     
   23   10   24 1     
   24   11   18 1     
@<TRIPOS>SUBSTRUCTURE
      1 ****           1
@<TRIPOS>SET
DONOR_HYDROGENS      STATIC     ATOMS    <user>   **** ""
6 19 20 21 22 23 24
ATOM$RED        STATIC     ATOMS    COLORGROUP SYSTEM
6 19 20 21 22 23 24
@<TRIPOS>COMMENT
> <Gold.Version>
2022.2.0

> <Gold.Id.Protein>
1qkm|1qkm_protein|mol2

> <Gold.Protein.RotatedTorsions>
[  496  491  490  487 ] final   26.53 input  -89.99 | X-H torsion

> <Gold.Protein.ActiveResidues>
 MET295  LEU298  THR299  LEU301  ALA302  GLU305  TRP335  MET336  LEU339  MET340 
 GLY342  LEU343  ARG346  PHE356  ILE373  ILE376  PHE377  LEU380  LYS471  GLY472 
 MET473  HIS475  LEU476  LEU477  ASN478  MET479  VAL484  VAL487 

> <Gold.Protein.RotatedAtoms>
   36.3295   33.8097   42.3750 H   0  0  0  0  0  0  0  0  0  0  0  0  # atno 496  bound_to 491 

> <Gold.Score>
     Score     S(PLP)   S(hbond)     S(cho)   S(metal)  DE(clash)   DE(tors)     intcor
     40.11     -37.14       1.00       0.00       0.00       0.00       0.02       0.00

> <Gold.PLP.Fitness>
40.1069

> <Gold.PLP.PLP>
-37.1355

> <Gold.PLP.part.hbond>
-2.9825

> <Gold.PLP.part.metal>
0.0000

> <Gold.PLP.part.buried>
-3.6941

> <Gold.PLP.part.nonpolar>
-31.7496

> <Gold.PLP.part.repulsive>
0.1178

> <Gold.PLP.ligand.clash>
0.0000

> <Gold.PLP.ligand.torsion>
0.0189

> <Gold.PLP.Chemscore.Hbond>
1.0030

> <Gold.PLP.Chemscore.CHOScore>
0.0000

> <Gold.PLP.Chemscore.Metal>
0.0000

> <Gold.Chemscore.Hbonds>
donor molecule, donor type, donor heavy atom, donor atom, acceptor molecule, acceptor atom, score
      L1  H     8    22       P1   582  1.00

> <Gold.PLP.Chemscore.Internal.Correction>
0.0002

