#       Name:                EN300-7455669_i001
#       Creating user name   aseyller
#       Creation time:       Fri Apr 21 16:42:52 2023


#       File generated by GOLD software.
#

@<TRIPOS>MOLECULE
EN300-7455669_i001
    24    24     1
SMALL
USER_CHARGES


@<TRIPOS>ATOM
      1 N1           3.7571  -0.1681   0.3487 N.4            1 <1>                1.0000
      2 C2           2.3230  -0.0221   0.6318 C.3            1 <1>                0.0000
      3 C3           1.5531   0.1002  -0.6847 C.3            1 <1>                0.0000
      4 C4           0.0820   0.2499  -0.3942 C.ar           1 <1>                0.0000
      5 C5          -0.4630   1.5093  -0.2257 C.ar           1 <1>                0.0000
      6 C6          -1.8121   1.6529   0.0414 C.ar           1 <1>                0.0000
      7 C7          -2.6219   0.5336   0.1405 C.ar           1 <1>                0.0000
      8 O8          -3.9491   0.6734   0.4028 O.3            1 <1>                0.0000
      9 C9          -2.0737  -0.7358  -0.0296 C.ar           1 <1>                0.0000
     10 N10         -2.8871  -1.8705   0.0694 N.pl3          1 <1>                0.0000
     11 C11         -0.7203  -0.8719  -0.3025 C.ar           1 <1>                0.0000
     12 H12          1.9700  -0.8960   1.1794 H              1 <1>                0.0000
     13 H13          2.1605   0.8730   1.2323 H              1 <1>                0.0000
     14 H14          1.9061   0.9740  -1.2322 H              1 <1>                0.0000
     15 H15          1.7156  -0.7949  -1.2851 H              1 <1>                0.0000
     16 H16          0.1668   2.3833  -0.3026 H              1 <1>                0.0000
     17 H17         -2.2345   2.6381   0.1732 H              1 <1>                0.0000
     18 H18         -0.2921  -1.8545  -0.4349 H              1 <1>                0.0000
     19 H19          4.2648  -0.2487   1.2169 H              1 <1>                0.0000
     20 H20          3.9075  -0.9966  -0.2071 H              1 <1>                0.0000
     21 H21          4.0839   0.6409  -0.1582 H              1 <1>                0.0000
     22 H22         -4.4995   0.7577  -0.3878 H              1 <1>                0.0000
     23 H23         -3.8339  -1.7736   0.2567 H              1 <1>                0.0000
     24 H24         -2.5041  -2.7537  -0.0492 H              1 <1>                0.0000
@<TRIPOS>BOND
    1    1    2 1     
    2    1   19 1     
    3    1   20 1     
    4    1   21 1     
    5    2    3 1     
    6    2   12 1     
    7    2   13 1     
    8    3    4 1     
    9    3   14 1     
   10    3   15 1     
   11    4    5 ar    
   12    4   11 ar    
   13    5    6 ar    
   14    5   16 1     
   15    6    7 ar    
   16    6   17 1     
   17    7    8 1     
   18    7    9 ar    
   19    8   22 1     
   20    9   10 1     
   21    9   11 ar    
   22   10   23 1     
   23   10   24 1     
   24   11   18 1     
@<TRIPOS>SUBSTRUCTURE
      1 ****           1
@<TRIPOS>SET
DONOR_HYDROGENS      STATIC     ATOMS    <user>   **** ""
6 19 20 21 22 23 24
ATOM$RED        STATIC     ATOMS    COLORGROUP SYSTEM
6 19 20 21 22 23 24
