#       Name:                EN300-7455669_i001
#       Creating user name   aseyller
#       Creation time:       Fri Apr 21 16:42:55 2023


#       File generated by GOLD software.
#

@<TRIPOS>MOLECULE
EN300-7455669_i001|aminophenols|mol2|102|dock3
    24    24     1
SMALL
USER_CHARGES


@<TRIPOS>ATOM
      1 N1          31.6818  36.6675  37.6355 N.4            1 <1>                1.0000
      2 C2          30.5253  36.3947  38.4993 C.3            1 <1>                0.0000
      3 C3          29.3391  37.2493  38.0484 C.3            1 <1>                0.0000
      4 C4          28.1653  37.0003  38.9601 C.ar           1 <1>                0.0000
      5 C5          26.8807  37.2501  38.5142 C.ar           1 <1>                0.0000
      6 C6          25.7997  37.0239  39.3463 C.ar           1 <1>                0.0000
      7 C7          26.0018  36.5454  40.6303 C.ar           1 <1>                0.0000
      8 O8          24.9395  36.3221  41.4498 O.3            1 <1>                0.0000
      9 C9          27.2959  36.2930  41.0803 C.ar           1 <1>                0.0000
     10 N10         27.5063  35.8094  42.3768 N.pl3          1 <1>                0.0000
     11 C11         28.3752  36.5174  40.2380 C.ar           1 <1>                0.0000
     12 H12         30.2605  35.3396  38.4294 H              1 <1>                0.0000
     13 H13         30.7773  36.6385  39.5314 H              1 <1>                0.0000
     14 H14         29.6140  38.3032  38.0896 H              1 <1>                0.0000
     15 H15         29.0680  36.9842  37.0264 H              1 <1>                0.0000
     16 H16         26.7210  37.6232  37.5133 H              1 <1>                0.0000
     17 H17         24.7976  37.2207  38.9952 H              1 <1>                0.0000
     18 H18         29.3798  36.3228  40.5837 H              1 <1>                0.0000
     19 H19         32.4331  36.0361  37.8700 H              1 <1>                0.0000
     20 H20         31.4195  36.5345  36.6704 H              1 <1>                0.0000
     21 H21         31.9872  37.6193  37.7729 H              1 <1>                0.0000
     22 H22         24.1628  35.9645  40.9982 H              1 <1>                0.0000
     23 H23         26.7504  35.6496  42.9633 H              1 <1>                0.0000
     24 H24         28.4078  35.6342  42.6888 H              1 <1>                0.0000
@<TRIPOS>BOND
    1    1    2 1     
    2    1   19 1     
    3    1   20 1     
    4    1   21 1     
    5    2    3 1     
    6    2   12 1     
    7    2   13 1     
    8    3    4 1     
    9    3   14 1     
   10    3   15 1     
   11    4    5 ar    
   12    4   11 ar    
   13    5    6 ar    
   14    5   16 1     
   15    6    7 ar    
   16    6   17 1     
   17    7    8 1     
   18    7    9 ar    
   19    8   22 1     
   20    9   10 1     
   21    9   11 ar    
   22   10   23 1     
   23   10   24 1     
   24   11   18 1     
@<TRIPOS>SUBSTRUCTURE
      1 ****           1
@<TRIPOS>SET
DONOR_HYDROGENS      STATIC     ATOMS    <user>   **** ""
6 19 20 21 22 23 24
ATOM$RED        STATIC     ATOMS    COLORGROUP SYSTEM
6 19 20 21 22 23 24
@<TRIPOS>COMMENT
> <Gold.Version>
2022.2.0

> <Gold.Id.Protein>
1qkm|1qkm_protein|mol2

> <Gold.Protein.RotatedTorsions>
[  496  491  490  487 ] final  -88.25 input  -89.99 | X-H torsion

> <Gold.Protein.ActiveResidues>
 MET295  LEU298  THR299  LEU301  ALA302  GLU305  TRP335  MET336  LEU339  MET340 
 GLY342  LEU343  ARG346  PHE356  ILE373  ILE376  PHE377  LEU380  LYS471  GLY472 
 MET473  HIS475  LEU476  LEU477  ASN478  MET479  VAL484  VAL487 

> <Gold.Protein.RotatedAtoms>
   36.7412   34.6644   41.1003 H   0  0  0  0  0  0  0  0  0  0  0  0  # atno 496  bound_to 491 

> <Gold.Score>
     Score     S(PLP)   S(hbond)     S(cho)   S(metal)  DE(clash)   DE(tors)     intcor
     44.59     -39.30       1.98       0.00       0.00       0.00       0.33       0.00

> <Gold.PLP.Fitness>
44.5893

> <Gold.PLP.PLP>
-39.3006

> <Gold.PLP.part.hbond>
-3.0743

> <Gold.PLP.part.metal>
0.0000

> <Gold.PLP.part.buried>
-3.9848

> <Gold.PLP.part.nonpolar>
-32.8868

> <Gold.PLP.part.repulsive>
0.0671

> <Gold.PLP.ligand.clash>
0.0000

> <Gold.PLP.ligand.torsion>
0.3310

> <Gold.PLP.Chemscore.Hbond>
1.9833

> <Gold.PLP.Chemscore.CHOScore>
0.0000

> <Gold.PLP.Chemscore.Metal>
0.0000

> <Gold.Chemscore.Hbonds>
donor molecule, donor type, donor heavy atom, donor atom, acceptor molecule, acceptor atom, score
      L1  H     8    22       P1  1131  1.00
      L1  H    10    23       P1   582  0.84
      P1  H  1258  1270       L1     8  0.14

> <Gold.PLP.Chemscore.Internal.Correction>
0.0010

