#       Name:                EN300-7455669_i001
#       Creating user name   aseyller
#       Creation time:       Fri Apr 21 16:43:06 2023


#       File generated by GOLD software.
#

@<TRIPOS>MOLECULE
EN300-7455669_i001|aminophenols|mol2|102|dock14
    24    24     1
SMALL
USER_CHARGES


@<TRIPOS>ATOM
      1 N1          30.0195  38.2819  36.9013 N.4            1 <1>                1.0000
      2 C2          28.7274  38.8702  37.2787 C.3            1 <1>                0.0000
      3 C3          27.6705  37.7673  37.3649 C.3            1 <1>                0.0000
      4 C4          27.7552  37.0945  38.7106 C.ar           1 <1>                0.0000
      5 C5          28.9698  36.6184  39.1684 C.ar           1 <1>                0.0000
      6 C6          29.0536  35.9999  40.4023 C.ar           1 <1>                0.0000
      7 C7          27.9191  35.8561  41.1839 C.ar           1 <1>                0.0000
      8 O8          28.0002  35.2482  42.3979 O.3            1 <1>                0.0000
      9 C9          26.6949  36.3359  40.7236 C.ar           1 <1>                0.0000
     10 N10         25.5452  36.1934  41.5090 N.pl3          1 <1>                0.0000
     11 C11         26.6194  36.9600  39.4869 C.ar           1 <1>                0.0000
     12 H12         28.8207  39.3606  38.2477 H              1 <1>                0.0000
     13 H13         28.4284  39.6022  36.5283 H              1 <1>                0.0000
     14 H14         26.6795  38.2030  37.2382 H              1 <1>                0.0000
     15 H15         27.8475  37.0324  36.5795 H              1 <1>                0.0000
     16 H16         29.8555  36.7296  38.5605 H              1 <1>                0.0000
     17 H17         30.0038  35.6284  40.7566 H              1 <1>                0.0000
     18 H18         25.6720  37.3332  39.1271 H              1 <1>                0.0000
     19 H19         29.9120  37.7530  36.0488 H              1 <1>                0.0000
     20 H20         30.6949  39.0176  36.7579 H              1 <1>                0.0000
     21 H21         30.3389  37.6710  37.6381 H              1 <1>                0.0000
     22 H22         27.1425  35.0810  42.8120 H              1 <1>                0.0000
     23 H23         25.6002  35.7601  42.3751 H              1 <1>                0.0000
     24 H24         24.6935  36.5279  41.1873 H              1 <1>                0.0000
@<TRIPOS>BOND
    1    1    2 1     
    2    1   19 1     
    3    1   20 1     
    4    1   21 1     
    5    2    3 1     
    6    2   12 1     
    7    2   13 1     
    8    3    4 1     
    9    3   14 1     
   10    3   15 1     
   11    4    5 ar    
   12    4   11 ar    
   13    5    6 ar    
   14    5   16 1     
   15    6    7 ar    
   16    6   17 1     
   17    7    8 1     
   18    7    9 ar    
   19    8   22 1     
   20    9   10 1     
   21    9   11 ar    
   22   10   23 1     
   23   10   24 1     
   24   11   18 1     
@<TRIPOS>SUBSTRUCTURE
      1 ****           1
@<TRIPOS>SET
DONOR_HYDROGENS      STATIC     ATOMS    <user>   **** ""
6 19 20 21 22 23 24
ATOM$RED        STATIC     ATOMS    COLORGROUP SYSTEM
6 19 20 21 22 23 24
@<TRIPOS>COMMENT
> <Gold.Version>
2022.2.0

> <Gold.Id.Protein>
1qkm|1qkm_protein|mol2

> <Gold.Protein.RotatedTorsions>
[  496  491  490  487 ] final   33.48 input  -89.99 | X-H torsion

> <Gold.Protein.ActiveResidues>
 MET295  LEU298  THR299  LEU301  ALA302  GLU305  TRP335  MET336  LEU339  MET340 
 GLY342  LEU343  ARG346  PHE356  ILE373  ILE376  PHE377  LEU380  LYS471  GLY472 
 MET473  HIS475  LEU476  LEU477  ASN478  MET479  VAL484  VAL487 

> <Gold.Protein.RotatedAtoms>
   36.3649   33.7012   42.3831 H   0  0  0  0  0  0  0  0  0  0  0  0  # atno 496  bound_to 491 

> <Gold.Score>
     Score     S(PLP)   S(hbond)     S(cho)   S(metal)  DE(clash)   DE(tors)     intcor
     41.92     -36.29       2.00       0.00       0.00       0.00       0.18       0.00

> <Gold.PLP.Fitness>
41.9169

> <Gold.PLP.PLP>
-36.2863

> <Gold.PLP.part.hbond>
-2.2115

> <Gold.PLP.part.metal>
0.0000

> <Gold.PLP.part.buried>
-3.8552

> <Gold.PLP.part.nonpolar>
-30.8789

> <Gold.PLP.part.repulsive>
0.0917

> <Gold.PLP.ligand.clash>
0.0000

> <Gold.PLP.ligand.torsion>
0.1848

> <Gold.PLP.Chemscore.Hbond>
2.0000

> <Gold.PLP.Chemscore.CHOScore>
0.0000

> <Gold.PLP.Chemscore.Metal>
0.0000

> <Gold.Chemscore.Hbonds>
donor molecule, donor type, donor heavy atom, donor atom, acceptor molecule, acceptor atom, score
      L1  H     8    22       P1   582  1.00
      L1  H    10    23       P1   582  1.00

> <Gold.PLP.Chemscore.Internal.Correction>
0.0002

