#       Name:                EN300-27088_i001
#       Creating user name   aseyller
#       Creation time:       Fri Apr 21 18:47:11 2023


#       File generated by GOLD software.
#

@<TRIPOS>MOLECULE
EN300-27088_i001|benzaldehydes|mol2|625|dock12
    27    28     1
SMALL
USER_CHARGES


@<TRIPOS>ATOM
      1 Br1         34.1604  36.4008  35.2062 Br             1 <1>                0.0000
      2 C2          32.5164  36.9634  35.9522 C.ar           1 <1>                0.0000
      3 C3          31.6831  36.0381  36.5632 C.ar           1 <1>                0.0000
      4 C4          30.4801  36.4350  37.1119 C.ar           1 <1>                0.0000
      5 C5          30.0951  37.7662  37.0557 C.ar           1 <1>                0.0000
      6 O6          28.9136  38.1570  37.5944 O.3            1 <1>                0.0000
      7 C7          27.8548  37.1974  37.6013 C.3            1 <1>                0.0000
      8 C8          27.3461  37.0208  39.0089 C.ar           1 <1>                0.0000
      9 C9          28.2291  36.6826  40.0171 C.ar           1 <1>                0.0000
     10 C10         27.7511  36.5230  41.3084 C.ar           1 <1>                0.0000
     11 C11         26.3965  36.7107  41.5386 C.ar           1 <1>                0.0000
     12 C12         25.5741  37.0481  40.4807 C.ar           1 <1>                0.0000
     13 N13         26.0647  37.1964  39.2655 N.ar           1 <1>                0.0000
     14 C14         30.9351  38.7076  36.4387 C.ar           1 <1>                0.0000
     15 C15         30.5394  40.1196  36.3729 C.2            1 <1>                0.0000
     16 O16         29.3998  40.4429  36.6343 O.2            1 <1>                0.0000
     17 C17         32.1546  38.2912  35.8911 C.ar           1 <1>                0.0000
     18 H18         31.9773  35.0000  36.6098 H              1 <1>                0.0000
     19 H19         29.8376  35.7076  37.5854 H              1 <1>                0.0000
     20 H20         27.0434  37.5469  36.9629 H              1 <1>                0.0000
     21 H21         28.2265  36.2435  37.2271 H              1 <1>                0.0000
     22 H22         29.2782  36.5438  39.8013 H              1 <1>                0.0000
     23 H23         28.4177  36.2586  42.1160 H              1 <1>                0.0000
     24 H24         25.9894  36.5944  42.5321 H              1 <1>                0.0000
     25 H25         24.5180  37.1960  40.6516 H              1 <1>                0.0000
     26 H26         31.2627  40.8706  36.0918 H              1 <1>                0.0000
     27 H27         32.8069  39.0084  35.4151 H              1 <1>                0.0000
@<TRIPOS>BOND
    1    1    2 1     
    2    2    3 ar    
    3    2   17 ar    
    4    3    4 ar    
    5    3   18 1     
    6    4    5 ar    
    7    4   19 1     
    8    5    6 1     
    9    5   14 ar    
   10    6    7 1     
   11    7    8 1     
   12    7   20 1     
   13    7   21 1     
   14    8    9 ar    
   15    8   13 ar    
   16    9   10 ar    
   17    9   22 1     
   18   10   11 ar    
   19   10   23 1     
   20   11   12 ar    
   21   11   24 1     
   22   12   13 ar    
   23   12   25 1     
   24   14   15 1     
   25   14   17 ar    
   26   15   16 2     
   27   15   26 1     
   28   17   27 1     
@<TRIPOS>SUBSTRUCTURE
      1 ****           1
@<TRIPOS>COMMENT
> <Gold.Version>
2022.2.0

> <Gold.Id.Protein>
1qkm|1qkm_protein|mol2

> <Gold.Protein.RotatedTorsions>
[  496  491  490  487 ] final  -58.54 input  -89.99 | X-H torsion

> <Gold.Protein.ActiveResidues>
 MET295  LEU298  THR299  LEU301  ALA302  GLU305  TRP335  MET336  LEU339  MET340 
 GLY342  LEU343  ARG346  PHE356  ILE373  ILE376  PHE377  LEU380  LYS471  GLY472 
 MET473  HIS475  LEU476  LEU477  ASN478  MET479  VAL484  VAL487 

> <Gold.Protein.RotatedAtoms>
   36.4858   34.7296   41.5058 H   0  0  0  0  0  0  0  0  0  0  0  0  # atno 496  bound_to 491 

> <Gold.Score>
     Score     S(PLP)   S(hbond)     S(cho)   S(metal)  DE(clash)   DE(tors)     intcor
     53.47     -51.40       0.00       1.00       0.00       0.00       0.81       0.68

> <Gold.PLP.Fitness>
53.4727

> <Gold.PLP.PLP>
-51.4031

> <Gold.PLP.part.hbond>
0.0000

> <Gold.PLP.part.metal>
0.0000

> <Gold.PLP.part.buried>
-4.2201

> <Gold.PLP.part.nonpolar>
-47.9800

> <Gold.PLP.part.repulsive>
0.0636

> <Gold.PLP.ligand.clash>
0.0000

> <Gold.PLP.ligand.torsion>
0.8052

> <Gold.PLP.Chemscore.Hbond>
0.0000

> <Gold.PLP.Chemscore.CHOScore>
0.9986

> <Gold.PLP.Chemscore.Metal>
0.0000

> <Gold.Chemscore.Hbonds>
donor molecule, donor type, donor heavy atom, donor atom, acceptor molecule, acceptor atom, score
      L1  C    12    25       P1  1131  1.00

> <Gold.PLP.Chemscore.Internal.Correction>
0.6841

