#       Name:                EN300-27088_i001
#       Creating user name   aseyller
#       Creation time:       Fri Apr 21 18:47:13 2023


#       File generated by GOLD software.
#

@<TRIPOS>MOLECULE
EN300-27088_i001|benzaldehydes|mol2|625|dock15
    27    28     1
SMALL
USER_CHARGES


@<TRIPOS>ATOM
      1 Br1         25.1177  37.1292  41.5039 Br             1 <1>                0.0000
      2 C2          26.4762  36.9607  40.1993 C.ar           1 <1>                0.0000
      3 C3          26.3186  37.5582  38.9576 C.ar           1 <1>                0.0000
      4 C4          27.3023  37.4432  37.9959 C.ar           1 <1>                0.0000
      5 C5          28.4589  36.7271  38.2657 C.ar           1 <1>                0.0000
      6 O6          29.4258  36.6136  37.3217 O.3            1 <1>                0.0000
      7 C7          29.5582  37.6938  36.3955 C.3            1 <1>                0.0000
      8 C8          30.8689  37.5690  35.6623 C.ar           1 <1>                0.0000
      9 C9          31.1877  38.4800  34.6729 C.ar           1 <1>                0.0000
     10 C10         32.3961  38.3566  34.0049 C.ar           1 <1>                0.0000
     11 C11         33.2426  37.3168  34.3588 C.ar           1 <1>                0.0000
     12 C12         32.8563  36.4444  35.3583 C.ar           1 <1>                0.0000
     13 N13         31.7008  36.5953  35.9760 N.ar           1 <1>                0.0000
     14 C14         28.6242  36.1204  39.5215 C.ar           1 <1>                0.0000
     15 C15         29.8439  35.3601  39.8198 C.2            1 <1>                0.0000
     16 O16         30.7183  35.2642  38.9845 O.2            1 <1>                0.0000
     17 C17         27.6202  36.2499  40.4888 C.ar           1 <1>                0.0000
     18 H18         25.4199  38.1168  38.7414 H              1 <1>                0.0000
     19 H19         27.1708  37.9114  37.0317 H              1 <1>                0.0000
     20 H20         28.7369  37.6614  35.6796 H              1 <1>                0.0000
     21 H21         29.5326  38.6404  36.9353 H              1 <1>                0.0000
     22 H22         30.5038  39.2776  34.4231 H              1 <1>                0.0000
     23 H23         32.6716  39.0535  33.2272 H              1 <1>                0.0000
     24 H24         34.1917  37.1902  33.8592 H              1 <1>                0.0000
     25 H25         33.5099  35.6320  35.6398 H              1 <1>                0.0000
     26 H26         29.9627  34.8859  40.7828 H              1 <1>                0.0000
     27 H27         27.7391  35.7871  41.4573 H              1 <1>                0.0000
@<TRIPOS>BOND
    1    1    2 1     
    2    2    3 ar    
    3    2   17 ar    
    4    3    4 ar    
    5    3   18 1     
    6    4    5 ar    
    7    4   19 1     
    8    5    6 1     
    9    5   14 ar    
   10    6    7 1     
   11    7    8 1     
   12    7   20 1     
   13    7   21 1     
   14    8    9 ar    
   15    8   13 ar    
   16    9   10 ar    
   17    9   22 1     
   18   10   11 ar    
   19   10   23 1     
   20   11   12 ar    
   21   11   24 1     
   22   12   13 ar    
   23   12   25 1     
   24   14   15 1     
   25   14   17 ar    
   26   15   16 2     
   27   15   26 1     
   28   17   27 1     
@<TRIPOS>SUBSTRUCTURE
      1 ****           1
@<TRIPOS>COMMENT
> <Gold.Version>
2022.2.0

> <Gold.Id.Protein>
1qkm|1qkm_protein|mol2

> <Gold.Protein.RotatedTorsions>
[  496  491  490  487 ] final   66.00 input  -89.99 | X-H torsion

> <Gold.Protein.ActiveResidues>
 MET295  LEU298  THR299  LEU301  ALA302  GLU305  TRP335  MET336  LEU339  MET340 
 GLY342  LEU343  ARG346  PHE356  ILE373  ILE376  PHE377  LEU380  LYS471  GLY472 
 MET473  HIS475  LEU476  LEU477  ASN478  MET479  VAL484  VAL487 

> <Gold.Protein.RotatedAtoms>
   36.6023   33.2454   42.2617 H   0  0  0  0  0  0  0  0  0  0  0  0  # atno 496  bound_to 491 

> <Gold.Score>
     Score     S(PLP)   S(hbond)     S(cho)   S(metal)  DE(clash)   DE(tors)     intcor
     52.22     -52.40       0.00       0.00       0.00       0.00       0.43       0.68

> <Gold.PLP.Fitness>
52.2185

> <Gold.PLP.PLP>
-52.4001

> <Gold.PLP.part.hbond>
0.0000

> <Gold.PLP.part.metal>
0.0000

> <Gold.PLP.part.buried>
2.5982

> <Gold.PLP.part.nonpolar>
-56.1135

> <Gold.PLP.part.repulsive>
0.1302

> <Gold.PLP.ligand.clash>
0.0000

> <Gold.PLP.ligand.torsion>
0.4328

> <Gold.PLP.Chemscore.Hbond>
0.0000

> <Gold.PLP.Chemscore.CHOScore>
0.0000

> <Gold.PLP.Chemscore.Metal>
0.0000

> <Gold.PLP.Chemscore.Internal.Correction>
0.6841

