#       Name:                EN300-27088_i001
#       Creating user name   aseyller
#       Creation time:       Fri Apr 21 18:47:15 2023


#       File generated by GOLD software.
#

@<TRIPOS>MOLECULE
EN300-27088_i001|benzaldehydes|mol2|625|dock17
    27    28     1
SMALL
USER_CHARGES


@<TRIPOS>ATOM
      1 Br1         34.3876  36.5414  35.1995 Br             1 <1>                0.0000
      2 C2          33.0180  36.1977  36.4572 C.ar           1 <1>                0.0000
      3 C3          32.2314  37.2406  36.9233 C.ar           1 <1>                0.0000
      4 C4          31.2281  37.0040  37.8416 C.ar           1 <1>                0.0000
      5 C5          30.9989  35.7174  38.3058 C.ar           1 <1>                0.0000
      6 O6          30.0136  35.4839  39.2078 O.3            1 <1>                0.0000
      7 C7          29.6993  36.5433  40.1140 C.3            1 <1>                0.0000
      8 C8          28.2034  36.7057  40.1975 C.ar           1 <1>                0.0000
      9 C9          27.5755  36.6301  41.4265 C.ar           1 <1>                0.0000
     10 C10         26.1992  36.7814  41.4924 C.ar           1 <1>                0.0000
     11 C11         25.5025  37.0041  40.3142 C.ar           1 <1>                0.0000
     12 C12         26.1985  37.0675  39.1222 C.ar           1 <1>                0.0000
     13 N13         27.5093  36.9238  39.0978 N.ar           1 <1>                0.0000
     14 C14         31.7919  34.6573  37.8369 C.ar           1 <1>                0.0000
     15 C15         31.5593  33.2909  38.3201 C.2            1 <1>                0.0000
     16 O16         30.5346  33.0229  38.9114 O.2            1 <1>                0.0000
     17 C17         32.8025  34.9117  36.9018 C.ar           1 <1>                0.0000
     18 H18         32.4052  38.2448  36.5658 H              1 <1>                0.0000
     19 H19         30.6208  37.8222  38.1992 H              1 <1>                0.0000
     20 H20         30.0947  36.3059  41.1016 H              1 <1>                0.0000
     21 H21         30.1461  37.4713  39.7571 H              1 <1>                0.0000
     22 H22         28.1500  36.4550  42.3242 H              1 <1>                0.0000
     23 H23         25.6816  36.7267  42.4388 H              1 <1>                0.0000
     24 H24         24.4296  37.1263  40.3281 H              1 <1>                0.0000
     25 H25         25.6634  37.2406  38.2002 H              1 <1>                0.0000
     26 H26         32.3005  32.5242  38.1493 H              1 <1>                0.0000
     27 H27         33.4168  34.1025  36.5355 H              1 <1>                0.0000
@<TRIPOS>BOND
    1    1    2 1     
    2    2    3 ar    
    3    2   17 ar    
    4    3    4 ar    
    5    3   18 1     
    6    4    5 ar    
    7    4   19 1     
    8    5    6 1     
    9    5   14 ar    
   10    6    7 1     
   11    7    8 1     
   12    7   20 1     
   13    7   21 1     
   14    8    9 ar    
   15    8   13 ar    
   16    9   10 ar    
   17    9   22 1     
   18   10   11 ar    
   19   10   23 1     
   20   11   12 ar    
   21   11   24 1     
   22   12   13 ar    
   23   12   25 1     
   24   14   15 1     
   25   14   17 ar    
   26   15   16 2     
   27   15   26 1     
   28   17   27 1     
@<TRIPOS>SUBSTRUCTURE
      1 ****           1
@<TRIPOS>COMMENT
> <Gold.Version>
2022.2.0

> <Gold.Id.Protein>
1qkm|1qkm_protein|mol2

> <Gold.Protein.RotatedTorsions>
[  496  491  490  487 ] final  151.81 input  -89.99 | X-H torsion

> <Gold.Protein.ActiveResidues>
 MET295  LEU298  THR299  LEU301  ALA302  GLU305  TRP335  MET336  LEU339  MET340 
 GLY342  LEU343  ARG346  PHE356  ILE373  ILE376  PHE377  LEU380  LYS471  GLY472 
 MET473  HIS475  LEU476  LEU477  ASN478  MET479  VAL484  VAL487 

> <Gold.Protein.RotatedAtoms>
   37.2700   33.1209   41.1718 H   0  0  0  0  0  0  0  0  0  0  0  0  # atno 496  bound_to 491 

> <Gold.Score>
     Score     S(PLP)   S(hbond)     S(cho)   S(metal)  DE(clash)   DE(tors)     intcor
     52.85     -53.68       0.00       0.00       0.00       0.00       0.76       0.68

> <Gold.PLP.Fitness>
52.8453

> <Gold.PLP.PLP>
-53.6843

> <Gold.PLP.part.hbond>
0.0000

> <Gold.PLP.part.metal>
0.0000

> <Gold.PLP.part.buried>
1.4826

> <Gold.PLP.part.nonpolar>
-55.8300

> <Gold.PLP.part.repulsive>
0.1401

> <Gold.PLP.ligand.clash>
0.0000

> <Gold.PLP.ligand.torsion>
0.7615

> <Gold.PLP.Chemscore.Hbond>
0.0000

> <Gold.PLP.Chemscore.CHOScore>
0.0000

> <Gold.PLP.Chemscore.Metal>
0.0000

> <Gold.PLP.Chemscore.Internal.Correction>
0.6841

