#       Name:                EN300-27088_i001
#       Creating user name   aseyller
#       Creation time:       Fri Apr 21 18:47:18 2023


#       File generated by GOLD software.
#

@<TRIPOS>MOLECULE
EN300-27088_i001|benzaldehydes|mol2|625|dock20
    27    28     1
SMALL
USER_CHARGES


@<TRIPOS>ATOM
      1 Br1         32.3975  38.2702  34.0002 Br             1 <1>                0.0000
      2 C2          31.5023  37.4940  35.4740 C.ar           1 <1>                0.0000
      3 C3          30.1792  37.8228  35.7291 C.ar           1 <1>                0.0000
      4 C4          29.5136  37.2637  36.8015 C.ar           1 <1>                0.0000
      5 C5          30.1655  36.3663  37.6340 C.ar           1 <1>                0.0000
      6 O6          29.5125  35.8165  38.6877 O.3            1 <1>                0.0000
      7 C7          28.1010  35.6372  38.5544 C.3            1 <1>                0.0000
      8 C8          27.4085  36.1737  39.7806 C.ar           1 <1>                0.0000
      9 C9          28.1109  36.2923  40.9652 C.ar           1 <1>                0.0000
     10 C10         27.4647  36.7873  42.0871 C.ar           1 <1>                0.0000
     11 C11         26.1299  37.1465  41.9753 C.ar           1 <1>                0.0000
     12 C12         25.4929  37.0000  40.7578 C.ar           1 <1>                0.0000
     13 N13         26.1409  36.5300  39.7097 N.ar           1 <1>                0.0000
     14 C14         31.5051  36.0293  37.3803 C.ar           1 <1>                0.0000
     15 C15         32.2063  35.0805  38.2537 C.2            1 <1>                0.0000
     16 O16         31.5839  34.2149  38.8322 O.2            1 <1>                0.0000
     17 C17         32.1657  36.6004  36.2858 C.ar           1 <1>                0.0000
     18 H18         29.6663  38.5213  35.0845 H              1 <1>                0.0000
     19 H19         28.4835  37.5257  36.9926 H              1 <1>                0.0000
     20 H20         27.7481  36.1739  37.6737 H              1 <1>                0.0000
     21 H21         27.8782  34.5757  38.4466 H              1 <1>                0.0000
     22 H22         29.1500  36.0023  41.0160 H              1 <1>                0.0000
     23 H23         27.9881  36.8906  43.0262 H              1 <1>                0.0000
     24 H24         25.5949  37.5356  42.8290 H              1 <1>                0.0000
     25 H25         24.4536  37.2775  40.6624 H              1 <1>                0.0000
     26 H26         33.2762  35.1532  38.3812 H              1 <1>                0.0000
     27 H27         33.1957  36.3467  36.0830 H              1 <1>                0.0000
@<TRIPOS>BOND
    1    1    2 1     
    2    2    3 ar    
    3    2   17 ar    
    4    3    4 ar    
    5    3   18 1     
    6    4    5 ar    
    7    4   19 1     
    8    5    6 1     
    9    5   14 ar    
   10    6    7 1     
   11    7    8 1     
   12    7   20 1     
   13    7   21 1     
   14    8    9 ar    
   15    8   13 ar    
   16    9   10 ar    
   17    9   22 1     
   18   10   11 ar    
   19   10   23 1     
   20   11   12 ar    
   21   11   24 1     
   22   12   13 ar    
   23   12   25 1     
   24   14   15 1     
   25   14   17 ar    
   26   15   16 2     
   27   15   26 1     
   28   17   27 1     
@<TRIPOS>SUBSTRUCTURE
      1 ****           1
@<TRIPOS>COMMENT
> <Gold.Version>
2022.2.0

> <Gold.Id.Protein>
1qkm|1qkm_protein|mol2

> <Gold.Protein.RotatedTorsions>
[  496  491  490  487 ] final  -33.95 input  -89.99 | X-H torsion

> <Gold.Protein.ActiveResidues>
 MET295  LEU298  THR299  LEU301  ALA302  GLU305  TRP335  MET336  LEU339  MET340 
 GLY342  LEU343  ARG346  PHE356  ILE373  ILE376  PHE377  LEU380  LYS471  GLY472 
 MET473  HIS475  LEU476  LEU477  ASN478  MET479  VAL484  VAL487 

> <Gold.Protein.RotatedAtoms>
   36.3323   34.6051   41.8555 H   0  0  0  0  0  0  0  0  0  0  0  0  # atno 496  bound_to 491 

> <Gold.Score>
     Score     S(PLP)   S(hbond)     S(cho)   S(metal)  DE(clash)   DE(tors)     intcor
     50.29     -49.12       0.00       0.97       0.00       0.00       1.21       0.68

> <Gold.PLP.Fitness>
50.2924

> <Gold.PLP.PLP>
-49.1222

> <Gold.PLP.part.hbond>
0.0000

> <Gold.PLP.part.metal>
0.0000

> <Gold.PLP.part.buried>
-2.7698

> <Gold.PLP.part.nonpolar>
-46.9679

> <Gold.PLP.part.repulsive>
0.2278

> <Gold.PLP.ligand.clash>
0.0000

> <Gold.PLP.ligand.torsion>
1.2120

> <Gold.PLP.Chemscore.Hbond>
0.0000

> <Gold.PLP.Chemscore.CHOScore>
0.9701

> <Gold.PLP.Chemscore.Metal>
0.0000

> <Gold.Chemscore.Hbonds>
donor molecule, donor type, donor heavy atom, donor atom, acceptor molecule, acceptor atom, score
      L1  C    12    25       P1  1131  0.97

> <Gold.PLP.Chemscore.Internal.Correction>
0.6841

