#       Name:                EN300-27088_i001
#       Creating user name   aseyller
#       Creation time:       Fri Apr 21 18:47:04 2023


#       File generated by GOLD software.
#

@<TRIPOS>MOLECULE
EN300-27088_i001|benzaldehydes|mol2|625|dock5
    27    28     1
SMALL
USER_CHARGES


@<TRIPOS>ATOM
      1 Br1         34.5457  36.4065  35.2117 Br             1 <1>                0.0000
      2 C2          32.9430  36.5721  36.2017 C.ar           1 <1>                0.0000
      3 C3          32.5876  35.5856  37.1097 C.ar           1 <1>                0.0000
      4 C4          31.4205  35.6937  37.8390 C.ar           1 <1>                0.0000
      5 C5          30.5925  36.7932  37.6683 C.ar           1 <1>                0.0000
      6 O6          29.4459  36.9002  38.3843 O.3            1 <1>                0.0000
      7 C7          29.3823  36.1828  39.6186 C.3            1 <1>                0.0000
      8 C8          28.0714  36.4746  40.3022 C.ar           1 <1>                0.0000
      9 C9          28.0390  36.6451  41.6735 C.ar           1 <1>                0.0000
     10 C10         26.8281  36.9136  42.2925 C.ar           1 <1>                0.0000
     11 C11         25.6897  37.0010  41.5055 C.ar           1 <1>                0.0000
     12 C12         25.7994  36.8189  40.1401 C.ar           1 <1>                0.0000
     13 N13         26.9693  36.5697  39.5846 N.ar           1 <1>                0.0000
     14 C14         30.9476  37.7954  36.7507 C.ar           1 <1>                0.0000
     15 C15         30.0802  38.9642  36.5610 C.2            1 <1>                0.0000
     16 O16         30.4360  39.8729  35.8405 O.2            1 <1>                0.0000
     17 C17         32.1370  37.6747  36.0218 C.ar           1 <1>                0.0000
     18 H18         33.2281  34.7269  37.2467 H              1 <1>                0.0000
     19 H19         31.1516  34.9207  38.5435 H              1 <1>                0.0000
     20 H20         29.4595  35.1136  39.4218 H              1 <1>                0.0000
     21 H21         30.2050  36.4941  40.2625 H              1 <1>                0.0000
     22 H22         28.9457  36.5696  42.2554 H              1 <1>                0.0000
     23 H23         26.7725  37.0511  43.3623 H              1 <1>                0.0000
     24 H24         24.7294  37.2085  41.9540 H              1 <1>                0.0000
     25 H25         24.9175  36.8854  39.5201 H              1 <1>                0.0000
     26 H26         29.1253  39.0152  37.0630 H              1 <1>                0.0000
     27 H27         32.4181  38.4407  35.3143 H              1 <1>                0.0000
@<TRIPOS>BOND
    1    1    2 1     
    2    2    3 ar    
    3    2   17 ar    
    4    3    4 ar    
    5    3   18 1     
    6    4    5 ar    
    7    4   19 1     
    8    5    6 1     
    9    5   14 ar    
   10    6    7 1     
   11    7    8 1     
   12    7   20 1     
   13    7   21 1     
   14    8    9 ar    
   15    8   13 ar    
   16    9   10 ar    
   17    9   22 1     
   18   10   11 ar    
   19   10   23 1     
   20   11   12 ar    
   21   11   24 1     
   22   12   13 ar    
   23   12   25 1     
   24   14   15 1     
   25   14   17 ar    
   26   15   16 2     
   27   15   26 1     
   28   17   27 1     
@<TRIPOS>SUBSTRUCTURE
      1 ****           1
@<TRIPOS>COMMENT
> <Gold.Version>
2022.2.0

> <Gold.Id.Protein>
1qkm|1qkm_protein|mol2

> <Gold.Protein.RotatedTorsions>
[  496  491  490  487 ] final  -55.62 input  -89.99 | X-H torsion

> <Gold.Protein.ActiveResidues>
 MET295  LEU298  THR299  LEU301  ALA302  GLU305  TRP335  MET336  LEU339  MET340 
 GLY342  LEU343  ARG346  PHE356  ILE373  ILE376  PHE377  LEU380  LYS471  GLY472 
 MET473  HIS475  LEU476  LEU477  ASN478  MET479  VAL484  VAL487 

> <Gold.Protein.RotatedAtoms>
   36.4641   34.7231   41.5482 H   0  0  0  0  0  0  0  0  0  0  0  0  # atno 496  bound_to 491 

> <Gold.Score>
     Score     S(PLP)   S(hbond)     S(cho)   S(metal)  DE(clash)   DE(tors)     intcor
     53.17     -52.17       0.00       0.53       0.00       0.01       0.63       0.68

> <Gold.PLP.Fitness>
53.1708

> <Gold.PLP.PLP>
-52.1729

> <Gold.PLP.part.hbond>
0.0000

> <Gold.PLP.part.metal>
0.0000

> <Gold.PLP.part.buried>
-2.6136

> <Gold.PLP.part.nonpolar>
-49.6217

> <Gold.PLP.part.repulsive>
0.0466

> <Gold.PLP.ligand.clash>
0.0149

> <Gold.PLP.ligand.torsion>
0.6345

> <Gold.PLP.Chemscore.Hbond>
0.0000

> <Gold.PLP.Chemscore.CHOScore>
0.5325

> <Gold.PLP.Chemscore.Metal>
0.0000

> <Gold.Chemscore.Hbonds>
donor molecule, donor type, donor heavy atom, donor atom, acceptor molecule, acceptor atom, score
      L1  C    12    25       P1  1131  0.53

> <Gold.PLP.Chemscore.Internal.Correction>
0.6841

