#       Name:                EN300-27088_i001
#       Creating user name   aseyller
#       Creation time:       Fri Apr 21 18:47:11 2023


#       File generated by GOLD software.
#

@<TRIPOS>MOLECULE
EN300-27088_i001|benzaldehydes|mol2|625|dock13
    27    28     1
SMALL
USER_CHARGES


@<TRIPOS>ATOM
      1 Br1         25.1471  35.9620  41.8013 Br             1 <1>                0.0000
      2 C2          26.6281  36.3758  40.7007 C.ar           1 <1>                0.0000
      3 C3          27.8956  35.9388  41.0562 C.ar           1 <1>                0.0000
      4 C4          28.9856  36.2338  40.2620 C.ar           1 <1>                0.0000
      5 C5          28.8203  36.9715  39.0993 C.ar           1 <1>                0.0000
      6 O6          29.8904  37.2618  38.3186 O.3            1 <1>                0.0000
      7 C7          31.0264  36.4019  38.4292 C.3            1 <1>                0.0000
      8 C8          31.8589  36.5059  37.1774 C.ar           1 <1>                0.0000
      9 C9          33.0394  35.7934  37.0807 C.ar           1 <1>                0.0000
     10 C10         33.7974  35.8957  35.9247 C.ar           1 <1>                0.0000
     11 C11         33.3377  36.7145  34.9043 C.ar           1 <1>                0.0000
     12 C12         32.1478  37.3965  35.0725 C.ar           1 <1>                0.0000
     13 N13         31.4499  37.2713  36.1846 N.ar           1 <1>                0.0000
     14 C14         27.5391  37.4162  38.7342 C.ar           1 <1>                0.0000
     15 C15         27.3506  38.1976  37.5059 C.2            1 <1>                0.0000
     16 O16         28.2862  38.7961  37.0183 O.2            1 <1>                0.0000
     17 C17         26.4421  37.1050  39.5468 C.ar           1 <1>                0.0000
     18 H18         28.0308  35.3643  41.9606 H              1 <1>                0.0000
     19 H19         29.9688  35.8897  40.5468 H              1 <1>                0.0000
     20 H20         31.6253  36.7000  39.2897 H              1 <1>                0.0000
     21 H21         30.6917  35.3726  38.5585 H              1 <1>                0.0000
     22 H22         33.3672  35.1652  37.8958 H              1 <1>                0.0000
     23 H23         34.7242  35.3509  35.8212 H              1 <1>                0.0000
     24 H24         33.9028  36.8182  33.9898 H              1 <1>                0.0000
     25 H25         31.7828  38.0362  34.2826 H              1 <1>                0.0000
     26 H26         26.3789  38.2397  37.0365 H              1 <1>                0.0000
     27 H27         25.4534  37.4426  39.2735 H              1 <1>                0.0000
@<TRIPOS>BOND
    1    1    2 1     
    2    2    3 ar    
    3    2   17 ar    
    4    3    4 ar    
    5    3   18 1     
    6    4    5 ar    
    7    4   19 1     
    8    5    6 1     
    9    5   14 ar    
   10    6    7 1     
   11    7    8 1     
   12    7   20 1     
   13    7   21 1     
   14    8    9 ar    
   15    8   13 ar    
   16    9   10 ar    
   17    9   22 1     
   18   10   11 ar    
   19   10   23 1     
   20   11   12 ar    
   21   11   24 1     
   22   12   13 ar    
   23   12   25 1     
   24   14   15 1     
   25   14   17 ar    
   26   15   16 2     
   27   15   26 1     
   28   17   27 1     
@<TRIPOS>SUBSTRUCTURE
      1 ****           1
@<TRIPOS>COMMENT
> <Gold.Version>
2022.2.0

> <Gold.Id.Protein>
1qkm|1qkm_protein|mol2

> <Gold.Protein.RotatedTorsions>
[  496  491  490  487 ] final   79.38 input  -89.99 | X-H torsion

> <Gold.Protein.ActiveResidues>
 MET295  LEU298  THR299  LEU301  ALA302  GLU305  TRP335  MET336  LEU339  MET340 
 GLY342  LEU343  ARG346  PHE356  ILE373  ILE376  PHE377  LEU380  LYS471  GLY472 
 MET473  HIS475  LEU476  LEU477  ASN478  MET479  VAL484  VAL487 

> <Gold.Protein.RotatedAtoms>
   36.7222   33.1052   42.1422 H   0  0  0  0  0  0  0  0  0  0  0  0  # atno 496  bound_to 491 

> <Gold.Score>
     Score     S(PLP)   S(hbond)     S(cho)   S(metal)  DE(clash)   DE(tors)     intcor
     52.20     -52.69       0.00       0.00       0.00       0.07       0.55       0.68

> <Gold.PLP.Fitness>
52.2019

> <Gold.PLP.PLP>
-52.6943

> <Gold.PLP.part.hbond>
0.0000

> <Gold.PLP.part.metal>
0.0000

> <Gold.PLP.part.buried>
0.3140

> <Gold.PLP.part.nonpolar>
-53.1536

> <Gold.PLP.part.repulsive>
0.0231

> <Gold.PLP.ligand.clash>
0.0682

> <Gold.PLP.ligand.torsion>
0.5542

> <Gold.PLP.Chemscore.Hbond>
0.0000

> <Gold.PLP.Chemscore.CHOScore>
0.0000

> <Gold.PLP.Chemscore.Metal>
0.0000

> <Gold.PLP.Chemscore.Internal.Correction>
0.6841

