#       Name:                EN300-27088_i001
#       Creating user name   aseyller
#       Creation time:       Fri Apr 21 18:47:14 2023


#       File generated by GOLD software.
#

@<TRIPOS>MOLECULE
EN300-27088_i001|benzaldehydes|mol2|625|dock16
    27    28     1
SMALL
USER_CHARGES


@<TRIPOS>ATOM
      1 Br1         34.1427  36.4026  35.2010 Br             1 <1>                0.0000
      2 C2          32.4807  37.0073  35.8701 C.ar           1 <1>                0.0000
      3 C3          31.6300  36.1187  36.5108 C.ar           1 <1>                0.0000
      4 C4          30.4137  36.5466  37.0041 C.ar           1 <1>                0.0000
      5 C5          30.0327  37.8725  36.8619 C.ar           1 <1>                0.0000
      6 O6          28.8381  38.2937  37.3461 O.3            1 <1>                0.0000
      7 C7          27.8798  37.2861  37.6754 C.3            1 <1>                0.0000
      8 C8          28.0933  36.8354  39.0974 C.ar           1 <1>                0.0000
      9 C9          29.2041  37.2735  39.7936 C.ar           1 <1>                0.0000
     10 C10         29.3909  36.8534  41.1013 C.ar           1 <1>                0.0000
     11 C11         28.4491  36.0044  41.6627 C.ar           1 <1>                0.0000
     12 C12         27.3633  35.6082  40.9053 C.ar           1 <1>                0.0000
     13 N13         27.2153  36.0320  39.6652 N.ar           1 <1>                0.0000
     14 C14         30.8902  38.7769  36.2145 C.ar           1 <1>                0.0000
     15 C15         30.4989  40.1830  36.0579 C.2            1 <1>                0.0000
     16 O16         29.3962  40.5481  36.4074 O.2            1 <1>                0.0000
     17 C17         32.1230  38.3296  35.7239 C.ar           1 <1>                0.0000
     18 H18         31.9210  35.0848  36.6243 H              1 <1>                0.0000
     19 H19         29.7577  35.8476  37.5012 H              1 <1>                0.0000
     20 H20         26.8741  37.6930  37.5703 H              1 <1>                0.0000
     21 H21         28.0002  36.4366  37.0031 H              1 <1>                0.0000
     22 H22         29.9178  37.9345  39.3243 H              1 <1>                0.0000
     23 H23         30.2498  37.1792  41.6694 H              1 <1>                0.0000
     24 H24         28.5628  35.6570  42.6789 H              1 <1>                0.0000
     25 H25         26.6253  34.9472  41.3351 H              1 <1>                0.0000
     26 H26         31.1927  40.8923  35.6315 H              1 <1>                0.0000
     27 H27         32.7888  39.0182  35.2251 H              1 <1>                0.0000
@<TRIPOS>BOND
    1    1    2 1     
    2    2    3 ar    
    3    2   17 ar    
    4    3    4 ar    
    5    3   18 1     
    6    4    5 ar    
    7    4   19 1     
    8    5    6 1     
    9    5   14 ar    
   10    6    7 1     
   11    7    8 1     
   12    7   20 1     
   13    7   21 1     
   14    8    9 ar    
   15    8   13 ar    
   16    9   10 ar    
   17    9   22 1     
   18   10   11 ar    
   19   10   23 1     
   20   11   12 ar    
   21   11   24 1     
   22   12   13 ar    
   23   12   25 1     
   24   14   15 1     
   25   14   17 ar    
   26   15   16 2     
   27   15   26 1     
   28   17   27 1     
@<TRIPOS>SUBSTRUCTURE
      1 ****           1
@<TRIPOS>COMMENT
> <Gold.Version>
2022.2.0

> <Gold.Id.Protein>
1qkm|1qkm_protein|mol2

> <Gold.Protein.RotatedTorsions>
[  496  491  490  487 ] final  149.91 input  -89.99 | X-H torsion

> <Gold.Protein.ActiveResidues>
 MET295  LEU298  THR299  LEU301  ALA302  GLU305  TRP335  MET336  LEU339  MET340 
 GLY342  LEU343  ARG346  PHE356  ILE373  ILE376  PHE377  LEU380  LYS471  GLY472 
 MET473  HIS475  LEU476  LEU477  ASN478  MET479  VAL484  VAL487 

> <Gold.Protein.RotatedAtoms>
   37.2623   33.1033   41.1966 H   0  0  0  0  0  0  0  0  0  0  0  0  # atno 496  bound_to 491 

> <Gold.Score>
     Score     S(PLP)   S(hbond)     S(cho)   S(metal)  DE(clash)   DE(tors)     intcor
     52.64     -50.82       0.00       0.99       0.00       0.95       0.44       0.68

> <Gold.PLP.Fitness>
52.6397

> <Gold.PLP.PLP>
-50.8211

> <Gold.PLP.part.hbond>
0.0000

> <Gold.PLP.part.metal>
0.0000

> <Gold.PLP.part.buried>
-3.2349

> <Gold.PLP.part.nonpolar>
-47.4681

> <Gold.PLP.part.repulsive>
0.0374

> <Gold.PLP.ligand.clash>
0.9527

> <Gold.PLP.ligand.torsion>
0.4408

> <Gold.PLP.Chemscore.Hbond>
0.0000

> <Gold.PLP.Chemscore.CHOScore>
0.9896

> <Gold.PLP.Chemscore.Metal>
0.0000

> <Gold.Chemscore.Hbonds>
donor molecule, donor type, donor heavy atom, donor atom, acceptor molecule, acceptor atom, score
      L1  C    12    25       P1   582  0.99

> <Gold.PLP.Chemscore.Internal.Correction>
0.6841

