#       Name:                EN300-27088_i001
#       Creating user name   aseyller
#       Creation time:       Fri Apr 21 18:47:09 2023


#       File generated by GOLD software.
#

@<TRIPOS>MOLECULE
EN300-27088_i001|benzaldehydes|mol2|625|dock11
    27    28     1
SMALL
USER_CHARGES


@<TRIPOS>ATOM
      1 Br1         33.4119  37.0145  34.3496 Br             1 <1>                0.0000
      2 C2          32.2536  37.2037  35.8323 C.ar           1 <1>                0.0000
      3 C3          32.1436  36.1764  36.7578 C.ar           1 <1>                0.0000
      4 C4          31.3019  36.3011  37.8448 C.ar           1 <1>                0.0000
      5 C5          30.5579  37.4584  38.0197 C.ar           1 <1>                0.0000
      6 O6          29.7308  37.5818  39.0872 O.3            1 <1>                0.0000
      7 C7          29.2413  36.3732  39.6718 C.3            1 <1>                0.0000
      8 C8          27.8531  36.6025  40.2115 C.ar           1 <1>                0.0000
      9 C9          26.8111  36.8443  39.3361 C.ar           1 <1>                0.0000
     10 C10         25.5379  37.0535  39.8427 C.ar           1 <1>                0.0000
     11 C11         25.3594  37.0114  41.2173 C.ar           1 <1>                0.0000
     12 C12         26.4488  36.7641  42.0305 C.ar           1 <1>                0.0000
     13 N13         27.6454  36.5647  41.5130 N.ar           1 <1>                0.0000
     14 C14         30.6656  38.5021  37.0861 C.ar           1 <1>                0.0000
     15 C15         29.8839  39.7323  37.2600 C.2            1 <1>                0.0000
     16 O16         29.8145  40.5394  36.3571 O.2            1 <1>                0.0000
     17 C17         31.5273  38.3635  35.9913 C.ar           1 <1>                0.0000
     18 H18         32.7202  35.2726  36.6268 H              1 <1>                0.0000
     19 H19         31.2224  35.4960  38.5601 H              1 <1>                0.0000
     20 H20         29.2121  35.5893  38.9150 H              1 <1>                0.0000
     21 H21         29.9013  36.0694  40.4844 H              1 <1>                0.0000
     22 H22         26.9868  36.8704  38.2708 H              1 <1>                0.0000
     23 H23         24.7047  37.2450  39.1827 H              1 <1>                0.0000
     24 H24         24.3813  37.1702  41.6468 H              1 <1>                0.0000
     25 H25         26.3183  36.7297  43.1020 H              1 <1>                0.0000
     26 H26         29.3707  39.9189  38.1917 H              1 <1>                0.0000
     27 H27         31.6167  39.1611  35.2687 H              1 <1>                0.0000
@<TRIPOS>BOND
    1    1    2 1     
    2    2    3 ar    
    3    2   17 ar    
    4    3    4 ar    
    5    3   18 1     
    6    4    5 ar    
    7    4   19 1     
    8    5    6 1     
    9    5   14 ar    
   10    6    7 1     
   11    7    8 1     
   12    7   20 1     
   13    7   21 1     
   14    8    9 ar    
   15    8   13 ar    
   16    9   10 ar    
   17    9   22 1     
   18   10   11 ar    
   19   10   23 1     
   20   11   12 ar    
   21   11   24 1     
   22   12   13 ar    
   23   12   25 1     
   24   14   15 1     
   25   14   17 ar    
   26   15   16 2     
   27   15   26 1     
   28   17   27 1     
@<TRIPOS>SUBSTRUCTURE
      1 ****           1
@<TRIPOS>COMMENT
> <Gold.Version>
2022.2.0

> <Gold.Id.Protein>
1qkm|1qkm_protein|mol2

> <Gold.Protein.RotatedTorsions>
[  496  491  490  487 ] final  -13.45 input  -89.99 | X-H torsion

> <Gold.Protein.ActiveResidues>
 MET295  LEU298  THR299  LEU301  ALA302  GLU305  TRP335  MET336  LEU339  MET340 
 GLY342  LEU343  ARG346  PHE356  ILE373  ILE376  PHE377  LEU380  LYS471  GLY472 
 MET473  HIS475  LEU476  LEU477  ASN478  MET479  VAL484  VAL487 

> <Gold.Protein.RotatedAtoms>
   36.2669   34.3931   42.1073 H   0  0  0  0  0  0  0  0  0  0  0  0  # atno 496  bound_to 491 

> <Gold.Score>
     Score     S(PLP)   S(hbond)     S(cho)   S(metal)  DE(clash)   DE(tors)     intcor
     53.70     -52.47       0.00       0.61       0.00       0.00       0.64       0.68

> <Gold.PLP.Fitness>
53.7038

> <Gold.PLP.PLP>
-52.4723

> <Gold.PLP.part.hbond>
0.0000

> <Gold.PLP.part.metal>
0.0000

> <Gold.PLP.part.buried>
2.2721

> <Gold.PLP.part.nonpolar>
-54.8818

> <Gold.PLP.part.repulsive>
0.1411

> <Gold.PLP.ligand.clash>
0.0000

> <Gold.PLP.ligand.torsion>
0.6448

> <Gold.PLP.Chemscore.Hbond>
0.0000

> <Gold.PLP.Chemscore.CHOScore>
0.6123

> <Gold.PLP.Chemscore.Metal>
0.0000

> <Gold.Chemscore.Hbonds>
donor molecule, donor type, donor heavy atom, donor atom, acceptor molecule, acceptor atom, score
      L1  C    12    25       P1   582  0.61

> <Gold.PLP.Chemscore.Internal.Correction>
0.6841

