#       Name:                EN300-27088_i001
#       Creating user name   aseyller
#       Creation time:       Fri Apr 21 18:47:02 2023


#       File generated by GOLD software.
#

@<TRIPOS>MOLECULE
EN300-27088_i001|benzaldehydes|mol2|625|dock4
    27    28     1
SMALL
USER_CHARGES


@<TRIPOS>ATOM
      1 Br1         32.3894  38.1970  34.4037 Br             1 <1>                0.0000
      2 C2          31.7123  37.3408  35.9478 C.ar           1 <1>                0.0000
      3 C3          30.7832  37.9912  36.7462 C.ar           1 <1>                0.0000
      4 C4          30.2806  37.3779  37.8763 C.ar           1 <1>                0.0000
      5 C5          30.7027  36.1029  38.2222 C.ar           1 <1>                0.0000
      6 O6          30.2096  35.4996  39.3321 O.3            1 <1>                0.0000
      7 C7          29.7488  36.3514  40.3830 C.3            1 <1>                0.0000
      8 C8          28.2743  36.6100  40.2098 C.ar           1 <1>                0.0000
      9 C9          27.4212  36.4470  41.2851 C.ar           1 <1>                0.0000
     10 C10         26.0666  36.6879  41.1154 C.ar           1 <1>                0.0000
     11 C11         25.6187  37.0857  39.8647 C.ar           1 <1>                0.0000
     12 C12         26.5309  37.2277  38.8365 C.ar           1 <1>                0.0000
     13 N13         27.8136  36.9945  39.0357 N.ar           1 <1>                0.0000
     14 C14         31.6430  35.4393  37.4172 C.ar           1 <1>                0.0000
     15 C15         32.0976  34.0895  37.7721 C.2            1 <1>                0.0000
     16 O16         31.7595  33.5932  38.8260 O.2            1 <1>                0.0000
     17 C17         32.1400  36.0718  36.2711 C.ar           1 <1>                0.0000
     18 H18         30.4509  38.9843  36.4823 H              1 <1>                0.0000
     19 H19         29.5577  37.8919  38.4923 H              1 <1>                0.0000
     20 H20         29.9226  35.8686  41.3446 H              1 <1>                0.0000
     21 H21         30.2900  37.2969  40.3480 H              1 <1>                0.0000
     22 H22         27.8051  36.1354  42.2453 H              1 <1>                0.0000
     23 H23         25.3765  36.5683  41.9375 H              1 <1>                0.0000
     24 H24         24.5701  37.2817  39.6963 H              1 <1>                0.0000
     25 H25         26.1901  37.5371  37.8595 H              1 <1>                0.0000
     26 H26         32.7332  33.5383  37.0949 H              1 <1>                0.0000
     27 H27         32.8630  35.5689  35.6461 H              1 <1>                0.0000
@<TRIPOS>BOND
    1    1    2 1     
    2    2    3 ar    
    3    2   17 ar    
    4    3    4 ar    
    5    3   18 1     
    6    4    5 ar    
    7    4   19 1     
    8    5    6 1     
    9    5   14 ar    
   10    6    7 1     
   11    7    8 1     
   12    7   20 1     
   13    7   21 1     
   14    8    9 ar    
   15    8   13 ar    
   16    9   10 ar    
   17    9   22 1     
   18   10   11 ar    
   19   10   23 1     
   20   11   12 ar    
   21   11   24 1     
   22   12   13 ar    
   23   12   25 1     
   24   14   15 1     
   25   14   17 ar    
   26   15   16 2     
   27   15   26 1     
   28   17   27 1     
@<TRIPOS>SUBSTRUCTURE
      1 ****           1
@<TRIPOS>COMMENT
> <Gold.Version>
2022.2.0

> <Gold.Id.Protein>
1qkm|1qkm_protein|mol2

> <Gold.Protein.RotatedTorsions>
[  496  491  490  487 ] final -152.37 input  -89.99 | X-H torsion

> <Gold.Protein.ActiveResidues>
 MET295  LEU298  THR299  LEU301  ALA302  GLU305  TRP335  MET336  LEU339  MET340 
 GLY342  LEU343  ARG346  PHE356  ILE373  ILE376  PHE377  LEU380  LYS471  GLY472 
 MET473  HIS475  LEU476  LEU477  ASN478  MET479  VAL484  VAL487 

> <Gold.Protein.RotatedAtoms>
   37.2430   33.8827   40.7263 H   0  0  0  0  0  0  0  0  0  0  0  0  # atno 496  bound_to 491 

> <Gold.Score>
     Score     S(PLP)   S(hbond)     S(cho)   S(metal)  DE(clash)   DE(tors)     intcor
     56.97     -57.66       0.00       0.00       0.00       0.00       0.69       0.68

> <Gold.PLP.Fitness>
56.9704

> <Gold.PLP.PLP>
-57.6589

> <Gold.PLP.part.hbond>
0.0000

> <Gold.PLP.part.metal>
0.0000

> <Gold.PLP.part.buried>
-2.9187

> <Gold.PLP.part.nonpolar>
-56.2718

> <Gold.PLP.part.repulsive>
0.1925

> <Gold.PLP.ligand.clash>
0.0000

> <Gold.PLP.ligand.torsion>
0.6863

> <Gold.PLP.Chemscore.Hbond>
0.0000

> <Gold.PLP.Chemscore.CHOScore>
0.0000

> <Gold.PLP.Chemscore.Metal>
0.0000

> <Gold.PLP.Chemscore.Internal.Correction>
0.6841

