#       Name:                EN300-27088_i001
#       Creating user name   aseyller
#       Creation time:       Fri Apr 21 18:47:05 2023


#       File generated by GOLD software.
#

@<TRIPOS>MOLECULE
EN300-27088_i001|benzaldehydes|mol2|625|dock6
    27    28     1
SMALL
USER_CHARGES


@<TRIPOS>ATOM
      1 Br1         31.8751  38.5242  34.2375 Br             1 <1>                0.0000
      2 C2          31.3320  37.6868  35.8437 C.ar           1 <1>                0.0000
      3 C3          30.4078  38.3103  36.6688 C.ar           1 <1>                0.0000
      4 C4          30.0025  37.7104  37.8442 C.ar           1 <1>                0.0000
      5 C5          30.5184  36.4759  38.2094 C.ar           1 <1>                0.0000
      6 O6          30.1210  35.8858  39.3638 O.3            1 <1>                0.0000
      7 C7          29.6768  36.7478  40.4135 C.3            1 <1>                0.0000
      8 C8          28.1703  36.7754  40.4372 C.ar           1 <1>                0.0000
      9 C9          27.4712  36.9344  39.2554 C.ar           1 <1>                0.0000
     10 C10         26.0856  36.9580  39.2881 C.ar           1 <1>                0.0000
     11 C11         25.4519  36.8200  40.5138 C.ar           1 <1>                0.0000
     12 C12         26.2172  36.6648  41.6538 C.ar           1 <1>                0.0000
     13 N13         27.5340  36.6421  41.5844 N.ar           1 <1>                0.0000
     14 C14         31.4542  35.8397  37.3775 C.ar           1 <1>                0.0000
     15 C15         32.0076  34.5328  37.7524 C.2            1 <1>                0.0000
     16 O16         31.7814  34.0710  38.8510 O.2            1 <1>                0.0000
     17 C17         31.8520  36.4578  36.1858 C.ar           1 <1>                0.0000
     18 H18         30.0027  39.2718  36.3900 H              1 <1>                0.0000
     19 H19         29.2826  38.2033  38.4807 H              1 <1>                0.0000
     20 H20         30.0485  36.3780  41.3691 H              1 <1>                0.0000
     21 H21         30.0560  37.7551  40.2414 H              1 <1>                0.0000
     22 H22         27.9980  37.0394  38.3184 H              1 <1>                0.0000
     23 H23         25.5131  37.0812  38.3806 H              1 <1>                0.0000
     24 H24         24.3738  36.8341  40.5767 H              1 <1>                0.0000
     25 H25         25.7313  36.5567  42.6123 H              1 <1>                0.0000
     26 H26         32.6162  33.9825  37.0502 H              1 <1>                0.0000
     27 H27         32.5708  35.9757  35.5400 H              1 <1>                0.0000
@<TRIPOS>BOND
    1    1    2 1     
    2    2    3 ar    
    3    2   17 ar    
    4    3    4 ar    
    5    3   18 1     
    6    4    5 ar    
    7    4   19 1     
    8    5    6 1     
    9    5   14 ar    
   10    6    7 1     
   11    7    8 1     
   12    7   20 1     
   13    7   21 1     
   14    8    9 ar    
   15    8   13 ar    
   16    9   10 ar    
   17    9   22 1     
   18   10   11 ar    
   19   10   23 1     
   20   11   12 ar    
   21   11   24 1     
   22   12   13 ar    
   23   12   25 1     
   24   14   15 1     
   25   14   17 ar    
   26   15   16 2     
   27   15   26 1     
   28   17   27 1     
@<TRIPOS>SUBSTRUCTURE
      1 ****           1
@<TRIPOS>COMMENT
> <Gold.Version>
2022.2.0

> <Gold.Id.Protein>
1qkm|1qkm_protein|mol2

> <Gold.Protein.RotatedTorsions>
[  496  491  490  487 ] final   88.25 input  -89.99 | X-H torsion

> <Gold.Protein.ActiveResidues>
 MET295  LEU298  THR299  LEU301  ALA302  GLU305  TRP335  MET336  LEU339  MET340 
 GLY342  LEU343  ARG346  PHE356  ILE373  ILE376  PHE377  LEU380  LYS471  GLY472 
 MET473  HIS475  LEU476  LEU477  ASN478  MET479  VAL484  VAL487 

> <Gold.Protein.RotatedAtoms>
   36.8041   33.0338   42.0449 H   0  0  0  0  0  0  0  0  0  0  0  0  # atno 496  bound_to 491 

> <Gold.Score>
     Score     S(PLP)   S(hbond)     S(cho)   S(metal)  DE(clash)   DE(tors)     intcor
     54.85     -53.50       0.00       0.77       0.00       0.00       0.82       0.68

> <Gold.PLP.Fitness>
54.8486

> <Gold.PLP.PLP>
-53.4990

> <Gold.PLP.part.hbond>
0.0000

> <Gold.PLP.part.metal>
0.0000

> <Gold.PLP.part.buried>
-1.2031

> <Gold.PLP.part.nonpolar>
-53.0275

> <Gold.PLP.part.repulsive>
0.2978

> <Gold.PLP.ligand.clash>
0.0000

> <Gold.PLP.ligand.torsion>
0.8199

> <Gold.PLP.Chemscore.Hbond>
0.0000

> <Gold.PLP.Chemscore.CHOScore>
0.7684

> <Gold.PLP.Chemscore.Metal>
0.0000

> <Gold.Chemscore.Hbonds>
donor molecule, donor type, donor heavy atom, donor atom, acceptor molecule, acceptor atom, score
      L1  C    12    25       P1   582  0.77

> <Gold.PLP.Chemscore.Internal.Correction>
0.6841

