#       Name:                EN300-27088_i001
#       Creating user name   aseyller
#       Creation time:       Fri Apr 21 18:47:00 2023


#       File generated by GOLD software.
#

@<TRIPOS>MOLECULE
EN300-27088_i001|benzaldehydes|mol2|625|dock2
    27    28     1
SMALL
USER_CHARGES


@<TRIPOS>ATOM
      1 Br1         34.6870  36.4005  35.1986 Br             1 <1>                0.0000
      2 C2          33.0229  36.5550  36.0835 C.ar           1 <1>                0.0000
      3 C3          32.7130  35.6942  37.1259 C.ar           1 <1>                0.0000
      4 C4          31.5019  35.7957  37.7806 C.ar           1 <1>                0.0000
      5 C5          30.5836  36.7625  37.3993 C.ar           1 <1>                0.0000
      6 O6          29.3936  36.8630  38.0417 O.3            1 <1>                0.0000
      7 C7          29.3304  36.3502  39.3741 C.3            1 <1>                0.0000
      8 C8          27.9606  36.6079  39.9470 C.ar           1 <1>                0.0000
      9 C9          26.9441  37.0437  39.1179 C.ar           1 <1>                0.0000
     10 C10         25.6876  37.2773  39.6547 C.ar           1 <1>                0.0000
     11 C11         25.4995  37.0628  41.0118 C.ar           1 <1>                0.0000
     12 C12         26.5632  36.6264  41.7784 C.ar           1 <1>                0.0000
     13 N13         27.7440  36.4097  41.2325 N.ar           1 <1>                0.0000
     14 C14         30.8922  37.6372  36.3447 C.ar           1 <1>                0.0000
     15 C15         29.9290  38.6650  35.9316 C.2            1 <1>                0.0000
     16 O16         28.9488  38.8856  36.6111 O.2            1 <1>                0.0000
     17 C17         32.1266  37.5257  35.6933 C.ar           1 <1>                0.0000
     18 H18         33.4239  34.9391  37.4273 H              1 <1>                0.0000
     19 H19         31.2690  35.1210  38.5910 H              1 <1>                0.0000
     20 H20         29.5225  35.2774  39.3601 H              1 <1>                0.0000
     21 H21         30.0809  36.8458  39.9901 H              1 <1>                0.0000
     22 H22         27.1267  37.2006  38.0650 H              1 <1>                0.0000
     23 H23         24.8746  37.6185  39.0310 H              1 <1>                0.0000
     24 H24         24.5339  37.2349  41.4639 H              1 <1>                0.0000
     25 H25         26.4249  36.4570  42.8360 H              1 <1>                0.0000
     26 H26         30.0931  39.2247  35.0226 H              1 <1>                0.0000
     27 H27         32.3724  38.1943  34.8817 H              1 <1>                0.0000
@<TRIPOS>BOND
    1    1    2 1     
    2    2    3 ar    
    3    2   17 ar    
    4    3    4 ar    
    5    3   18 1     
    6    4    5 ar    
    7    4   19 1     
    8    5    6 1     
    9    5   14 ar    
   10    6    7 1     
   11    7    8 1     
   12    7   20 1     
   13    7   21 1     
   14    8    9 ar    
   15    8   13 ar    
   16    9   10 ar    
   17    9   22 1     
   18   10   11 ar    
   19   10   23 1     
   20   11   12 ar    
   21   11   24 1     
   22   12   13 ar    
   23   12   25 1     
   24   14   15 1     
   25   14   17 ar    
   26   15   16 2     
   27   15   26 1     
   28   17   27 1     
@<TRIPOS>SUBSTRUCTURE
      1 ****           1
@<TRIPOS>COMMENT
> <Gold.Version>
2022.2.0

> <Gold.Id.Protein>
1qkm|1qkm_protein|mol2

> <Gold.Protein.RotatedTorsions>
[  496  491  490  487 ] final  -51.84 input  -89.99 | X-H torsion

> <Gold.Protein.ActiveResidues>
 MET295  LEU298  THR299  LEU301  ALA302  GLU305  TRP335  MET336  LEU339  MET340 
 GLY342  LEU343  ARG346  PHE356  ILE373  ILE376  PHE377  LEU380  LYS471  GLY472 
 MET473  HIS475  LEU476  LEU477  ASN478  MET479  VAL484  VAL487 

> <Gold.Protein.RotatedAtoms>
   36.4372   34.7113   41.6030 H   0  0  0  0  0  0  0  0  0  0  0  0  # atno 496  bound_to 491 

> <Gold.Score>
     Score     S(PLP)   S(hbond)     S(cho)   S(metal)  DE(clash)   DE(tors)     intcor
     54.71     -52.16       0.00       0.94       0.00       0.00       0.47       0.68

> <Gold.PLP.Fitness>
54.7127

> <Gold.PLP.PLP>
-52.1626

> <Gold.PLP.part.hbond>
0.0000

> <Gold.PLP.part.metal>
0.0000

> <Gold.PLP.part.buried>
-2.9543

> <Gold.PLP.part.nonpolar>
-50.4684

> <Gold.PLP.part.repulsive>
0.1078

> <Gold.PLP.ligand.clash>
0.0020

> <Gold.PLP.ligand.torsion>
0.4702

> <Gold.PLP.Chemscore.Hbond>
0.0000

> <Gold.PLP.Chemscore.CHOScore>
0.9361

> <Gold.PLP.Chemscore.Metal>
0.0000

> <Gold.Chemscore.Hbonds>
donor molecule, donor type, donor heavy atom, donor atom, acceptor molecule, acceptor atom, score
      L1  C    12    25       P1   582  0.94

> <Gold.PLP.Chemscore.Internal.Correction>
0.6841

