#       Name:                EN300-27088_i001
#       Creating user name   aseyller
#       Creation time:       Fri Apr 21 18:47:07 2023


#       File generated by GOLD software.
#

@<TRIPOS>MOLECULE
EN300-27088_i001|benzaldehydes|mol2|625|dock9
    27    28     1
SMALL
USER_CHARGES


@<TRIPOS>ATOM
      1 Br1         34.2358  36.6990  34.7952 Br             1 <1>                0.0000
      2 C2          32.8228  36.5292  36.0404 C.ar           1 <1>                0.0000
      3 C3          31.7957  37.4612  36.0502 C.ar           1 <1>                0.0000
      4 C4          30.7580  37.3494  36.9538 C.ar           1 <1>                0.0000
      5 C5          30.7353  36.3007  37.8611 C.ar           1 <1>                0.0000
      6 O6          29.7165  36.1901  38.7491 O.3            1 <1>                0.0000
      7 C7          28.4432  36.6951  38.3419 C.3            1 <1>                0.0000
      8 C8          27.5405  36.8093  39.5432 C.ar           1 <1>                0.0000
      9 C9          28.0573  36.6019  40.8083 C.ar           1 <1>                0.0000
     10 C10         27.2186  36.7098  41.9067 C.ar           1 <1>                0.0000
     11 C11         25.8853  37.0239  41.6907 C.ar           1 <1>                0.0000
     12 C12         25.4402  37.2175  40.3969 C.ar           1 <1>                0.0000
     13 N13         26.2680  37.1115  39.3758 N.ar           1 <1>                0.0000
     14 C14         31.7724  35.3537  37.8555 C.ar           1 <1>                0.0000
     15 C15         31.7600  34.2389  38.8104 C.2            1 <1>                0.0000
     16 O16         31.8011  33.0954  38.4080 O.2            1 <1>                0.0000
     17 C17         32.8157  35.4771  36.9298 C.ar           1 <1>                0.0000
     18 H18         31.8080  38.2802  35.3463 H              1 <1>                0.0000
     19 H19         29.9627  38.0799  36.9543 H              1 <1>                0.0000
     20 H20         28.5704  37.6780  37.8882 H              1 <1>                0.0000
     21 H21         27.9977  36.0147  37.6161 H              1 <1>                0.0000
     22 H22         29.1013  36.3583  40.9393 H              1 <1>                0.0000
     23 H23         27.5945  36.5527  42.9070 H              1 <1>                0.0000
     24 H24         25.2033  37.1158  42.5230 H              1 <1>                0.0000
     25 H25         24.4032  37.4624  40.2202 H              1 <1>                0.0000
     26 H26         31.7142  34.4369  39.8711 H              1 <1>                0.0000
     27 H27         33.6171  34.7533  36.9181 H              1 <1>                0.0000
@<TRIPOS>BOND
    1    1    2 1     
    2    2    3 ar    
    3    2   17 ar    
    4    3    4 ar    
    5    3   18 1     
    6    4    5 ar    
    7    4   19 1     
    8    5    6 1     
    9    5   14 ar    
   10    6    7 1     
   11    7    8 1     
   12    7   20 1     
   13    7   21 1     
   14    8    9 ar    
   15    8   13 ar    
   16    9   10 ar    
   17    9   22 1     
   18   10   11 ar    
   19   10   23 1     
   20   11   12 ar    
   21   11   24 1     
   22   12   13 ar    
   23   12   25 1     
   24   14   15 1     
   25   14   17 ar    
   26   15   16 2     
   27   15   26 1     
   28   17   27 1     
@<TRIPOS>SUBSTRUCTURE
      1 ****           1
@<TRIPOS>COMMENT
> <Gold.Version>
2022.2.0

> <Gold.Id.Protein>
1qkm|1qkm_protein|mol2

> <Gold.Protein.RotatedTorsions>
[  496  491  490  487 ] final  -49.16 input  -89.99 | X-H torsion

> <Gold.Protein.ActiveResidues>
 MET295  LEU298  THR299  LEU301  ALA302  GLU305  TRP335  MET336  LEU339  MET340 
 GLY342  LEU343  ARG346  PHE356  ILE373  ILE376  PHE377  LEU380  LYS471  GLY472 
 MET473  HIS475  LEU476  LEU477  ASN478  MET479  VAL484  VAL487 

> <Gold.Protein.RotatedAtoms>
   36.4190   34.7006   41.6418 H   0  0  0  0  0  0  0  0  0  0  0  0  # atno 496  bound_to 491 

> <Gold.Score>
     Score     S(PLP)   S(hbond)     S(cho)   S(metal)  DE(clash)   DE(tors)     intcor
     53.84     -52.30       0.00       0.96       0.00       0.00       1.01       0.68

> <Gold.PLP.Fitness>
53.8418

> <Gold.PLP.PLP>
-52.3045

> <Gold.PLP.part.hbond>
0.0000

> <Gold.PLP.part.metal>
0.0000

> <Gold.PLP.part.buried>
-1.1469

> <Gold.PLP.part.nonpolar>
-51.4214

> <Gold.PLP.part.repulsive>
0.1538

> <Gold.PLP.ligand.clash>
0.0000

> <Gold.PLP.ligand.torsion>
1.0062

> <Gold.PLP.Chemscore.Hbond>
0.0000

> <Gold.PLP.Chemscore.CHOScore>
0.9552

> <Gold.PLP.Chemscore.Metal>
0.0000

> <Gold.Chemscore.Hbonds>
donor molecule, donor type, donor heavy atom, donor atom, acceptor molecule, acceptor atom, score
      L1  C    12    25       P1  1131  0.96

> <Gold.PLP.Chemscore.Internal.Correction>
0.6841

