#       Name:                EN300-27088_i001
#       Creating user name   aseyller
#       Creation time:       Fri Apr 21 18:47:06 2023


#       File generated by GOLD software.
#

@<TRIPOS>MOLECULE
EN300-27088_i001|benzaldehydes|mol2|625|dock8
    27    28     1
SMALL
USER_CHARGES


@<TRIPOS>ATOM
      1 Br1         35.3148  36.3998  35.1848 Br             1 <1>                0.0000
      2 C2          33.5973  36.5566  35.9604 C.ar           1 <1>                0.0000
      3 C3          33.2884  35.8363  37.1047 C.ar           1 <1>                0.0000
      4 C4          32.0384  35.9412  37.6813 C.ar           1 <1>                0.0000
      5 C5          31.0798  36.7704  37.1184 C.ar           1 <1>                0.0000
      6 O6          29.8517  36.8741  37.6841 O.3            1 <1>                0.0000
      7 C7          29.7504  36.5661  39.0759 C.3            1 <1>                0.0000
      8 C8          28.3064  36.6346  39.5017 C.ar           1 <1>                0.0000
      9 C9          27.9716  36.4000  40.8221 C.ar           1 <1>                0.0000
     10 C10         26.6405  36.4659  41.2034 C.ar           1 <1>                0.0000
     11 C11         25.6915  36.7668  40.2381 C.ar           1 <1>                0.0000
     12 C12         26.1013  36.9893  38.9373 C.ar           1 <1>                0.0000
     13 N13         27.3775  36.9231  38.6114 N.ar           1 <1>                0.0000
     14 C14         31.3871  37.5025  35.9600 C.ar           1 <1>                0.0000
     15 C15         30.3815  38.3839  35.3546 C.2            1 <1>                0.0000
     16 O16         29.4496  38.7865  36.0185 O.2            1 <1>                0.0000
     17 C17         32.6607  37.3899  35.3892 C.ar           1 <1>                0.0000
     18 H18         34.0306  35.1887  37.5475 H              1 <1>                0.0000
     19 H19         31.8067  35.3764  38.5721 H              1 <1>                0.0000
     20 H20         30.1348  35.5620  39.2548 H              1 <1>                0.0000
     21 H21         30.3331  37.2861  39.6506 H              1 <1>                0.0000
     22 H22         28.7374  36.1678  41.5474 H              1 <1>                0.0000
     23 H23         26.3494  36.2868  42.2280 H              1 <1>                0.0000
     24 H24         24.6453  36.8261  40.4995 H              1 <1>                0.0000
     25 H25         25.3685  37.2242  38.1796 H              1 <1>                0.0000
     26 H26         30.4712  38.6737  34.3181 H              1 <1>                0.0000
     27 H27         32.9059  37.9495  34.4987 H              1 <1>                0.0000
@<TRIPOS>BOND
    1    1    2 1     
    2    2    3 ar    
    3    2   17 ar    
    4    3    4 ar    
    5    3   18 1     
    6    4    5 ar    
    7    4   19 1     
    8    5    6 1     
    9    5   14 ar    
   10    6    7 1     
   11    7    8 1     
   12    7   20 1     
   13    7   21 1     
   14    8    9 ar    
   15    8   13 ar    
   16    9   10 ar    
   17    9   22 1     
   18   10   11 ar    
   19   10   23 1     
   20   11   12 ar    
   21   11   24 1     
   22   12   13 ar    
   23   12   25 1     
   24   14   15 1     
   25   14   17 ar    
   26   15   16 2     
   27   15   26 1     
   28   17   27 1     
@<TRIPOS>SUBSTRUCTURE
      1 ****           1
@<TRIPOS>COMMENT
> <Gold.Version>
2022.2.0

> <Gold.Id.Protein>
1qkm|1qkm_protein|mol2

> <Gold.Protein.RotatedTorsions>
[  496  491  490  487 ] final  -29.69 input  -89.99 | X-H torsion

> <Gold.Protein.ActiveResidues>
 MET295  LEU298  THR299  LEU301  ALA302  GLU305  TRP335  MET336  LEU339  MET340 
 GLY342  LEU343  ARG346  PHE356  ILE373  ILE376  PHE377  LEU380  LYS471  GLY472 
 MET473  HIS475  LEU476  LEU477  ASN478  MET479  VAL484  VAL487 

> <Gold.Protein.RotatedAtoms>
   36.3136   34.5683   41.9121 H   0  0  0  0  0  0  0  0  0  0  0  0  # atno 496  bound_to 491 

> <Gold.Score>
     Score     S(PLP)   S(hbond)     S(cho)   S(metal)  DE(clash)   DE(tors)     intcor
     50.60     -50.81       0.00       0.00       0.00       0.00       0.45       0.68

> <Gold.PLP.Fitness>
50.5978

> <Gold.PLP.PLP>
-50.8052

> <Gold.PLP.part.hbond>
0.0000

> <Gold.PLP.part.metal>
0.0000

> <Gold.PLP.part.buried>
-3.8559

> <Gold.PLP.part.nonpolar>
-48.3353

> <Gold.PLP.part.repulsive>
0.0000

> <Gold.PLP.ligand.clash>
0.0000

> <Gold.PLP.ligand.torsion>
0.4458

> <Gold.PLP.Chemscore.Hbond>
0.0000

> <Gold.PLP.Chemscore.CHOScore>
0.0000

> <Gold.PLP.Chemscore.Metal>
0.0000

> <Gold.PLP.Chemscore.Internal.Correction>
0.6841

