#       Name:                EN300-27088_i001
#       Creating user name   aseyller
#       Creation time:       Fri Apr 21 18:47:17 2023


#       File generated by GOLD software.
#

@<TRIPOS>MOLECULE
EN300-27088_i001|benzaldehydes|mol2|625|dock19
    27    28     1
SMALL
USER_CHARGES


@<TRIPOS>ATOM
      1 Br1         31.3699  39.2281  35.0311 Br             1 <1>                0.0000
      2 C2          30.7824  37.9924  36.3364 C.ar           1 <1>                0.0000
      3 C3          29.4446  37.9572  36.7009 C.ar           1 <1>                0.0000
      4 C4          29.0020  37.0603  37.6524 C.ar           1 <1>                0.0000
      5 C5          29.8950  36.1851  38.2524 C.ar           1 <1>                0.0000
      6 O6          29.4612  35.3036  39.1871 O.3            1 <1>                0.0000
      7 C7          28.1143  34.8415  39.0674 C.3            1 <1>                0.0000
      8 C8          27.1858  35.8209  39.7381 C.ar           1 <1>                0.0000
      9 C9          26.3454  36.6028  38.9681 C.ar           1 <1>                0.0000
     10 C10         25.4949  37.5002  39.5948 C.ar           1 <1>                0.0000
     11 C11         25.5213  37.5779  40.9792 C.ar           1 <1>                0.0000
     12 C12         26.3885  36.7640  41.6828 C.ar           1 <1>                0.0000
     13 N13         27.1804  35.9180  41.0531 N.ar           1 <1>                0.0000
     14 C14         31.2507  36.2158  37.8869 C.ar           1 <1>                0.0000
     15 C15         32.2060  35.2946  38.5142 C.2            1 <1>                0.0000
     16 O16         31.8055  34.3042  39.0886 O.2            1 <1>                0.0000
     17 C17         31.6841  37.1275  36.9166 C.ar           1 <1>                0.0000
     18 H18         28.7444  38.6365  36.2374 H              1 <1>                0.0000
     19 H19         27.9586  37.0402  37.9301 H              1 <1>                0.0000
     20 H20         27.8519  34.7557  38.0130 H              1 <1>                0.0000
     21 H21         28.0208  33.8665  39.5457 H              1 <1>                0.0000
     22 H22         26.3518  36.5161  37.8915 H              1 <1>                0.0000
     23 H23         24.8277  38.1243  39.0188 H              1 <1>                0.0000
     24 H24         24.8726  38.2660  41.5007 H              1 <1>                0.0000
     25 H25         26.4152  36.8184  42.7611 H              1 <1>                0.0000
     26 H26         33.2653  35.4987  38.4643 H              1 <1>                0.0000
     27 H27         32.7247  37.1579  36.6292 H              1 <1>                0.0000
@<TRIPOS>BOND
    1    1    2 1     
    2    2    3 ar    
    3    2   17 ar    
    4    3    4 ar    
    5    3   18 1     
    6    4    5 ar    
    7    4   19 1     
    8    5    6 1     
    9    5   14 ar    
   10    6    7 1     
   11    7    8 1     
   12    7   20 1     
   13    7   21 1     
   14    8    9 ar    
   15    8   13 ar    
   16    9   10 ar    
   17    9   22 1     
   18   10   11 ar    
   19   10   23 1     
   20   11   12 ar    
   21   11   24 1     
   22   12   13 ar    
   23   12   25 1     
   24   14   15 1     
   25   14   17 ar    
   26   15   16 2     
   27   15   26 1     
   28   17   27 1     
@<TRIPOS>SUBSTRUCTURE
      1 ****           1
@<TRIPOS>COMMENT
> <Gold.Version>
2022.2.0

> <Gold.Id.Protein>
1qkm|1qkm_protein|mol2

> <Gold.Protein.RotatedTorsions>
[  496  491  490  487 ] final -155.91 input  -89.99 | X-H torsion

> <Gold.Protein.ActiveResidues>
 MET295  LEU298  THR299  LEU301  ALA302  GLU305  TRP335  MET336  LEU339  MET340 
 GLY342  LEU343  ARG346  PHE356  ILE373  ILE376  PHE377  LEU380  LYS471  GLY472 
 MET473  HIS475  LEU476  LEU477  ASN478  MET479  VAL484  VAL487 

> <Gold.Protein.RotatedAtoms>
   37.2589   33.8273   40.7342 H   0  0  0  0  0  0  0  0  0  0  0  0  # atno 496  bound_to 491 

> <Gold.Score>
     Score     S(PLP)   S(hbond)     S(cho)   S(metal)  DE(clash)   DE(tors)     intcor
     52.53     -51.36       0.00       0.63       0.00       0.01       0.70       0.68

> <Gold.PLP.Fitness>
52.5310

> <Gold.PLP.PLP>
-51.3617

> <Gold.PLP.part.hbond>
0.0000

> <Gold.PLP.part.metal>
0.0000

> <Gold.PLP.part.buried>
-3.8208

> <Gold.PLP.part.nonpolar>
-48.5387

> <Gold.PLP.part.repulsive>
0.6611

> <Gold.PLP.ligand.clash>
0.0132

> <Gold.PLP.ligand.torsion>
0.6977

> <Gold.PLP.Chemscore.Hbond>
0.0000

> <Gold.PLP.Chemscore.CHOScore>
0.6312

> <Gold.PLP.Chemscore.Metal>
0.0000

> <Gold.Chemscore.Hbonds>
donor molecule, donor type, donor heavy atom, donor atom, acceptor molecule, acceptor atom, score
      L1  C    12    25       P1   582  0.63

> <Gold.PLP.Chemscore.Internal.Correction>
0.6841

