#       Name:                EN300-27088_i001
#       Creating user name   aseyller
#       Creation time:       Fri Apr 21 18:47:12 2023


#       File generated by GOLD software.
#

@<TRIPOS>MOLECULE
EN300-27088_i001|benzaldehydes|mol2|625|dock14
    27    28     1
SMALL
USER_CHARGES


@<TRIPOS>ATOM
      1 Br1         33.9641  35.7867  37.5170 Br             1 <1>                0.0000
      2 C2          32.2088  36.4883  37.5662 C.ar           1 <1>                0.0000
      3 C3          31.2050  35.7912  38.2222 C.ar           1 <1>                0.0000
      4 C4          29.9192  36.2918  38.2658 C.ar           1 <1>                0.0000
      5 C5          29.6212  37.4992  37.6522 C.ar           1 <1>                0.0000
      6 O6          28.3585  37.9917  37.6946 O.3            1 <1>                0.0000
      7 C7          27.3021  37.0517  37.9009 C.3            1 <1>                0.0000
      8 C8          27.0080  36.9421  39.3748 C.ar           1 <1>                0.0000
      9 C9          25.7606  37.2996  39.8511 C.ar           1 <1>                0.0000
     10 C10         25.5002  37.1946  41.2085 C.ar           1 <1>                0.0000
     11 C11         26.5087  36.7316  42.0401 C.ar           1 <1>                0.0000
     12 C12         27.7310  36.3928  41.4920 C.ar           1 <1>                0.0000
     13 N13         27.9418  36.5009  40.1946 N.ar           1 <1>                0.0000
     14 C14         30.6337  38.2097  36.9870 C.ar           1 <1>                0.0000
     15 C15         30.3315  39.4890  36.3337 C.2            1 <1>                0.0000
     16 O16         29.2045  39.9363  36.3684 O.2            1 <1>                0.0000
     17 C17         31.9344  37.6922  36.9553 C.ar           1 <1>                0.0000
     18 H18         31.4307  34.8502  38.7017 H              1 <1>                0.0000
     19 H19         29.1439  35.7420  38.7786 H              1 <1>                0.0000
     20 H20         26.4082  37.3887  37.3760 H              1 <1>                0.0000
     21 H21         27.6031  36.0769  37.5170 H              1 <1>                0.0000
     22 H22         24.9986  37.6568  39.1741 H              1 <1>                0.0000
     23 H23         24.5349  37.4671  41.6090 H              1 <1>                0.0000
     24 H24         26.3410  36.6374  43.1029 H              1 <1>                0.0000
     25 H25         28.5217  36.0314  42.1328 H              1 <1>                0.0000
     26 H26         31.1125  40.0319  35.8222 H              1 <1>                0.0000
     27 H27         32.7192  38.2319  36.4464 H              1 <1>                0.0000
@<TRIPOS>BOND
    1    1    2 1     
    2    2    3 ar    
    3    2   17 ar    
    4    3    4 ar    
    5    3   18 1     
    6    4    5 ar    
    7    4   19 1     
    8    5    6 1     
    9    5   14 ar    
   10    6    7 1     
   11    7    8 1     
   12    7   20 1     
   13    7   21 1     
   14    8    9 ar    
   15    8   13 ar    
   16    9   10 ar    
   17    9   22 1     
   18   10   11 ar    
   19   10   23 1     
   20   11   12 ar    
   21   11   24 1     
   22   12   13 ar    
   23   12   25 1     
   24   14   15 1     
   25   14   17 ar    
   26   15   16 2     
   27   15   26 1     
   28   17   27 1     
@<TRIPOS>SUBSTRUCTURE
      1 ****           1
@<TRIPOS>COMMENT
> <Gold.Version>
2022.2.0

> <Gold.Id.Protein>
1qkm|1qkm_protein|mol2

> <Gold.Protein.RotatedTorsions>
[  496  491  490  487 ] final  -81.06 input  -89.99 | X-H torsion

> <Gold.Protein.ActiveResidues>
 MET295  LEU298  THR299  LEU301  ALA302  GLU305  TRP335  MET336  LEU339  MET340 
 GLY342  LEU343  ARG346  PHE356  ILE373  ILE376  PHE377  LEU380  LYS471  GLY472 
 MET473  HIS475  LEU476  LEU477  ASN478  MET479  VAL484  VAL487 

> <Gold.Protein.RotatedAtoms>
   36.6755   34.7018   41.1913 H   0  0  0  0  0  0  0  0  0  0  0  0  # atno 496  bound_to 491 

> <Gold.Score>
     Score     S(PLP)   S(hbond)     S(cho)   S(metal)  DE(clash)   DE(tors)     intcor
     52.93     -53.36       0.00       0.00       0.00       0.02       0.55       0.68

> <Gold.PLP.Fitness>
52.9283

> <Gold.PLP.PLP>
-53.3621

> <Gold.PLP.part.hbond>
0.0000

> <Gold.PLP.part.metal>
0.0000

> <Gold.PLP.part.buried>
-1.4230

> <Gold.PLP.part.nonpolar>
-52.1669

> <Gold.PLP.part.repulsive>
0.0470

> <Gold.PLP.ligand.clash>
0.0172

> <Gold.PLP.ligand.torsion>
0.5504

> <Gold.PLP.Chemscore.Hbond>
0.0000

> <Gold.PLP.Chemscore.CHOScore>
0.0000

> <Gold.PLP.Chemscore.Metal>
0.0000

> <Gold.PLP.Chemscore.Internal.Correction>
0.6841

