#       Name:                EN300-27088_i001
#       Creating user name   aseyller
#       Creation time:       Fri Apr 21 18:47:08 2023


#       File generated by GOLD software.
#

@<TRIPOS>MOLECULE
EN300-27088_i001|benzaldehydes|mol2|625|dock10
    27    28     1
SMALL
USER_CHARGES


@<TRIPOS>ATOM
      1 Br1         35.4180  36.3936  35.4930 Br             1 <1>                0.0000
      2 C2          33.6477  36.3831  36.1580 C.ar           1 <1>                0.0000
      3 C3          33.3751  35.7986  37.3859 C.ar           1 <1>                0.0000
      4 C4          32.0874  35.7838  37.8832 C.ar           1 <1>                0.0000
      5 C5          31.0539  36.3553  37.1561 C.ar           1 <1>                0.0000
      6 O6          29.7887  36.3413  37.6438 O.3            1 <1>                0.0000
      7 C7          29.6398  36.1887  39.0569 C.3            1 <1>                0.0000
      8 C8          28.2370  36.5662  39.4578 C.ar           1 <1>                0.0000
      9 C9          27.3999  37.1636  38.5343 C.ar           1 <1>                0.0000
     10 C10         26.1113  37.5065  38.9131 C.ar           1 <1>                0.0000
     11 C11         25.7109  37.2344  40.2126 C.ar           1 <1>                0.0000
     12 C12         26.6033  36.6347  41.0806 C.ar           1 <1>                0.0000
     13 N13         27.8206  36.3178  40.6840 N.ar           1 <1>                0.0000
     14 C14         31.3242  36.9490  35.9124 C.ar           1 <1>                0.0000
     15 C15         30.2393  37.5577  35.1331 C.2            1 <1>                0.0000
     16 O16         30.4683  38.5069  34.4134 O.2            1 <1>                0.0000
     17 C17         32.6360  36.9611  35.4230 C.ar           1 <1>                0.0000
     18 H18         34.1756  35.3516  37.9566 H              1 <1>                0.0000
     19 H19         31.8844  35.3262  38.8401 H              1 <1>                0.0000
     20 H20         29.8297  35.1513  39.3324 H              1 <1>                0.0000
     21 H21         30.3509  36.8367  39.5693 H              1 <1>                0.0000
     22 H22         27.7456  37.3612  37.5304 H              1 <1>                0.0000
     23 H23         25.4353  37.9748  38.2129 H              1 <1>                0.0000
     24 H24         24.7143  37.4882  40.5422 H              1 <1>                0.0000
     25 H25         26.2993  36.4194  42.0943 H              1 <1>                0.0000
     26 H26         29.2373  37.1605  35.2005 H              1 <1>                0.0000
     27 H27         32.8529  37.4158  34.4678 H              1 <1>                0.0000
@<TRIPOS>BOND
    1    1    2 1     
    2    2    3 ar    
    3    2   17 ar    
    4    3    4 ar    
    5    3   18 1     
    6    4    5 ar    
    7    4   19 1     
    8    5    6 1     
    9    5   14 ar    
   10    6    7 1     
   11    7    8 1     
   12    7   20 1     
   13    7   21 1     
   14    8    9 ar    
   15    8   13 ar    
   16    9   10 ar    
   17    9   22 1     
   18   10   11 ar    
   19   10   23 1     
   20   11   12 ar    
   21   11   24 1     
   22   12   13 ar    
   23   12   25 1     
   24   14   15 1     
   25   14   17 ar    
   26   15   16 2     
   27   15   26 1     
   28   17   27 1     
@<TRIPOS>SUBSTRUCTURE
      1 ****           1
@<TRIPOS>COMMENT
> <Gold.Version>
2022.2.0

> <Gold.Id.Protein>
1qkm|1qkm_protein|mol2

> <Gold.Protein.RotatedTorsions>
[  496  491  490  487 ] final   54.99 input  -89.99 | X-H torsion

> <Gold.Protein.ActiveResidues>
 MET295  LEU298  THR299  LEU301  ALA302  GLU305  TRP335  MET336  LEU339  MET340 
 GLY342  LEU343  ARG346  PHE356  ILE373  ILE376  PHE377  LEU380  LYS471  GLY472 
 MET473  HIS475  LEU476  LEU477  ASN478  MET479  VAL484  VAL487 

> <Gold.Protein.RotatedAtoms>
   36.5110   33.3852   42.3313 H   0  0  0  0  0  0  0  0  0  0  0  0  # atno 496  bound_to 491 

> <Gold.Score>
     Score     S(PLP)   S(hbond)     S(cho)   S(metal)  DE(clash)   DE(tors)     intcor
     51.71     -49.55       0.00       1.00       0.00       0.20       0.66       0.68

> <Gold.PLP.Fitness>
51.7097

> <Gold.PLP.PLP>
-49.5489

> <Gold.PLP.part.hbond>
0.0000

> <Gold.PLP.part.metal>
0.0000

> <Gold.PLP.part.buried>
-4.6416

> <Gold.PLP.part.nonpolar>
-45.6047

> <Gold.PLP.part.repulsive>
0.1147

> <Gold.PLP.ligand.clash>
0.2003

> <Gold.PLP.ligand.torsion>
0.6615

> <Gold.PLP.Chemscore.Hbond>
0.0000

> <Gold.PLP.Chemscore.CHOScore>
1.0000

> <Gold.PLP.Chemscore.Metal>
0.0000

> <Gold.Chemscore.Hbonds>
donor molecule, donor type, donor heavy atom, donor atom, acceptor molecule, acceptor atom, score
      L1  C    12    25       P1   582  1.00

> <Gold.PLP.Chemscore.Internal.Correction>
0.6841

