#       Name:                EN300-27088_i001
#       Creating user name   aseyller
#       Creation time:       Fri Apr 21 18:47:16 2023


#       File generated by GOLD software.
#

@<TRIPOS>MOLECULE
EN300-27088_i001|benzaldehydes|mol2|625|dock18
    27    28     1
SMALL
USER_CHARGES


@<TRIPOS>ATOM
      1 Br1         33.7348  37.1671  34.3012 Br             1 <1>                0.0000
      2 C2          32.3252  37.2826  35.5563 C.ar           1 <1>                0.0000
      3 C3          32.2958  36.4205  36.6425 C.ar           1 <1>                0.0000
      4 C4          31.2726  36.4937  37.5664 C.ar           1 <1>                0.0000
      5 C5          30.2637  37.4330  37.4144 C.ar           1 <1>                0.0000
      6 O6          29.2582  37.5057  38.3214 O.3            1 <1>                0.0000
      7 C7          28.9040  36.2965  38.9957 C.3            1 <1>                0.0000
      8 C8          27.7240  36.5515  39.8977 C.ar           1 <1>                0.0000
      9 C9          27.8752  36.4437  41.2674 C.ar           1 <1>                0.0000
     10 C10         26.7836  36.6807  42.0882 C.ar           1 <1>                0.0000
     11 C11         25.5752  37.0190  41.4981 C.ar           1 <1>                0.0000
     12 C12         25.4998  37.1080  40.1212 C.ar           1 <1>                0.0000
     13 N13         26.5606  36.8803  39.3714 N.ar           1 <1>                0.0000
     14 C14         30.2885  38.3089  36.3168 C.ar           1 <1>                0.0000
     15 C15         29.2268  39.3078  36.1447 C.2            1 <1>                0.0000
     16 O16         28.3299  39.3858  36.9576 O.2            1 <1>                0.0000
     17 C17         31.3353  38.2263  35.3906 C.ar           1 <1>                0.0000
     18 H18         33.0785  35.6867  36.7661 H              1 <1>                0.0000
     19 H19         31.2578  35.8182  38.4088 H              1 <1>                0.0000
     20 H20         28.6423  35.5344  38.2616 H              1 <1>                0.0000
     21 H21         29.7491  35.9519  39.5917 H              1 <1>                0.0000
     22 H22         28.8317  36.1776  41.6926 H              1 <1>                0.0000
     23 H23         26.8721  36.6035  43.1619 H              1 <1>                0.0000
     24 H24         24.7039  37.2103  42.1069 H              1 <1>                0.0000
     25 H25         24.5623  37.3709  39.6538 H              1 <1>                0.0000
     26 H26         29.2441  39.9732  35.2942 H              1 <1>                0.0000
     27 H27         31.3626  38.8960  34.5439 H              1 <1>                0.0000
@<TRIPOS>BOND
    1    1    2 1     
    2    2    3 ar    
    3    2   17 ar    
    4    3    4 ar    
    5    3   18 1     
    6    4    5 ar    
    7    4   19 1     
    8    5    6 1     
    9    5   14 ar    
   10    6    7 1     
   11    7    8 1     
   12    7   20 1     
   13    7   21 1     
   14    8    9 ar    
   15    8   13 ar    
   16    9   10 ar    
   17    9   22 1     
   18   10   11 ar    
   19   10   23 1     
   20   11   12 ar    
   21   11   24 1     
   22   12   13 ar    
   23   12   25 1     
   24   14   15 1     
   25   14   17 ar    
   26   15   16 2     
   27   15   26 1     
   28   17   27 1     
@<TRIPOS>SUBSTRUCTURE
      1 ****           1
@<TRIPOS>COMMENT
> <Gold.Version>
2022.2.0

> <Gold.Id.Protein>
1qkm|1qkm_protein|mol2

> <Gold.Protein.RotatedTorsions>
[  496  491  490  487 ] final   15.82 input  -89.99 | X-H torsion

> <Gold.Protein.ActiveResidues>
 MET295  LEU298  THR299  LEU301  ALA302  GLU305  TRP335  MET336  LEU339  MET340 
 GLY342  LEU343  ARG346  PHE356  ILE373  ILE376  PHE377  LEU380  LYS471  GLY472 
 MET473  HIS475  LEU476  LEU477  ASN478  MET479  VAL484  VAL487 

> <Gold.Protein.RotatedAtoms>
   36.2883   33.9770   42.3389 H   0  0  0  0  0  0  0  0  0  0  0  0  # atno 496  bound_to 491 

> <Gold.Score>
     Score     S(PLP)   S(hbond)     S(cho)   S(metal)  DE(clash)   DE(tors)     intcor
     52.10     -49.65       0.00       0.86       0.00       0.00       0.40       0.68

> <Gold.PLP.Fitness>
52.1013

> <Gold.PLP.PLP>
-49.6534

> <Gold.PLP.part.hbond>
0.0000

> <Gold.PLP.part.metal>
0.0000

> <Gold.PLP.part.buried>
3.5025

> <Gold.PLP.part.nonpolar>
-53.6090

> <Gold.PLP.part.repulsive>
0.0432

> <Gold.PLP.ligand.clash>
0.0000

> <Gold.PLP.ligand.torsion>
0.4038

> <Gold.PLP.Chemscore.Hbond>
0.0000

> <Gold.PLP.Chemscore.CHOScore>
0.8571

> <Gold.PLP.Chemscore.Metal>
0.0000

> <Gold.Chemscore.Hbonds>
donor molecule, donor type, donor heavy atom, donor atom, acceptor molecule, acceptor atom, score
      L1  C    12    25       P1  1131  0.86

> <Gold.PLP.Chemscore.Internal.Correction>
0.6841

