#       Name:                EN300-27088_i001
#       Creating user name   aseyller
#       Creation time:       Fri Apr 21 18:47:05 2023


#       File generated by GOLD software.
#

@<TRIPOS>MOLECULE
EN300-27088_i001|benzaldehydes|mol2|625|dock7
    27    28     1
SMALL
USER_CHARGES


@<TRIPOS>ATOM
      1 Br1         33.9031  36.4001  34.9839 Br             1 <1>                0.0000
      2 C2          32.2988  37.0385  35.7547 C.ar           1 <1>                0.0000
      3 C3          31.4924  36.1767  36.4834 C.ar           1 <1>                0.0000
      4 C4          30.3185  36.6294  37.0515 C.ar           1 <1>                0.0000
      5 C5          29.9361  37.9536  36.8972 C.ar           1 <1>                0.0000
      6 O6          28.7831  38.3992  37.4549 O.3            1 <1>                0.0000
      7 C7          27.7224  37.4521  37.5961 C.3            1 <1>                0.0000
      8 C8          27.6301  37.0121  39.0345 C.ar           1 <1>                0.0000
      9 C9          26.4164  37.0783  39.6927 C.ar           1 <1>                0.0000
     10 C10         26.3422  36.6707  41.0155 C.ar           1 <1>                0.0000
     11 C11         27.4967  36.2094  41.6298 C.ar           1 <1>                0.0000
     12 C12         28.6745  36.1717  40.9080 C.ar           1 <1>                0.0000
     13 N13         28.7069  36.5631  39.6490 N.ar           1 <1>                0.0000
     14 C14         30.7489  38.8309  36.1609 C.ar           1 <1>                0.0000
     15 C15         30.3556  40.2348  35.9904 C.2            1 <1>                0.0000
     16 O16         29.3132  40.6344  36.4647 O.2            1 <1>                0.0000
     17 C17         31.9393  38.3588  35.5947 C.ar           1 <1>                0.0000
     18 H18         31.7847  35.1444  36.6067 H              1 <1>                0.0000
     19 H19         29.6968  35.9512  37.6169 H              1 <1>                0.0000
     20 H20         26.7814  37.9130  37.2960 H              1 <1>                0.0000
     21 H21         27.9212  36.5869  36.9636 H              1 <1>                0.0000
     22 H22         25.5371  37.4435  39.1829 H              1 <1>                0.0000
     23 H23         25.4075  36.7116  41.5551 H              1 <1>                0.0000
     24 H24         27.4758  35.8840  42.6594 H              1 <1>                0.0000
     25 H25         29.5780  35.8138  41.3790 H              1 <1>                0.0000
     26 H26         30.9943  40.9118  35.4426 H              1 <1>                0.0000
     27 H27         32.5706  39.0264  35.0273 H              1 <1>                0.0000
@<TRIPOS>BOND
    1    1    2 1     
    2    2    3 ar    
    3    2   17 ar    
    4    3    4 ar    
    5    3   18 1     
    6    4    5 ar    
    7    4   19 1     
    8    5    6 1     
    9    5   14 ar    
   10    6    7 1     
   11    7    8 1     
   12    7   20 1     
   13    7   21 1     
   14    8    9 ar    
   15    8   13 ar    
   16    9   10 ar    
   17    9   22 1     
   18   10   11 ar    
   19   10   23 1     
   20   11   12 ar    
   21   11   24 1     
   22   12   13 ar    
   23   12   25 1     
   24   14   15 1     
   25   14   17 ar    
   26   15   16 2     
   27   15   26 1     
   28   17   27 1     
@<TRIPOS>SUBSTRUCTURE
      1 ****           1
@<TRIPOS>COMMENT
> <Gold.Version>
2022.2.0

> <Gold.Id.Protein>
1qkm|1qkm_protein|mol2

> <Gold.Protein.RotatedTorsions>
[  496  491  490  487 ] final   30.29 input  -89.99 | X-H torsion

> <Gold.Protein.ActiveResidues>
 MET295  LEU298  THR299  LEU301  ALA302  GLU305  TRP335  MET336  LEU339  MET340 
 GLY342  LEU343  ARG346  PHE356  ILE373  ILE376  PHE377  LEU380  LYS471  GLY472 
 MET473  HIS475  LEU476  LEU477  ASN478  MET479  VAL484  VAL487 

> <Gold.Protein.RotatedAtoms>
   36.3478   33.7509   42.3809 H   0  0  0  0  0  0  0  0  0  0  0  0  # atno 496  bound_to 491 

> <Gold.Score>
     Score     S(PLP)   S(hbond)     S(cho)   S(metal)  DE(clash)   DE(tors)     intcor
     54.60     -52.40       0.00       1.00       0.00       0.00       0.74       0.68

> <Gold.PLP.Fitness>
54.6049

> <Gold.PLP.PLP>
-52.4017

> <Gold.PLP.part.hbond>
0.0000

> <Gold.PLP.part.metal>
0.0000

> <Gold.PLP.part.buried>
-2.5647

> <Gold.PLP.part.nonpolar>
-50.8404

> <Gold.PLP.part.repulsive>
0.0404

> <Gold.PLP.ligand.clash>
0.0000

> <Gold.PLP.ligand.torsion>
0.7405

> <Gold.PLP.Chemscore.Hbond>
0.0000

> <Gold.PLP.Chemscore.CHOScore>
1.0000

> <Gold.PLP.Chemscore.Metal>
0.0000

> <Gold.Chemscore.Hbonds>
donor molecule, donor type, donor heavy atom, donor atom, acceptor molecule, acceptor atom, score
      L1  C    12    25       P1   470  1.00

> <Gold.PLP.Chemscore.Internal.Correction>
0.6841

