#       Name:                EN300-27088_i001
#       Creating user name   aseyller
#       Creation time:       Fri Apr 21 18:47:01 2023


#       File generated by GOLD software.
#

@<TRIPOS>MOLECULE
EN300-27088_i001|benzaldehydes|mol2|625|dock3
    27    28     1
SMALL
USER_CHARGES


@<TRIPOS>ATOM
      1 Br1         34.9291  36.4391  35.1913 Br             1 <1>                0.0000
      2 C2          33.3528  36.3426  36.2314 C.ar           1 <1>                0.0000
      3 C3          32.4747  37.4160  36.2550 C.ar           1 <1>                0.0000
      4 C4          31.3203  37.3591  37.0100 C.ar           1 <1>                0.0000
      5 C5          31.0297  36.2244  37.7525 C.ar           1 <1>                0.0000
      6 O6          29.8960  36.1676  38.4944 O.3            1 <1>                0.0000
      7 C7          28.7721  36.9118  38.0199 C.3            1 <1>                0.0000
      8 C8          27.7026  36.9381  39.0813 C.ar           1 <1>                0.0000
      9 C9          26.4817  37.5249  38.8066 C.ar           1 <1>                0.0000
     10 C10         25.5046  37.5433  39.7897 C.ar           1 <1>                0.0000
     11 C11         25.7933  36.9680  41.0180 C.ar           1 <1>                0.0000
     12 C12         27.0365  36.3996  41.2198 C.ar           1 <1>                0.0000
     13 N13         27.9405  36.3960  40.2595 N.ar           1 <1>                0.0000
     14 C14         31.9149  35.1343  37.7321 C.ar           1 <1>                0.0000
     15 C15         31.6187  33.9273  38.5133 C.2            1 <1>                0.0000
     16 O16         30.4676  33.5955  38.7036 O.2            1 <1>                0.0000
     17 C17         33.0793  35.2044  36.9577 C.ar           1 <1>                0.0000
     18 H18         32.6957  38.3025  35.6791 H              1 <1>                0.0000
     19 H19         30.6425  38.1997  37.0225 H              1 <1>                0.0000
     20 H20         29.0820  37.9314  37.7909 H              1 <1>                0.0000
     21 H21         28.3785  36.4407  37.1192 H              1 <1>                0.0000
     22 H22         26.2916  37.9640  37.8384 H              1 <1>                0.0000
     23 H23         24.5414  37.9952  39.6036 H              1 <1>                0.0000
     24 H24         25.0559  36.9646  41.8071 H              1 <1>                0.0000
     25 H25         27.2692  35.9495  42.1736 H              1 <1>                0.0000
     26 H26         32.4256  33.3350  38.9187 H              1 <1>                0.0000
     27 H27         33.7655  34.3707  36.9357 H              1 <1>                0.0000
@<TRIPOS>BOND
    1    1    2 1     
    2    2    3 ar    
    3    2   17 ar    
    4    3    4 ar    
    5    3   18 1     
    6    4    5 ar    
    7    4   19 1     
    8    5    6 1     
    9    5   14 ar    
   10    6    7 1     
   11    7    8 1     
   12    7   20 1     
   13    7   21 1     
   14    8    9 ar    
   15    8   13 ar    
   16    9   10 ar    
   17    9   22 1     
   18   10   11 ar    
   19   10   23 1     
   20   11   12 ar    
   21   11   24 1     
   22   12   13 ar    
   23   12   25 1     
   24   14   15 1     
   25   14   17 ar    
   26   15   16 2     
   27   15   26 1     
   28   17   27 1     
@<TRIPOS>SUBSTRUCTURE
      1 ****           1
@<TRIPOS>COMMENT
> <Gold.Version>
2022.2.0

> <Gold.Id.Protein>
1qkm|1qkm_protein|mol2

> <Gold.Protein.RotatedTorsions>
[  496  491  490  487 ] final   52.56 input  -89.99 | X-H torsion

> <Gold.Protein.ActiveResidues>
 MET295  LEU298  THR299  LEU301  ALA302  GLU305  TRP335  MET336  LEU339  MET340 
 GLY342  LEU343  ARG346  PHE356  ILE373  ILE376  PHE377  LEU380  LYS471  GLY472 
 MET473  HIS475  LEU476  LEU477  ASN478  MET479  VAL484  VAL487 

> <Gold.Protein.RotatedAtoms>
   36.4921   33.4185   42.3429 H   0  0  0  0  0  0  0  0  0  0  0  0  # atno 496  bound_to 491 

> <Gold.Score>
     Score     S(PLP)   S(hbond)     S(cho)   S(metal)  DE(clash)   DE(tors)     intcor
     53.83     -51.39       0.00       1.00       0.00       0.00       0.62       0.68

> <Gold.PLP.Fitness>
53.8267

> <Gold.PLP.PLP>
-51.3886

> <Gold.PLP.part.hbond>
0.0000

> <Gold.PLP.part.metal>
0.0000

> <Gold.PLP.part.buried>
-1.9838

> <Gold.PLP.part.nonpolar>
-49.6372

> <Gold.PLP.part.repulsive>
0.1522

> <Gold.PLP.ligand.clash>
0.0000

> <Gold.PLP.ligand.torsion>
0.6230

> <Gold.PLP.Chemscore.Hbond>
0.0000

> <Gold.PLP.Chemscore.CHOScore>
1.0000

> <Gold.PLP.Chemscore.Metal>
0.0000

> <Gold.Chemscore.Hbonds>
donor molecule, donor type, donor heavy atom, donor atom, acceptor molecule, acceptor atom, score
      L1  C    12    25       P1   582  1.00

> <Gold.PLP.Chemscore.Internal.Correction>
0.6841

