#       Name:                EN300-27088_i001
#       Creating user name   aseyller
#       Creation time:       Fri Apr 21 18:46:59 2023


#       File generated by GOLD software.
#

@<TRIPOS>MOLECULE
EN300-27088_i001|benzaldehydes|mol2|625|dock1
    27    28     1
SMALL
USER_CHARGES


@<TRIPOS>ATOM
      1 Br1         33.3246  36.9973  34.5985 Br             1 <1>                0.0000
      2 C2          32.3298  36.5676  36.1483 C.ar           1 <1>                0.0000
      3 C3          31.3927  37.4653  36.6379 C.ar           1 <1>                0.0000
      4 C4          30.6596  37.1646  37.7683 C.ar           1 <1>                0.0000
      5 C5          30.8556  35.9585  38.4243 C.ar           1 <1>                0.0000
      6 O6          30.1359  35.6622  39.5348 O.3            1 <1>                0.0000
      7 C7          29.6522  36.7628  40.3073 C.3            1 <1>                0.0000
      8 C8          28.1471  36.7990  40.2425 C.ar           1 <1>                0.0000
      9 C9          27.5201  36.9965  39.0266 C.ar           1 <1>                0.0000
     10 C10         26.1351  37.0276  38.9778 C.ar           1 <1>                0.0000
     11 C11         25.4291  36.8580  40.1593 C.ar           1 <1>                0.0000
     12 C12         26.1247  36.6650  41.3376 C.ar           1 <1>                0.0000
     13 N13         27.4433  36.6363  41.3456 N.ar           1 <1>                0.0000
     14 C14         31.8028  35.0454  37.9329 C.ar           1 <1>                0.0000
     15 C15         32.0195  33.7653  38.6178 C.2            1 <1>                0.0000
     16 O16         31.4970  32.7554  38.1954 O.2            1 <1>                0.0000
     17 C17         32.5353  35.3620  36.7823 C.ar           1 <1>                0.0000
     18 H18         31.2358  38.4063  36.1315 H              1 <1>                0.0000
     19 H19         29.9323  37.8697  38.1425 H              1 <1>                0.0000
     20 H20         29.9686  36.6462  41.3438 H              1 <1>                0.0000
     21 H21         30.0555  37.6929  39.9067 H              1 <1>                0.0000
     22 H22         28.1020  37.1255  38.1259 H              1 <1>                0.0000
     23 H23         25.6181  37.1806  38.0420 H              1 <1>                0.0000
     24 H24         24.3493  36.8768  40.1587 H              1 <1>                0.0000
     25 H25         25.5824  36.5322  42.2620 H              1 <1>                0.0000
     26 H26         32.6441  33.7228  39.4979 H              1 <1>                0.0000
     27 H27         33.2654  34.6656  36.3972 H              1 <1>                0.0000
@<TRIPOS>BOND
    1    1    2 1     
    2    2    3 ar    
    3    2   17 ar    
    4    3    4 ar    
    5    3   18 1     
    6    4    5 ar    
    7    4   19 1     
    8    5    6 1     
    9    5   14 ar    
   10    6    7 1     
   11    7    8 1     
   12    7   20 1     
   13    7   21 1     
   14    8    9 ar    
   15    8   13 ar    
   16    9   10 ar    
   17    9   22 1     
   18   10   11 ar    
   19   10   23 1     
   20   11   12 ar    
   21   11   24 1     
   22   12   13 ar    
   23   12   25 1     
   24   14   15 1     
   25   14   17 ar    
   26   15   16 2     
   27   15   26 1     
   28   17   27 1     
@<TRIPOS>SUBSTRUCTURE
      1 ****           1
@<TRIPOS>COMMENT
> <Gold.Version>
2022.2.0

> <Gold.Id.Protein>
1qkm|1qkm_protein|mol2

> <Gold.Protein.RotatedTorsions>
[  496  491  490  487 ] final  -10.44 input  -89.99 | X-H torsion

> <Gold.Protein.ActiveResidues>
 MET295  LEU298  THR299  LEU301  ALA302  GLU305  TRP335  MET336  LEU339  MET340 
 GLY342  LEU343  ARG346  PHE356  ILE373  ILE376  PHE377  LEU380  LYS471  GLY472 
 MET473  HIS475  LEU476  LEU477  ASN478  MET479  VAL484  VAL487 

> <Gold.Protein.RotatedAtoms>
   36.2628   34.3551   42.1391 H   0  0  0  0  0  0  0  0  0  0  0  0  # atno 496  bound_to 491 

> <Gold.Score>
     Score     S(PLP)   S(hbond)     S(cho)   S(metal)  DE(clash)   DE(tors)     intcor
     57.21     -56.93       0.00       0.82       0.00       0.00       1.46       0.75

> <Gold.PLP.Fitness>
57.2125

> <Gold.PLP.PLP>
-56.9283

> <Gold.PLP.part.hbond>
0.0000

> <Gold.PLP.part.metal>
0.0000

> <Gold.PLP.part.buried>
-2.0034

> <Gold.PLP.part.nonpolar>
-56.3755

> <Gold.PLP.part.repulsive>
0.4290

> <Gold.PLP.ligand.clash>
0.0000

> <Gold.PLP.ligand.torsion>
1.4647

> <Gold.PLP.Chemscore.Hbond>
0.0000

> <Gold.PLP.Chemscore.CHOScore>
0.8212

> <Gold.PLP.Chemscore.Metal>
0.0000

> <Gold.Chemscore.Hbonds>
donor molecule, donor type, donor heavy atom, donor atom, acceptor molecule, acceptor atom, score
      L1  C    12    25       P1   582  0.82

> <Gold.PLP.Chemscore.Internal.Correction>
0.7499

