#       Name:                plp ligand
#       Creating user name   aseyller
#       Creation time:       Fri Apr 21 18:46:59 2023


#       File generated by GOLD software.
#

@<TRIPOS>MOLECULE
plp ligand
    27    28     1
SMALL
USER_CHARGES


@<TRIPOS>ATOM
      1 Br1         -6.1507   0.5423  -0.0010 NONPOLAR       1 <1>                0.0000
      2 C2          -4.2744   0.3069  -0.0008 NONPOLAR       1 <1>                0.0000
      3 C3          -3.4398   1.4147   0.0001 NONPOLAR       1 <1>                0.0000
      4 C4          -2.0683   1.2574   0.0002 NONPOLAR       1 <1>                0.0000
      5 C5          -1.5136  -0.0137  -0.0005 NONPOLAR       1 <1>                0.0000
      6 O6          -0.1665  -0.1692  -0.0004 ACCEPTOR       1 <1>                0.0000
      7 C7           0.6240   1.0213   0.0005 NONPOLAR       1 <1>                0.0000
      8 C8           2.0855   0.6538   0.0006 NONPOLAR       1 <1>                0.0000
      9 C9           2.4551  -0.6781  -0.0003 NONPOLAR       1 <1>                0.0000
     10 C10          3.8021  -1.0054  -0.0007 NONPOLAR       1 <1>                0.0000
     11 C11          4.7314   0.0239  -0.0003 NONPOLAR       1 <1>                0.0000
     12 C12          4.2870   1.3323   0.0005 NONPOLAR       1 <1>                0.0000
     13 N13          2.9970   1.6066  -0.0041 ACCEPTOR       1 <1>                0.0000
     14 C14         -2.3538  -1.1391  -0.0009 NONPOLAR       1 <1>                0.0000
     15 C15         -1.7793  -2.4899  -0.0013 NONPOLAR       1 <1>                0.0000
     16 O16         -2.5087  -3.4591  -0.0016 ACCEPTOR       1 <1>                0.0000
     17 C17         -3.7430  -0.9641   0.0042 NONPOLAR       1 <1>                0.0000
     18 H18         -3.8658   2.4071   0.0003                1 <1>                0.0000
     19 H19         -1.4262   2.1257   0.0006                1 <1>                0.0000
     20 H20          0.3971   1.6088  -0.8891                1 <1>                0.0000
     21 H21          0.3968   1.6076   0.8909                1 <1>                0.0000
     22 H22          1.7038  -1.4540  -0.0002                1 <1>                0.0000
     23 H23          4.1203  -2.0375  -0.0010                1 <1>                0.0000
     24 H24          5.7891  -0.1943  -0.0003                1 <1>                0.0000
     25 H25          5.0043   2.1397   0.0008                1 <1>                0.0000
     26 H26         -0.7073  -2.6208  -0.0012                1 <1>                0.0000
     27 H27         -4.3966  -1.8238   0.0043                1 <1>                0.0000
@<TRIPOS>BOND
    1    1    2 1     
    2    2    3 ar    
    3    2   17 ar    
    4    3    4 ar    
    5    3   18 1     
    6    4    5 ar    
    7    4   19 1     
    8    5    6 1     
    9    5   14 ar    
   10    6    7 1     
   11    7    8 1     
   12    7   20 1     
   13    7   21 1     
   14    8    9 ar    
   15    8   13 ar    
   16    9   10 ar    
   17    9   22 1     
   18   10   11 ar    
   19   10   23 1     
   20   11   12 ar    
   21   11   24 1     
   22   12   13 ar    
   23   12   25 1     
   24   14   15 1     
   25   14   17 ar    
   26   15   16 2     
   27   15   26 1     
   28   17   27 1     
@<TRIPOS>SUBSTRUCTURE
      1 ****           1
@<TRIPOS>SET
DONOR_HYDROGENS      STATIC     ATOMS    <user>   **** ""
0
ATOM$RED        STATIC     ATOMS    COLORGROUP SYSTEM
0
