#       Name:                EN300-246549_i001
#       Creating user name   aseyller
#       Creation time:       Sat Apr 22 07:55:31 2023


#       File generated by GOLD software.
#

@<TRIPOS>MOLECULE
EN300-246549_i001|amine_3|mol2|4094|dock13
    24    25     1
SMALL
USER_CHARGES


@<TRIPOS>ATOM
      1 C1          26.9236  36.7513  38.8706 C.3            1 <1>                0.0000
      2 O2          27.7446  37.5979  38.0236 O.3            1 <1>                0.0000
      3 C3          28.9635  37.1308  37.6895 C.2            1 <1>                0.0000
      4 O4          29.3869  36.1153  38.2046 O.2            1 <1>                0.0000
      5 C5          29.7840  37.8527  36.6979 C.2            1 <1>                0.0000
      6 N6          29.6220  39.1037  36.2979 N.2            1 <1>                0.0000
      7 N7          30.5179  39.4099  35.4228 N.pl3          1 <1>                0.0000
      8 C8          31.3232  38.3608  35.2042 C.2            1 <1>                0.0000
      9 C9          32.5099  38.2307  34.2834 C.3            1 <1>                0.0000
     10 C10         33.3006  36.9856  34.7103 C.3            1 <1>                0.0000
     11 N11         32.3888  35.8424  34.8544 N.3            1 <1>                0.0000
     12 C12         31.5264  35.9859  36.0413 C.3            1 <1>                0.0000
     13 C13         30.8919  37.3482  35.9994 C.2            1 <1>                0.0000
     14 H14         25.9710  37.2446  39.0632 H              1 <1>                0.0000
     15 H15         26.7454  35.7998  38.3696 H              1 <1>                0.0000
     16 H16         27.4383  36.5738  39.8149 H              1 <1>                0.0000
     17 H17         32.1682  38.1164  33.2547 H              1 <1>                0.0000
     18 H18         33.1410  39.1155  34.3674 H              1 <1>                0.0000
     19 H19         34.0519  36.7568  33.9545 H              1 <1>                0.0000
     20 H20         33.7935  37.1784  35.6632 H              1 <1>                0.0000
     21 H21         30.7541  35.2169  36.0300 H              1 <1>                0.0000
     22 H22         32.1271  35.8917  36.9460 H              1 <1>                0.0000
     23 H23         30.5974  40.2727  34.9866 H              1 <1>                0.0000
     24 H24         31.8367  35.7126  34.0199 H              1 <1>                0.0000
@<TRIPOS>BOND
    1    1    2 1     
    2    1   14 1     
    3    1   15 1     
    4    1   16 1     
    5    2    3 1     
    6    3    4 2     
    7    3    5 1     
    8    5    6 2     
    9    5   13 1     
   10    6    7 1     
   11    7    8 1     
   12    7   23 1     
   13    8    9 1     
   14    8   13 2     
   15    9   10 1     
   16    9   17 1     
   17    9   18 1     
   18   10   11 1     
   19   10   19 1     
   20   10   20 1     
   21   11   12 1     
   22   11   24 1     
   23   12   13 1     
   24   12   21 1     
   25   12   22 1     
@<TRIPOS>SUBSTRUCTURE
      1 ****           1
@<TRIPOS>SET
DONOR_HYDROGENS      STATIC     ATOMS    <user>   **** ""
2 23 24
ATOM$RED        STATIC     ATOMS    COLORGROUP SYSTEM
2 23 24
@<TRIPOS>COMMENT
> <Gold.Version>
2022.2.0

> <Gold.Id.Protein>
1qkm|1qkm_protein|mol2

> <Gold.Protein.RotatedTorsions>
[  496  491  490  487 ] final   -9.17 input  -89.99 | X-H torsion

> <Gold.Protein.ActiveResidues>
 MET295  LEU298  THR299  LEU301  ALA302  GLU305  TRP335  MET336  LEU339  MET340 
 GLY342  LEU343  ARG346  PHE356  ILE373  ILE376  PHE377  LEU380  LYS471  GLY472 
 MET473  HIS475  LEU476  LEU477  ASN478  MET479  VAL484  VAL487 

> <Gold.Protein.RotatedAtoms>
   36.2615   34.3388   42.1520 H   0  0  0  0  0  0  0  0  0  0  0  0  # atno 496  bound_to 491 

> <Gold.Score>
     Score     S(PLP)   S(hbond)     S(cho)   S(metal)  DE(clash)   DE(tors)     intcor
     35.20     -33.32       0.76       0.00       0.00       0.00       0.19       0.00

> <Gold.PLP.Fitness>
35.2029

> <Gold.PLP.PLP>
-33.3182

> <Gold.PLP.part.hbond>
-1.0000

> <Gold.PLP.part.metal>
0.0000

> <Gold.PLP.part.buried>
-4.4878

> <Gold.PLP.part.nonpolar>
-28.9143

> <Gold.PLP.part.repulsive>
0.0140

> <Gold.PLP.ligand.clash>
0.0000

> <Gold.PLP.ligand.torsion>
0.1914

> <Gold.PLP.Chemscore.Hbond>
0.7558

> <Gold.PLP.Chemscore.CHOScore>
0.0000

> <Gold.PLP.Chemscore.Metal>
0.0000

> <Gold.Chemscore.Hbonds>
donor molecule, donor type, donor heavy atom, donor atom, acceptor molecule, acceptor atom, score
      L1  H    11    24       P1  3187  0.76

> <Gold.PLP.Chemscore.Internal.Correction>
0.0000

