#       Name:                EN300-246549_i001
#       Creating user name   aseyller
#       Creation time:       Sat Apr 22 07:55:30 2023


#       File generated by GOLD software.
#

@<TRIPOS>MOLECULE
EN300-246549_i001|amine_3|mol2|4094|dock8
    24    25     1
SMALL
USER_CHARGES


@<TRIPOS>ATOM
      1 C1          28.5254  36.3897  40.7256 C.3            1 <1>                0.0000
      2 O2          29.7524  36.1115  40.0007 O.3            1 <1>                0.0000
      3 C3          29.9026  36.7068  38.8013 C.2            1 <1>                0.0000
      4 O4          29.0800  37.5136  38.4163 O.2            1 <1>                0.0000
      5 C5          31.0665  36.3787  37.9553 C.2            1 <1>                0.0000
      6 N6          31.9621  35.4299  38.1762 N.2            1 <1>                0.0000
      7 N7          32.8421  35.4216  37.2340 N.pl3          1 <1>                0.0000
      8 C8          32.5619  36.3766  36.3361 C.2            1 <1>                0.0000
      9 C9          33.2865  36.7514  35.0681 C.3            1 <1>                0.0000
     10 C10         32.3396  37.6181  34.2255 C.3            1 <1>                0.0000
     11 N11         31.7710  38.6875  35.0574 N.3            1 <1>                0.0000
     12 C12         30.7959  38.1565  36.0270 C.3            1 <1>                0.0000
     13 C13         31.4358  37.0082  36.7566 C.2            1 <1>                0.0000
     14 H14         28.5322  35.8495  41.6722 H              1 <1>                0.0000
     15 H15         28.4522  37.4600  40.9186 H              1 <1>                0.0000
     16 H16         27.6709  36.0686  40.1301 H              1 <1>                0.0000
     17 H17         34.1866  37.3163  35.3105 H              1 <1>                0.0000
     18 H18         33.5528  35.8506  34.5152 H              1 <1>                0.0000
     19 H19         32.8934  38.0593  33.3968 H              1 <1>                0.0000
     20 H20         31.5341  36.9978  33.8323 H              1 <1>                0.0000
     21 H21         30.5190  38.9373  36.7353 H              1 <1>                0.0000
     22 H22         29.9085  37.8045  35.5010 H              1 <1>                0.0000
     23 H23         33.5963  34.8136  37.1826 H              1 <1>                0.0000
     24 H24         32.4985  39.2080  35.5243 H              1 <1>                0.0000
@<TRIPOS>BOND
    1    1    2 1     
    2    1   14 1     
    3    1   15 1     
    4    1   16 1     
    5    2    3 1     
    6    3    4 2     
    7    3    5 1     
    8    5    6 2     
    9    5   13 1     
   10    6    7 1     
   11    7    8 1     
   12    7   23 1     
   13    8    9 1     
   14    8   13 2     
   15    9   10 1     
   16    9   17 1     
   17    9   18 1     
   18   10   11 1     
   19   10   19 1     
   20   10   20 1     
   21   11   12 1     
   22   11   24 1     
   23   12   13 1     
   24   12   21 1     
   25   12   22 1     
@<TRIPOS>SUBSTRUCTURE
      1 ****           1
@<TRIPOS>SET
DONOR_HYDROGENS      STATIC     ATOMS    <user>   **** ""
2 23 24
ATOM$RED        STATIC     ATOMS    COLORGROUP SYSTEM
2 23 24
@<TRIPOS>COMMENT
> <Gold.Version>
2022.2.0

> <Gold.Id.Protein>
1qkm|1qkm_protein|mol2

> <Gold.Protein.RotatedTorsions>
[  496  491  490  487 ] final  -67.63 input  -89.99 | X-H torsion

> <Gold.Protein.ActiveResidues>
 MET295  LEU298  THR299  LEU301  ALA302  GLU305  TRP335  MET336  LEU339  MET340 
 GLY342  LEU343  ARG346  PHE356  ILE373  ILE376  PHE377  LEU380  LYS471  GLY472 
 MET473  HIS475  LEU476  LEU477  ASN478  MET479  VAL484  VAL487 

> <Gold.Protein.RotatedAtoms>
   36.5583   34.7350   41.3753 H   0  0  0  0  0  0  0  0  0  0  0  0  # atno 496  bound_to 491 

> <Gold.Score>
     Score     S(PLP)   S(hbond)     S(cho)   S(metal)  DE(clash)   DE(tors)     intcor
     34.63     -34.74       0.00       0.00       0.00       0.00       0.05       0.00

> <Gold.PLP.Fitness>
34.6303

> <Gold.PLP.PLP>
-34.7381

> <Gold.PLP.part.hbond>
0.0000

> <Gold.PLP.part.metal>
0.0000

> <Gold.PLP.part.buried>
-5.5034

> <Gold.PLP.part.nonpolar>
-30.1332

> <Gold.PLP.part.repulsive>
0.4044

> <Gold.PLP.ligand.clash>
0.0000

> <Gold.PLP.ligand.torsion>
0.0539

> <Gold.PLP.Chemscore.Hbond>
0.0000

> <Gold.PLP.Chemscore.CHOScore>
0.0000

> <Gold.PLP.Chemscore.Metal>
0.0000

> <Gold.PLP.Chemscore.Internal.Correction>
0.0000

