#       Name:                EN300-246549_i001
#       Creating user name   aseyller
#       Creation time:       Sat Apr 22 07:55:32 2023


#       File generated by GOLD software.
#

@<TRIPOS>MOLECULE
EN300-246549_i001|amine_3|mol2|4094|dock19
    24    25     1
SMALL
USER_CHARGES


@<TRIPOS>ATOM
      1 C1          25.9544  36.9314  40.8649 C.3            1 <1>                0.0000
      2 O2          27.0182  36.9644  39.8773 O.3            1 <1>                0.0000
      3 C3          28.1961  36.4122  40.2283 C.2            1 <1>                0.0000
      4 O4          28.3107  35.8578  41.3031 O.2            1 <1>                0.0000
      5 C5          29.3468  36.4809  39.3069 C.2            1 <1>                0.0000
      6 N6          30.4755  35.7962  39.3991 N.2            1 <1>                0.0000
      7 N7          31.2618  36.1023  38.4243 N.pl3          1 <1>                0.0000
      8 C8          30.6785  37.0139  37.6333 C.2            1 <1>                0.0000
      9 C9          31.1916  37.6712  36.3772 C.3            1 <1>                0.0000
     10 C10         29.9945  38.3128  35.6609 C.3            1 <1>                0.0000
     11 N11         29.2177  39.1179  36.6135 N.3            1 <1>                0.0000
     12 C12         28.4856  38.2666  37.5686 C.3            1 <1>                0.0000
     13 C13         29.4551  37.2806  38.1587 C.2            1 <1>                0.0000
     14 H14         25.0636  37.4077  40.4556 H              1 <1>                0.0000
     15 H15         25.7280  35.8963  41.1206 H              1 <1>                0.0000
     16 H16         26.2731  37.4653  41.7602 H              1 <1>                0.0000
     17 H17         31.9225  38.4380  36.6340 H              1 <1>                0.0000
     18 H18         31.6513  36.9236  35.7308 H              1 <1>                0.0000
     19 H19         30.3547  38.9524  34.8552 H              1 <1>                0.0000
     20 H20         29.3594  37.5306  35.2450 H              1 <1>                0.0000
     21 H21         28.0579  38.8838  38.3587 H              1 <1>                0.0000
     22 H22         27.6914  37.7301  37.0494 H              1 <1>                0.0000
     23 H23         32.1456  35.7280  38.2839 H              1 <1>                0.0000
     24 H24         29.8092  39.7772  37.0965 H              1 <1>                0.0000
@<TRIPOS>BOND
    1    1    2 1     
    2    1   14 1     
    3    1   15 1     
    4    1   16 1     
    5    2    3 1     
    6    3    4 2     
    7    3    5 1     
    8    5    6 2     
    9    5   13 1     
   10    6    7 1     
   11    7    8 1     
   12    7   23 1     
   13    8    9 1     
   14    8   13 2     
   15    9   10 1     
   16    9   17 1     
   17    9   18 1     
   18   10   11 1     
   19   10   19 1     
   20   10   20 1     
   21   11   12 1     
   22   11   24 1     
   23   12   13 1     
   24   12   21 1     
   25   12   22 1     
@<TRIPOS>SUBSTRUCTURE
      1 ****           1
@<TRIPOS>SET
DONOR_HYDROGENS      STATIC     ATOMS    <user>   **** ""
2 23 24
ATOM$RED        STATIC     ATOMS    COLORGROUP SYSTEM
2 23 24
@<TRIPOS>COMMENT
> <Gold.Version>
2022.2.0

> <Gold.Id.Protein>
1qkm|1qkm_protein|mol2

> <Gold.Protein.RotatedTorsions>
[  496  491  490  487 ] final  -47.99 input  -89.99 | X-H torsion

> <Gold.Protein.ActiveResidues>
 MET295  LEU298  THR299  LEU301  ALA302  GLU305  TRP335  MET336  LEU339  MET340 
 GLY342  LEU343  ARG346  PHE356  ILE373  ILE376  PHE377  LEU380  LYS471  GLY472 
 MET473  HIS475  LEU476  LEU477  ASN478  MET479  VAL484  VAL487 

> <Gold.Protein.RotatedAtoms>
   36.4113   34.6953   41.6587 H   0  0  0  0  0  0  0  0  0  0  0  0  # atno 496  bound_to 491 

> <Gold.Score>
     Score     S(PLP)   S(hbond)     S(cho)   S(metal)  DE(clash)   DE(tors)     intcor
     32.69     -32.86       0.00       0.00       0.00       0.00       0.09       0.00

> <Gold.PLP.Fitness>
32.6875

> <Gold.PLP.PLP>
-32.8618

> <Gold.PLP.part.hbond>
0.0000

> <Gold.PLP.part.metal>
0.0000

> <Gold.PLP.part.buried>
-5.6309

> <Gold.PLP.part.nonpolar>
-27.7543

> <Gold.PLP.part.repulsive>
0.6971

> <Gold.PLP.ligand.clash>
0.0000

> <Gold.PLP.ligand.torsion>
0.0872

> <Gold.PLP.Chemscore.Hbond>
0.0000

> <Gold.PLP.Chemscore.CHOScore>
0.0000

> <Gold.PLP.Chemscore.Metal>
0.0000

> <Gold.PLP.Chemscore.Internal.Correction>
0.0000

