#       Name:                EN300-246549_i001
#       Creating user name   aseyller
#       Creation time:       Sat Apr 22 07:55:29 2023


#       File generated by GOLD software.
#

@<TRIPOS>MOLECULE
EN300-246549_i001|amine_3|mol2|4094|dock3
    24    25     1
SMALL
USER_CHARGES


@<TRIPOS>ATOM
      1 C1          29.7846  39.6396  35.8462 C.3            1 <1>                0.0000
      2 O2          29.2463  38.8121  36.9109 O.3            1 <1>                0.0000
      3 C3          30.0312  37.8173  37.3688 C.2            1 <1>                0.0000
      4 O4          31.0762  37.5598  36.8053 O.2            1 <1>                0.0000
      5 C5          29.6215  37.0406  38.5548 C.2            1 <1>                0.0000
      6 N6          30.4176  36.3868  39.3855 N.2            1 <1>                0.0000
      7 N7          29.7234  35.8194  40.3120 N.pl3          1 <1>                0.0000
      8 C8          28.4204  36.0782  40.1327 C.2            1 <1>                0.0000
      9 C9          27.2294  35.6456  40.9496 C.3            1 <1>                0.0000
     10 C10         26.0407  36.5325  40.5520 C.3            1 <1>                0.0000
     11 N11         25.9173  36.5725  39.0884 N.3            1 <1>                0.0000
     12 C12         27.0050  37.3566  38.4761 C.3            1 <1>                0.0000
     13 C13         28.3121  36.8562  39.0251 C.2            1 <1>                0.0000
     14 H14         29.0533  40.3998  35.5717 H              1 <1>                0.0000
     15 H15         30.6997  40.1227  36.1888 H              1 <1>                0.0000
     16 H16         30.0051  39.0175  34.9787 H              1 <1>                0.0000
     17 H17         26.9974  34.6014  40.7398 H              1 <1>                0.0000
     18 H18         27.4446  35.7707  42.0108 H              1 <1>                0.0000
     19 H19         25.1254  36.1258  40.9819 H              1 <1>                0.0000
     20 H20         26.1997  37.5425  40.9299 H              1 <1>                0.0000
     21 H21         26.9852  37.2304  37.3936 H              1 <1>                0.0000
     22 H22         26.8845  38.4106  38.7264 H              1 <1>                0.0000
     23 H23         30.0902  35.2838  41.0329 H              1 <1>                0.0000
     24 H24         25.8820  35.6407  38.7028 H              1 <1>                0.0000
@<TRIPOS>BOND
    1    1    2 1     
    2    1   14 1     
    3    1   15 1     
    4    1   16 1     
    5    2    3 1     
    6    3    4 2     
    7    3    5 1     
    8    5    6 2     
    9    5   13 1     
   10    6    7 1     
   11    7    8 1     
   12    7   23 1     
   13    8    9 1     
   14    8   13 2     
   15    9   10 1     
   16    9   17 1     
   17    9   18 1     
   18   10   11 1     
   19   10   19 1     
   20   10   20 1     
   21   11   12 1     
   22   11   24 1     
   23   12   13 1     
   24   12   21 1     
   25   12   22 1     
@<TRIPOS>SUBSTRUCTURE
      1 ****           1
@<TRIPOS>SET
DONOR_HYDROGENS      STATIC     ATOMS    <user>   **** ""
2 23 24
ATOM$RED        STATIC     ATOMS    COLORGROUP SYSTEM
2 23 24
@<TRIPOS>COMMENT
> <Gold.Version>
2022.2.0

> <Gold.Id.Protein>
1qkm|1qkm_protein|mol2

> <Gold.Protein.RotatedTorsions>
[  496  491  490  487 ] final   73.30 input  -89.99 | X-H torsion

> <Gold.Protein.ActiveResidues>
 MET295  LEU298  THR299  LEU301  ALA302  GLU305  TRP335  MET336  LEU339  MET340 
 GLY342  LEU343  ARG346  PHE356  ILE373  ILE376  PHE377  LEU380  LYS471  GLY472 
 MET473  HIS475  LEU476  LEU477  ASN478  MET479  VAL484  VAL487 

> <Gold.Protein.RotatedAtoms>
   36.6669   33.1644   42.2009 H   0  0  0  0  0  0  0  0  0  0  0  0  # atno 496  bound_to 491 

> <Gold.Score>
     Score     S(PLP)   S(hbond)     S(cho)   S(metal)  DE(clash)   DE(tors)     intcor
     37.72     -35.99       0.78       0.00       0.00       0.00       0.32       0.00

> <Gold.PLP.Fitness>
37.7161

> <Gold.PLP.PLP>
-35.9949

> <Gold.PLP.part.hbond>
-1.0000

> <Gold.PLP.part.metal>
0.0000

> <Gold.PLP.part.buried>
-4.6132

> <Gold.PLP.part.nonpolar>
-31.0963

> <Gold.PLP.part.repulsive>
0.1540

> <Gold.PLP.ligand.clash>
0.0000

> <Gold.PLP.ligand.torsion>
0.3154

> <Gold.PLP.Chemscore.Hbond>
0.7840

> <Gold.PLP.Chemscore.CHOScore>
0.0000

> <Gold.PLP.Chemscore.Metal>
0.0000

> <Gold.Chemscore.Hbonds>
donor molecule, donor type, donor heavy atom, donor atom, acceptor molecule, acceptor atom, score
      L1  H     7    23       P1   470  0.78

> <Gold.PLP.Chemscore.Internal.Correction>
0.0000

