#       Name:                EN300-246549_i001
#       Creating user name   aseyller
#       Creation time:       Sat Apr 22 07:55:31 2023


#       File generated by GOLD software.
#

@<TRIPOS>MOLECULE
EN300-246549_i001|amine_3|mol2|4094|dock14
    24    25     1
SMALL
USER_CHARGES


@<TRIPOS>ATOM
      1 C1          26.4507  37.3803  38.8035 C.3            1 <1>                0.0000
      2 O2          27.7430  36.7315  38.9347 O.3            1 <1>                0.0000
      3 C3          28.7298  37.1646  38.1259 C.2            1 <1>                0.0000
      4 O4          28.5245  38.0795  37.3535 O.2            1 <1>                0.0000
      5 C5          30.0599  36.5276  38.1784 C.2            1 <1>                0.0000
      6 N6          30.4937  35.6773  39.0950 N.2            1 <1>                0.0000
      7 N7          31.7038  35.3189  38.8312 N.pl3          1 <1>                0.0000
      8 C8          32.1279  35.9236  37.7126 C.2            1 <1>                0.0000
      9 C9          33.4546  35.8209  37.0038 C.3            1 <1>                0.0000
     10 C10         33.2746  36.3855  35.5873 C.3            1 <1>                0.0000
     11 N11         32.6079  37.6932  35.6538 N.3            1 <1>                0.0000
     12 C12         31.1891  37.5573  36.0298 C.3            1 <1>                0.0000
     13 C13         31.1093  36.7008  37.2628 C.2            1 <1>                0.0000
     14 H14         25.7486  36.9380  39.5103 H              1 <1>                0.0000
     15 H15         26.5555  38.4447  39.0136 H              1 <1>                0.0000
     16 H16         26.0778  37.2454  37.7883 H              1 <1>                0.0000
     17 H17         34.2055  36.4013  37.5400 H              1 <1>                0.0000
     18 H18         33.7638  34.7771  36.9487 H              1 <1>                0.0000
     19 H19         34.2509  36.5001  35.1162 H              1 <1>                0.0000
     20 H20         32.6673  35.6987  34.9979 H              1 <1>                0.0000
     21 H21         30.7668  38.5412  36.2342 H              1 <1>                0.0000
     22 H22         30.6378  37.0808  35.2192 H              1 <1>                0.0000
     23 H23         32.2299  34.7023  39.3641 H              1 <1>                0.0000
     24 H24         33.0915  38.3140  36.2854 H              1 <1>                0.0000
@<TRIPOS>BOND
    1    1    2 1     
    2    1   14 1     
    3    1   15 1     
    4    1   16 1     
    5    2    3 1     
    6    3    4 2     
    7    3    5 1     
    8    5    6 2     
    9    5   13 1     
   10    6    7 1     
   11    7    8 1     
   12    7   23 1     
   13    8    9 1     
   14    8   13 2     
   15    9   10 1     
   16    9   17 1     
   17    9   18 1     
   18   10   11 1     
   19   10   19 1     
   20   10   20 1     
   21   11   12 1     
   22   11   24 1     
   23   12   13 1     
   24   12   21 1     
   25   12   22 1     
@<TRIPOS>SUBSTRUCTURE
      1 ****           1
@<TRIPOS>SET
DONOR_HYDROGENS      STATIC     ATOMS    <user>   **** ""
2 23 24
ATOM$RED        STATIC     ATOMS    COLORGROUP SYSTEM
2 23 24
@<TRIPOS>COMMENT
> <Gold.Version>
2022.2.0

> <Gold.Id.Protein>
1qkm|1qkm_protein|mol2

> <Gold.Protein.RotatedTorsions>
[  496  491  490  487 ] final   24.42 input  -89.99 | X-H torsion

> <Gold.Protein.ActiveResidues>
 MET295  LEU298  THR299  LEU301  ALA302  GLU305  TRP335  MET336  LEU339  MET340 
 GLY342  LEU343  ARG346  PHE356  ILE373  ILE376  PHE377  LEU380  LYS471  GLY472 
 MET473  HIS475  LEU476  LEU477  ASN478  MET479  VAL484  VAL487 

> <Gold.Protein.RotatedAtoms>
   36.3201   33.8428   42.3702 H   0  0  0  0  0  0  0  0  0  0  0  0  # atno 496  bound_to 491 

> <Gold.Score>
     Score     S(PLP)   S(hbond)     S(cho)   S(metal)  DE(clash)   DE(tors)     intcor
     33.76     -33.88       0.00       0.00       0.00       0.00       0.06       0.00

> <Gold.PLP.Fitness>
33.7604

> <Gold.PLP.PLP>
-33.8842

> <Gold.PLP.part.hbond>
-0.3261

> <Gold.PLP.part.metal>
0.0000

> <Gold.PLP.part.buried>
-5.3411

> <Gold.PLP.part.nonpolar>
-29.0134

> <Gold.PLP.part.repulsive>
0.1585

> <Gold.PLP.ligand.clash>
0.0000

> <Gold.PLP.ligand.torsion>
0.0619

> <Gold.PLP.Chemscore.Hbond>
0.0000

> <Gold.PLP.Chemscore.CHOScore>
0.0000

> <Gold.PLP.Chemscore.Metal>
0.0000

> <Gold.PLP.Chemscore.Internal.Correction>
0.0000

