#       Name:                EN300-246549_i001
#       Creating user name   aseyller
#       Creation time:       Sat Apr 22 07:55:30 2023


#       File generated by GOLD software.
#

@<TRIPOS>MOLECULE
EN300-246549_i001|amine_3|mol2|4094|dock12
    24    25     1
SMALL
USER_CHARGES


@<TRIPOS>ATOM
      1 C1          32.4406  35.7564  38.1383 C.3            1 <1>                0.0000
      2 O2          31.0933  35.9894  38.6270 O.3            1 <1>                0.0000
      3 C3          30.3844  36.9645  38.0252 C.2            1 <1>                0.0000
      4 O4          30.9210  37.6943  37.2157 O.2            1 <1>                0.0000
      5 C5          28.9562  37.1460  38.3496 C.2            1 <1>                0.0000
      6 N6          28.0489  37.7608  37.6080 N.2            1 <1>                0.0000
      7 N7          26.9016  37.7328  38.1957 N.pl3          1 <1>                0.0000
      8 C8          27.0016  37.0880  39.3666 C.2            1 <1>                0.0000
      9 C9          25.9436  36.7947  40.3999 C.3            1 <1>                0.0000
     10 C10         26.4880  35.7022  41.3315 C.3            1 <1>                0.0000
     11 N11         27.8385  36.0623  41.7849 N.3            1 <1>                0.0000
     12 C12         28.8229  35.9465  40.6939 C.3            1 <1>                0.0000
     13 C13         28.2942  36.6949  39.5020 C.2            1 <1>                0.0000
     14 H14         32.8987  34.9475  38.7073 H              1 <1>                0.0000
     15 H15         32.4024  35.4827  37.0839 H              1 <1>                0.0000
     16 H16         33.0320  36.6643  38.2567 H              1 <1>                0.0000
     17 H17         25.7283  37.6959  40.9740 H              1 <1>                0.0000
     18 H18         25.0360  36.4429  39.9094 H              1 <1>                0.0000
     19 H19         25.8306  35.6018  42.1952 H              1 <1>                0.0000
     20 H20         26.5266  34.7543  40.7947 H              1 <1>                0.0000
     21 H21         29.7738  36.3761  41.0092 H              1 <1>                0.0000
     22 H22         28.9611  34.8972  40.4330 H              1 <1>                0.0000
     23 H23         26.0861  38.1213  37.8423 H              1 <1>                0.0000
     24 H24         27.8505  36.9881  42.1860 H              1 <1>                0.0000
@<TRIPOS>BOND
    1    1    2 1     
    2    1   14 1     
    3    1   15 1     
    4    1   16 1     
    5    2    3 1     
    6    3    4 2     
    7    3    5 1     
    8    5    6 2     
    9    5   13 1     
   10    6    7 1     
   11    7    8 1     
   12    7   23 1     
   13    8    9 1     
   14    8   13 2     
   15    9   10 1     
   16    9   17 1     
   17    9   18 1     
   18   10   11 1     
   19   10   19 1     
   20   10   20 1     
   21   11   12 1     
   22   11   24 1     
   23   12   13 1     
   24   12   21 1     
   25   12   22 1     
@<TRIPOS>SUBSTRUCTURE
      1 ****           1
@<TRIPOS>SET
DONOR_HYDROGENS      STATIC     ATOMS    <user>   **** ""
2 23 24
ATOM$RED        STATIC     ATOMS    COLORGROUP SYSTEM
2 23 24
@<TRIPOS>COMMENT
> <Gold.Version>
2022.2.0

> <Gold.Id.Protein>
1qkm|1qkm_protein|mol2

> <Gold.Protein.RotatedTorsions>
[  496  491  490  487 ] final  -60.18 input  -89.99 | X-H torsion

> <Gold.Protein.ActiveResidues>
 MET295  LEU298  THR299  LEU301  ALA302  GLU305  TRP335  MET336  LEU339  MET340 
 GLY342  LEU343  ARG346  PHE356  ILE373  ILE376  PHE377  LEU380  LYS471  GLY472 
 MET473  HIS475  LEU476  LEU477  ASN478  MET479  VAL484  VAL487 

> <Gold.Protein.RotatedAtoms>
   36.4984   34.7323   41.4821 H   0  0  0  0  0  0  0  0  0  0  0  0  # atno 496  bound_to 491 

> <Gold.Score>
     Score     S(PLP)   S(hbond)     S(cho)   S(metal)  DE(clash)   DE(tors)     intcor
     34.57     -35.07       0.00       0.00       0.00       0.00       0.25       0.00

> <Gold.PLP.Fitness>
34.5735

> <Gold.PLP.PLP>
-35.0667

> <Gold.PLP.part.hbond>
-0.8967

> <Gold.PLP.part.metal>
0.0000

> <Gold.PLP.part.buried>
-2.6934

> <Gold.PLP.part.nonpolar>
-31.9388

> <Gold.PLP.part.repulsive>
0.0831

> <Gold.PLP.ligand.clash>
0.0000

> <Gold.PLP.ligand.torsion>
0.2466

> <Gold.PLP.Chemscore.Hbond>
0.0000

> <Gold.PLP.Chemscore.CHOScore>
0.0000

> <Gold.PLP.Chemscore.Metal>
0.0000

> <Gold.PLP.Chemscore.Internal.Correction>
0.0000

