#       Name:                EN300-246549_i001
#       Creating user name   aseyller
#       Creation time:       Sat Apr 22 07:55:30 2023


#       File generated by GOLD software.
#

@<TRIPOS>MOLECULE
EN300-246549_i001|amine_3|mol2|4094|dock11
    24    25     1
SMALL
USER_CHARGES


@<TRIPOS>ATOM
      1 C1          25.3432  37.2444  41.2226 C.3            1 <1>                0.0000
      2 O2          26.4393  36.4055  40.7719 O.3            1 <1>                0.0000
      3 C3          27.0793  36.7862  39.6490 C.2            1 <1>                0.0000
      4 O4          26.4803  37.3954  38.7854 O.2            1 <1>                0.0000
      5 C5          28.5079  36.4632  39.4684 C.2            1 <1>                0.0000
      6 N6          29.2334  35.6435  40.2120 N.2            1 <1>                0.0000
      7 N7          30.4434  35.5957  39.7695 N.pl3          1 <1>                0.0000
      8 C8          30.5719  36.3912  38.6983 C.2            1 <1>                0.0000
      9 C9          31.7795  36.6629  37.8374 C.3            1 <1>                0.0000
     10 C10         31.2906  37.3139  36.5356 C.3            1 <1>                0.0000
     11 N11         30.3795  38.4241  36.8460 N.3            1 <1>                0.0000
     12 C12         29.0869  37.9345  37.3583 C.3            1 <1>                0.0000
     13 C13         29.3605  36.9608  38.4708 C.2            1 <1>                0.0000
     14 H14         24.9164  36.8259  42.1340 H              1 <1>                0.0000
     15 H15         25.7137  38.2497  41.4231 H              1 <1>                0.0000
     16 H16         24.5768  37.2874  40.4488 H              1 <1>                0.0000
     17 H17         32.4582  37.3396  38.3565 H              1 <1>                0.0000
     18 H18         32.2907  35.7267  37.6127 H              1 <1>                0.0000
     19 H19         32.1462  37.6928  35.9765 H              1 <1>                0.0000
     20 H20         30.7658  36.5717  35.9340 H              1 <1>                0.0000
     21 H21         28.4995  38.7719  37.7350 H              1 <1>                0.0000
     22 H22         28.5416  37.4313  36.5599 H              1 <1>                0.0000
     23 H23         31.1560  35.0624  40.1551 H              1 <1>                0.0000
     24 H24         30.8042  39.0701  37.4944 H              1 <1>                0.0000
@<TRIPOS>BOND
    1    1    2 1     
    2    1   14 1     
    3    1   15 1     
    4    1   16 1     
    5    2    3 1     
    6    3    4 2     
    7    3    5 1     
    8    5    6 2     
    9    5   13 1     
   10    6    7 1     
   11    7    8 1     
   12    7   23 1     
   13    8    9 1     
   14    8   13 2     
   15    9   10 1     
   16    9   17 1     
   17    9   18 1     
   18   10   11 1     
   19   10   19 1     
   20   10   20 1     
   21   11   12 1     
   22   11   24 1     
   23   12   13 1     
   24   12   21 1     
   25   12   22 1     
@<TRIPOS>SUBSTRUCTURE
      1 ****           1
@<TRIPOS>SET
DONOR_HYDROGENS      STATIC     ATOMS    <user>   **** ""
2 23 24
ATOM$RED        STATIC     ATOMS    COLORGROUP SYSTEM
2 23 24
@<TRIPOS>COMMENT
> <Gold.Version>
2022.2.0

> <Gold.Id.Protein>
1qkm|1qkm_protein|mol2

> <Gold.Protein.RotatedTorsions>
[  496  491  490  487 ] final  -37.65 input  -89.99 | X-H torsion

> <Gold.Protein.ActiveResidues>
 MET295  LEU298  THR299  LEU301  ALA302  GLU305  TRP335  MET336  LEU339  MET340 
 GLY342  LEU343  ARG346  PHE356  ILE373  ILE376  PHE377  LEU380  LYS471  GLY472 
 MET473  HIS475  LEU476  LEU477  ASN478  MET479  VAL484  VAL487 

> <Gold.Protein.RotatedAtoms>
   36.3507   34.6336   41.8049 H   0  0  0  0  0  0  0  0  0  0  0  0  # atno 496  bound_to 491 

> <Gold.Score>
     Score     S(PLP)   S(hbond)     S(cho)   S(metal)  DE(clash)   DE(tors)     intcor
     34.86     -34.03       0.56       0.00       0.00       0.00       0.43       0.00

> <Gold.PLP.Fitness>
34.8580

> <Gold.PLP.PLP>
-34.0346

> <Gold.PLP.part.hbond>
-1.0000

> <Gold.PLP.part.metal>
0.0000

> <Gold.PLP.part.buried>
-4.6941

> <Gold.PLP.part.nonpolar>
-28.8687

> <Gold.PLP.part.repulsive>
0.3309

> <Gold.PLP.ligand.clash>
0.0000

> <Gold.PLP.ligand.torsion>
0.4283

> <Gold.PLP.Chemscore.Hbond>
0.5600

> <Gold.PLP.Chemscore.CHOScore>
0.0000

> <Gold.PLP.Chemscore.Metal>
0.0000

> <Gold.Chemscore.Hbonds>
donor molecule, donor type, donor heavy atom, donor atom, acceptor molecule, acceptor atom, score
      L1  H     7    23       P1   470  0.56

> <Gold.PLP.Chemscore.Internal.Correction>
0.0000

