#       Name:                EN300-246549_i001
#       Creating user name   aseyller
#       Creation time:       Sat Apr 22 07:55:28 2023


#       File generated by GOLD software.
#

@<TRIPOS>MOLECULE
EN300-246549_i001|amine_3|mol2|4094|dock1
    24    25     1
SMALL
USER_CHARGES


@<TRIPOS>ATOM
      1 C1          31.1710  38.2155  35.3041 C.3            1 <1>                0.0000
      2 O2          30.9532  37.5623  36.5825 O.3            1 <1>                0.0000
      3 C3          29.7634  37.7690  37.1801 C.2            1 <1>                0.0000
      4 O4          28.9427  38.5001  36.6627 O.2            1 <1>                0.0000
      5 C5          29.4573  37.1071  38.4631 C.2            1 <1>                0.0000
      6 N6          30.3213  36.5209  39.2763 N.2            1 <1>                0.0000
      7 N7          29.7097  36.0476  40.3079 N.pl3          1 <1>                0.0000
      8 C8          28.3971  36.3054  40.2214 C.2            1 <1>                0.0000
      9 C9          27.2815  35.9627  41.1759 C.3            1 <1>                0.0000
     10 C10         26.0660  36.8250  40.8058 C.3            1 <1>                0.0000
     11 N11         25.8132  36.7348  39.3611 N.3            1 <1>                0.0000
     12 C12         26.8456  37.4472  38.5869 C.3            1 <1>                0.0000
     13 C13         28.1941  36.9820  39.0617 C.2            1 <1>                0.0000
     14 H14         32.1654  37.9666  34.9337 H              1 <1>                0.0000
     15 H15         30.4215  37.8750  34.5898 H              1 <1>                0.0000
     16 H16         31.0897  39.2952  35.4293 H              1 <1>                0.0000
     17 H17         27.0272  34.9069  41.0828 H              1 <1>                0.0000
     18 H18         27.5907  36.1800  42.1983 H              1 <1>                0.0000
     19 H19         25.1908  36.4699  41.3497 H              1 <1>                0.0000
     20 H20         26.2624  37.8628  41.0752 H              1 <1>                0.0000
     21 H21         26.7291  37.2244  37.5263 H              1 <1>                0.0000
     22 H22         26.7525  38.5208  38.7504 H              1 <1>                0.0000
     23 H23         30.1367  35.5745  41.0392 H              1 <1>                0.0000
     24 H24         25.7397  35.7726  39.0662 H              1 <1>                0.0000
@<TRIPOS>BOND
    1    1    2 1     
    2    1   14 1     
    3    1   15 1     
    4    1   16 1     
    5    2    3 1     
    6    3    4 2     
    7    3    5 1     
    8    5    6 2     
    9    5   13 1     
   10    6    7 1     
   11    7    8 1     
   12    7   23 1     
   13    8    9 1     
   14    8   13 2     
   15    9   10 1     
   16    9   17 1     
   17    9   18 1     
   18   10   11 1     
   19   10   19 1     
   20   10   20 1     
   21   11   12 1     
   22   11   24 1     
   23   12   13 1     
   24   12   21 1     
   25   12   22 1     
@<TRIPOS>SUBSTRUCTURE
      1 ****           1
@<TRIPOS>SET
DONOR_HYDROGENS      STATIC     ATOMS    <user>   **** ""
2 23 24
ATOM$RED        STATIC     ATOMS    COLORGROUP SYSTEM
2 23 24
@<TRIPOS>COMMENT
> <Gold.Version>
2022.2.0

> <Gold.Id.Protein>
1qkm|1qkm_protein|mol2

> <Gold.Protein.RotatedTorsions>
[  496  491  490  487 ] final  -56.15 input  -89.99 | X-H torsion

> <Gold.Protein.ActiveResidues>
 MET295  LEU298  THR299  LEU301  ALA302  GLU305  TRP335  MET336  LEU339  MET340 
 GLY342  LEU343  ARG346  PHE356  ILE373  ILE376  PHE377  LEU380  LYS471  GLY472 
 MET473  HIS475  LEU476  LEU477  ASN478  MET479  VAL484  VAL487 

> <Gold.Protein.RotatedAtoms>
   36.4680   34.7245   41.5404 H   0  0  0  0  0  0  0  0  0  0  0  0  # atno 496  bound_to 491 

> <Gold.Score>
     Score     S(PLP)   S(hbond)     S(cho)   S(metal)  DE(clash)   DE(tors)     intcor
     38.57     -35.80       0.99       0.00       0.00       0.00       0.10       0.00

> <Gold.PLP.Fitness>
38.5674

> <Gold.PLP.PLP>
-35.7974

> <Gold.PLP.part.hbond>
-1.0000

> <Gold.PLP.part.metal>
0.0000

> <Gold.PLP.part.buried>
-4.7431

> <Gold.PLP.part.nonpolar>
-30.3510

> <Gold.PLP.part.repulsive>
0.1325

> <Gold.PLP.ligand.clash>
0.0000

> <Gold.PLP.ligand.torsion>
0.1030

> <Gold.PLP.Chemscore.Hbond>
0.9920

> <Gold.PLP.Chemscore.CHOScore>
0.0000

> <Gold.PLP.Chemscore.Metal>
0.0000

> <Gold.Chemscore.Hbonds>
donor molecule, donor type, donor heavy atom, donor atom, acceptor molecule, acceptor atom, score
      L1  H     7    23       P1   470  0.99

> <Gold.PLP.Chemscore.Internal.Correction>
0.0001

