#       Name:                EN300-246549_i001
#       Creating user name   aseyller
#       Creation time:       Sat Apr 22 07:55:32 2023


#       File generated by GOLD software.
#

@<TRIPOS>MOLECULE
EN300-246549_i001|amine_3|mol2|4094|dock18
    24    25     1
SMALL
USER_CHARGES


@<TRIPOS>ATOM
      1 C1          27.0757  37.0367  38.5939 C.3            1 <1>                0.0000
      2 O2          28.3407  37.0841  37.8827 O.3            1 <1>                0.0000
      3 C3          29.4211  36.5962  38.5232 C.2            1 <1>                0.0000
      4 O4          29.3259  36.2182  39.6737 O.2            1 <1>                0.0000
      5 C5          30.7201  36.5211  37.8268 C.2            1 <1>                0.0000
      6 N6          31.7775  35.8181  38.1996 N.2            1 <1>                0.0000
      7 N7          32.7401  35.9834  37.3580 N.pl3          1 <1>                0.0000
      8 C8          32.3552  36.8128  36.3778 C.2            1 <1>                0.0000
      9 C9          33.1177  37.3019  35.1726 C.3            1 <1>                0.0000
     10 C10         32.1025  37.8906  34.1824 C.3            1 <1>                0.0000
     11 N11         31.2100  38.8254  34.8815 N.3            1 <1>                0.0000
     12 C12         30.2763  38.1150  35.7739 C.3            1 <1>                0.0000
     13 C13         31.0728  37.1764  36.6370 C.2            1 <1>                0.0000
     14 H14         26.2906  37.4597  37.9672 H              1 <1>                0.0000
     15 H15         26.8318  36.0016  38.8329 H              1 <1>                0.0000
     16 H16         27.1552  37.6134  39.5154 H              1 <1>                0.0000
     17 H17         33.8292  38.0711  35.4730 H              1 <1>                0.0000
     18 H18         33.6467  36.4698  34.7079 H              1 <1>                0.0000
     19 H19         32.6333  38.4198  33.3910 H              1 <1>                0.0000
     20 H20         31.5128  37.0846  33.7457 H              1 <1>                0.0000
     21 H21         29.7464  38.8336  36.3991 H              1 <1>                0.0000
     22 H22         29.5614  37.5455  35.1801 H              1 <1>                0.0000
     23 H23         33.6144  35.5685  37.4244 H              1 <1>                0.0000
     24 H24         31.7386  39.5188  35.3893 H              1 <1>                0.0000
@<TRIPOS>BOND
    1    1    2 1     
    2    1   14 1     
    3    1   15 1     
    4    1   16 1     
    5    2    3 1     
    6    3    4 2     
    7    3    5 1     
    8    5    6 2     
    9    5   13 1     
   10    6    7 1     
   11    7    8 1     
   12    7   23 1     
   13    8    9 1     
   14    8   13 2     
   15    9   10 1     
   16    9   17 1     
   17    9   18 1     
   18   10   11 1     
   19   10   19 1     
   20   10   20 1     
   21   11   12 1     
   22   11   24 1     
   23   12   13 1     
   24   12   21 1     
   25   12   22 1     
@<TRIPOS>SUBSTRUCTURE
      1 ****           1
@<TRIPOS>SET
DONOR_HYDROGENS      STATIC     ATOMS    <user>   **** ""
2 23 24
ATOM$RED        STATIC     ATOMS    COLORGROUP SYSTEM
2 23 24
@<TRIPOS>COMMENT
> <Gold.Version>
2022.2.0

> <Gold.Id.Protein>
1qkm|1qkm_protein|mol2

> <Gold.Protein.RotatedTorsions>
[  496  491  490  487 ] final -173.55 input  -89.99 | X-H torsion

> <Gold.Protein.ActiveResidues>
 MET295  LEU298  THR299  LEU301  ALA302  GLU305  TRP335  MET336  LEU339  MET340 
 GLY342  LEU343  ARG346  PHE356  ILE373  ILE376  PHE377  LEU380  LYS471  GLY472 
 MET473  HIS475  LEU476  LEU477  ASN478  MET479  VAL484  VAL487 

> <Gold.Protein.RotatedAtoms>
   37.3110   33.5556   40.8187 H   0  0  0  0  0  0  0  0  0  0  0  0  # atno 496  bound_to 491 

> <Gold.Score>
     Score     S(PLP)   S(hbond)     S(cho)   S(metal)  DE(clash)   DE(tors)     intcor
     33.25     -33.51       0.00       0.00       0.00       0.00       0.13       0.00

> <Gold.PLP.Fitness>
33.2524

> <Gold.PLP.PLP>
-33.5103

> <Gold.PLP.part.hbond>
0.0000

> <Gold.PLP.part.metal>
0.0000

> <Gold.PLP.part.buried>
-5.9470

> <Gold.PLP.part.nonpolar>
-27.6907

> <Gold.PLP.part.repulsive>
0.1473

> <Gold.PLP.ligand.clash>
0.0000

> <Gold.PLP.ligand.torsion>
0.1289

> <Gold.PLP.Chemscore.Hbond>
0.0000

> <Gold.PLP.Chemscore.CHOScore>
0.0000

> <Gold.PLP.Chemscore.Metal>
0.0000

> <Gold.PLP.Chemscore.Internal.Correction>
0.0000

