#       Name:                EN300-246549_i001
#       Creating user name   aseyller
#       Creation time:       Sat Apr 22 07:55:32 2023


#       File generated by GOLD software.
#

@<TRIPOS>MOLECULE
EN300-246549_i001|amine_3|mol2|4094|dock20
    24    25     1
SMALL
USER_CHARGES


@<TRIPOS>ATOM
      1 C1          32.6849  36.8945  37.3919 C.3            1 <1>                0.0000
      2 O2          31.3264  37.0052  37.8924 O.3            1 <1>                0.0000
      3 C3          30.5077  37.8646  37.2546 C.2            1 <1>                0.0000
      4 O4          30.9461  38.5863  36.3812 O.2            1 <1>                0.0000
      5 C5          29.0786  37.9290  37.6171 C.2            1 <1>                0.0000
      6 N6          28.1436  38.6517  37.0215 N.2            1 <1>                0.0000
      7 N7          27.0050  38.4669  37.5974 N.pl3          1 <1>                0.0000
      8 C8          27.1392  37.6008  38.6117 C.2            1 <1>                0.0000
      9 C9          26.1035  37.0685  39.5694 C.3            1 <1>                0.0000
     10 C10         26.6929  35.8278  40.2556 C.3            1 <1>                0.0000
     11 N11         28.0370  36.1323  40.7654 N.3            1 <1>                0.0000
     12 C12         29.0112  36.2736  39.6682 C.3            1 <1>                0.0000
     13 C13         28.4450  37.2312  38.6570 C.2            1 <1>                0.0000
     14 H14         33.2357  36.1711  37.9931 H              1 <1>                0.0000
     15 H15         32.6637  36.5630  36.3537 H              1 <1>                0.0000
     16 H16         33.1750  37.8661  37.4531 H              1 <1>                0.0000
     17 H17         25.8673  37.8263  40.3164 H              1 <1>                0.0000
     18 H18         25.2014  36.7943  39.0224 H              1 <1>                0.0000
     19 H19         26.0495  35.5320  41.0843 H              1 <1>                0.0000
     20 H20         26.7546  35.0108  39.5366 H              1 <1>                0.0000
     21 H21         29.9520  36.6611  40.0593 H              1 <1>                0.0000
     22 H22         29.1788  35.3046  39.1981 H              1 <1>                0.0000
     23 H23         26.1735  38.8921  37.3353 H              1 <1>                0.0000
     24 H24         28.0250  36.9569  41.3467 H              1 <1>                0.0000
@<TRIPOS>BOND
    1    1    2 1     
    2    1   14 1     
    3    1   15 1     
    4    1   16 1     
    5    2    3 1     
    6    3    4 2     
    7    3    5 1     
    8    5    6 2     
    9    5   13 1     
   10    6    7 1     
   11    7    8 1     
   12    7   23 1     
   13    8    9 1     
   14    8   13 2     
   15    9   10 1     
   16    9   17 1     
   17    9   18 1     
   18   10   11 1     
   19   10   19 1     
   20   10   20 1     
   21   11   12 1     
   22   11   24 1     
   23   12   13 1     
   24   12   21 1     
   25   12   22 1     
@<TRIPOS>SUBSTRUCTURE
      1 ****           1
@<TRIPOS>SET
DONOR_HYDROGENS      STATIC     ATOMS    <user>   **** ""
2 23 24
ATOM$RED        STATIC     ATOMS    COLORGROUP SYSTEM
2 23 24
@<TRIPOS>COMMENT
> <Gold.Version>
2022.2.0

> <Gold.Id.Protein>
1qkm|1qkm_protein|mol2

> <Gold.Protein.RotatedTorsions>
[  496  491  490  487 ] final  122.64 input  -89.99 | X-H torsion

> <Gold.Protein.ActiveResidues>
 MET295  LEU298  THR299  LEU301  ALA302  GLU305  TRP335  MET336  LEU339  MET340 
 GLY342  LEU343  ARG346  PHE356  ILE373  ILE376  PHE377  LEU380  LYS471  GLY472 
 MET473  HIS475  LEU476  LEU477  ASN478  MET479  VAL484  VAL487 

> <Gold.Protein.RotatedAtoms>
   37.1006   32.9480   41.5806 H   0  0  0  0  0  0  0  0  0  0  0  0  # atno 496  bound_to 491 

> <Gold.Score>
     Score     S(PLP)   S(hbond)     S(cho)   S(metal)  DE(clash)   DE(tors)     intcor
     33.03     -33.13       0.00       0.00       0.00       0.00       0.05       0.00

> <Gold.PLP.Fitness>
33.0328

> <Gold.PLP.PLP>
-33.1297

> <Gold.PLP.part.hbond>
0.0000

> <Gold.PLP.part.metal>
0.0000

> <Gold.PLP.part.buried>
-4.6466

> <Gold.PLP.part.nonpolar>
-28.1624

> <Gold.PLP.part.repulsive>
0.0185

> <Gold.PLP.ligand.clash>
0.0000

> <Gold.PLP.ligand.torsion>
0.0485

> <Gold.PLP.Chemscore.Hbond>
0.0000

> <Gold.PLP.Chemscore.CHOScore>
0.0000

> <Gold.PLP.Chemscore.Metal>
0.0000

> <Gold.PLP.Chemscore.Internal.Correction>
0.0000

