#       Name:                EN300-246549_i001
#       Creating user name   aseyller
#       Creation time:       Sat Apr 22 07:55:29 2023


#       File generated by GOLD software.
#

@<TRIPOS>MOLECULE
EN300-246549_i001|amine_3|mol2|4094|dock7
    24    25     1
SMALL
USER_CHARGES


@<TRIPOS>ATOM
      1 C1          25.5494  37.3014  39.1024 C.3            1 <1>                0.0000
      2 O2          26.8970  36.8866  39.4488 O.3            1 <1>                0.0000
      3 C3          27.8668  37.1458  38.5500 C.2            1 <1>                0.0000
      4 O4          27.6381  37.8695  37.6014 O.2            1 <1>                0.0000
      5 C5          29.2067  36.5506  38.7180 C.2            1 <1>                0.0000
      6 N6          29.5975  35.7449  39.6923 N.2            1 <1>                0.0000
      7 N7          30.8325  35.4138  39.5266 N.pl3          1 <1>                0.0000
      8 C8          31.3182  35.9929  38.4195 C.2            1 <1>                0.0000
      9 C9          32.6941  35.9059  37.8093 C.3            1 <1>                0.0000
     10 C10         32.5996  36.4170  36.3645 C.3            1 <1>                0.0000
     11 N11         31.8945  37.7059  36.3377 N.3            1 <1>                0.0000
     12 C12         30.4569  37.5407  36.6182 C.3            1 <1>                0.0000
     13 C13         30.3133  36.7241  37.8723 C.2            1 <1>                0.0000
     14 H14         24.8680  37.0337  39.9100 H              1 <1>                0.0000
     15 H15         25.5287  38.3808  38.9524 H              1 <1>                0.0000
     16 H16         25.2397  36.8010  38.1849 H              1 <1>                0.0000
     17 H17         33.3890  36.5260  38.3756 H              1 <1>                0.0000
     18 H18         33.0347  34.8705  37.8131 H              1 <1>                0.0000
     19 H19         33.6033  36.5446  35.9589 H              1 <1>                0.0000
     20 H20         32.0545  35.6930  35.7588 H              1 <1>                0.0000
     21 H21         29.9946  38.5179  36.7574 H              1 <1>                0.0000
     22 H22         29.9776  37.0211  35.7885 H              1 <1>                0.0000
     23 H23         31.3362  34.8313  40.1165 H              1 <1>                0.0000
     24 H24         32.3151  38.3616  36.9790 H              1 <1>                0.0000
@<TRIPOS>BOND
    1    1    2 1     
    2    1   14 1     
    3    1   15 1     
    4    1   16 1     
    5    2    3 1     
    6    3    4 2     
    7    3    5 1     
    8    5    6 2     
    9    5   13 1     
   10    6    7 1     
   11    7    8 1     
   12    7   23 1     
   13    8    9 1     
   14    8   13 2     
   15    9   10 1     
   16    9   17 1     
   17    9   18 1     
   18   10   11 1     
   19   10   19 1     
   20   10   20 1     
   21   11   12 1     
   22   11   24 1     
   23   12   13 1     
   24   12   21 1     
   25   12   22 1     
@<TRIPOS>SUBSTRUCTURE
      1 ****           1
@<TRIPOS>SET
DONOR_HYDROGENS      STATIC     ATOMS    <user>   **** ""
2 23 24
ATOM$RED        STATIC     ATOMS    COLORGROUP SYSTEM
2 23 24
@<TRIPOS>COMMENT
> <Gold.Version>
2022.2.0

> <Gold.Id.Protein>
1qkm|1qkm_protein|mol2

> <Gold.Protein.RotatedTorsions>
[  496  491  490  487 ] final -125.60 input  -89.99 | X-H torsion

> <Gold.Protein.ActiveResidues>
 MET295  LEU298  THR299  LEU301  ALA302  GLU305  TRP335  MET336  LEU339  MET340 
 GLY342  LEU343  ARG346  PHE356  ILE373  ILE376  PHE377  LEU380  LYS471  GLY472 
 MET473  HIS475  LEU476  LEU477  ASN478  MET479  VAL484  VAL487 

> <Gold.Protein.RotatedAtoms>
   37.0711   34.2821   40.7692 H   0  0  0  0  0  0  0  0  0  0  0  0  # atno 496  bound_to 491 

> <Gold.Score>
     Score     S(PLP)   S(hbond)     S(cho)   S(metal)  DE(clash)   DE(tors)     intcor
     35.67     -34.11       0.59       0.00       0.00       0.00       0.11       0.00

> <Gold.PLP.Fitness>
35.6693

> <Gold.PLP.PLP>
-34.1087

> <Gold.PLP.part.hbond>
-1.0000

> <Gold.PLP.part.metal>
0.0000

> <Gold.PLP.part.buried>
-4.6237

> <Gold.PLP.part.nonpolar>
-28.7826

> <Gold.PLP.part.repulsive>
0.1921

> <Gold.PLP.ligand.clash>
0.0000

> <Gold.PLP.ligand.torsion>
0.1077

> <Gold.PLP.Chemscore.Hbond>
0.5920

> <Gold.PLP.Chemscore.CHOScore>
0.0000

> <Gold.PLP.Chemscore.Metal>
0.0000

> <Gold.Chemscore.Hbonds>
donor molecule, donor type, donor heavy atom, donor atom, acceptor molecule, acceptor atom, score
      L1  H     7    23       P1   470  0.59

> <Gold.PLP.Chemscore.Internal.Correction>
0.0000

