#       Name:                EN300-246549_i001
#       Creating user name   aseyller
#       Creation time:       Sat Apr 22 07:55:30 2023


#       File generated by GOLD software.
#

@<TRIPOS>MOLECULE
EN300-246549_i001|amine_3|mol2|4094|dock10
    24    25     1
SMALL
USER_CHARGES


@<TRIPOS>ATOM
      1 C1          30.8957  39.0994  35.2304 C.3            1 <1>                0.0000
      2 O2          29.6836  38.8423  35.9873 O.3            1 <1>                0.0000
      3 C3          29.7995  38.0664  37.0827 C.2            1 <1>                0.0000
      4 O4          30.8890  37.6445  37.4157 O.2            1 <1>                0.0000
      5 C5          28.6030  37.7291  37.8780 C.2            1 <1>                0.0000
      6 N6          27.3512  38.0570  37.6010 N.2            1 <1>                0.0000
      7 N7          26.5602  37.5977  38.5096 N.pl3          1 <1>                0.0000
      8 C8          27.2640  36.9358  39.4388 C.2            1 <1>                0.0000
      9 C9          26.7919  36.2231  40.6807 C.3            1 <1>                0.0000
     10 C10         27.9299  35.3099  41.1587 C.3            1 <1>                0.0000
     11 N11         29.1871  36.0685  41.2136 N.3            1 <1>                0.0000
     12 C12         29.6909  36.3770  39.8631 C.3            1 <1>                0.0000
     13 C13         28.5703  36.9930  39.0725 C.2            1 <1>                0.0000
     14 H14         30.6626  39.7352  34.3762 H              1 <1>                0.0000
     15 H15         31.6232  39.6007  35.8687 H              1 <1>                0.0000
     16 H16         31.3111  38.1553  34.8780 H              1 <1>                0.0000
     17 H17         26.5525  36.9513  41.4557 H              1 <1>                0.0000
     18 H18         25.9104  35.6248  40.4503 H              1 <1>                0.0000
     19 H19         27.6942  34.9267  42.1515 H              1 <1>                0.0000
     20 H20         28.0402  34.4754  40.4661 H              1 <1>                0.0000
     21 H21         30.5238  37.0766  39.9321 H              1 <1>                0.0000
     22 H22         30.0196  35.4596  39.3747 H              1 <1>                0.0000
     23 H23         25.5972  37.7142  38.5194 H              1 <1>                0.0000
     24 H24         29.0782  36.9099  41.7598 H              1 <1>                0.0000
@<TRIPOS>BOND
    1    1    2 1     
    2    1   14 1     
    3    1   15 1     
    4    1   16 1     
    5    2    3 1     
    6    3    4 2     
    7    3    5 1     
    8    5    6 2     
    9    5   13 1     
   10    6    7 1     
   11    7    8 1     
   12    7   23 1     
   13    8    9 1     
   14    8   13 2     
   15    9   10 1     
   16    9   17 1     
   17    9   18 1     
   18   10   11 1     
   19   10   19 1     
   20   10   20 1     
   21   11   12 1     
   22   11   24 1     
   23   12   13 1     
   24   12   21 1     
   25   12   22 1     
@<TRIPOS>SUBSTRUCTURE
      1 ****           1
@<TRIPOS>SET
DONOR_HYDROGENS      STATIC     ATOMS    <user>   **** ""
2 23 24
ATOM$RED        STATIC     ATOMS    COLORGROUP SYSTEM
2 23 24
@<TRIPOS>COMMENT
> <Gold.Version>
2022.2.0

> <Gold.Id.Protein>
1qkm|1qkm_protein|mol2

> <Gold.Protein.RotatedTorsions>
[  496  491  490  487 ] final  157.46 input  -89.99 | X-H torsion

> <Gold.Protein.ActiveResidues>
 MET295  LEU298  THR299  LEU301  ALA302  GLU305  TRP335  MET336  LEU339  MET340 
 GLY342  LEU343  ARG346  PHE356  ILE373  ILE376  PHE377  LEU380  LYS471  GLY472 
 MET473  HIS475  LEU476  LEU477  ASN478  MET479  VAL484  VAL487 

> <Gold.Protein.RotatedAtoms>
   37.2895   33.1777   41.1008 H   0  0  0  0  0  0  0  0  0  0  0  0  # atno 496  bound_to 491 

> <Gold.Score>
     Score     S(PLP)   S(hbond)     S(cho)   S(metal)  DE(clash)   DE(tors)     intcor
     34.97     -34.99       0.00       0.00       0.00       0.00       0.01       0.00

> <Gold.PLP.Fitness>
34.9710

> <Gold.PLP.PLP>
-34.9900

> <Gold.PLP.part.hbond>
-1.0000

> <Gold.PLP.part.metal>
0.0000

> <Gold.PLP.part.buried>
-5.7695

> <Gold.PLP.part.nonpolar>
-28.7076

> <Gold.PLP.part.repulsive>
0.0272

> <Gold.PLP.ligand.clash>
0.0000

> <Gold.PLP.ligand.torsion>
0.0095

> <Gold.PLP.Chemscore.Hbond>
0.0000

> <Gold.PLP.Chemscore.CHOScore>
0.0000

> <Gold.PLP.Chemscore.Metal>
0.0000

> <Gold.PLP.Chemscore.Internal.Correction>
0.0000

