#       Name:                EN300-246549_i001
#       Creating user name   aseyller
#       Creation time:       Sat Apr 22 07:55:29 2023


#       File generated by GOLD software.
#

@<TRIPOS>MOLECULE
EN300-246549_i001|amine_3|mol2|4094|dock5
    24    25     1
SMALL
USER_CHARGES


@<TRIPOS>ATOM
      1 C1          32.0908  38.0148  34.8231 C.3            1 <1>                0.0000
      2 O2          31.8142  37.3379  36.0775 O.3            1 <1>                0.0000
      3 C3          30.5917  37.5199  36.6141 C.2            1 <1>                0.0000
      4 O4          29.7842  38.2362  36.0568 O.2            1 <1>                0.0000
      5 C5          30.2339  36.8490  37.8790 C.2            1 <1>                0.0000
      6 N6          31.0507  36.1833  38.6795 N.2            1 <1>                0.0000
      7 N7          30.4025  35.7283  39.6969 N.pl3          1 <1>                0.0000
      8 C8          29.1116  36.0797  39.6130 C.2            1 <1>                0.0000
      9 C9          27.9702  35.7922  40.5551 C.3            1 <1>                0.0000
     10 C10         26.8200  36.7467  40.2034 C.3            1 <1>                0.0000
     11 N11         26.5684  36.7108  38.7562 N.3            1 <1>                0.0000
     12 C12         27.6519  37.3683  38.0035 C.3            1 <1>                0.0000
     13 C13         28.9622  36.7978  38.4703 C.2            1 <1>                0.0000
     14 H14         33.1066  37.7844  34.5022 H              1 <1>                0.0000
     15 H15         31.3847  37.6770  34.0645 H              1 <1>                0.0000
     16 H16         31.9886  39.0912  34.9609 H              1 <1>                0.0000
     17 H17         27.6430  34.7595  40.4344 H              1 <1>                0.0000
     18 H18         28.2890  35.9615  41.5837 H              1 <1>                0.0000
     19 H19         25.9194  36.4403  40.7355 H              1 <1>                0.0000
     20 H20         27.0873  37.7610  40.4998 H              1 <1>                0.0000
     21 H21         27.5251  37.1810  36.9372 H              1 <1>                0.0000
     22 H22         27.6334  38.4414  38.1939 H              1 <1>                0.0000
     23 H23         30.7919  35.2081  40.4172 H              1 <1>                0.0000
     24 H24         26.4291  35.7639  38.4367 H              1 <1>                0.0000
@<TRIPOS>BOND
    1    1    2 1     
    2    1   14 1     
    3    1   15 1     
    4    1   16 1     
    5    2    3 1     
    6    3    4 2     
    7    3    5 1     
    8    5    6 2     
    9    5   13 1     
   10    6    7 1     
   11    7    8 1     
   12    7   23 1     
   13    8    9 1     
   14    8   13 2     
   15    9   10 1     
   16    9   17 1     
   17    9   18 1     
   18   10   11 1     
   19   10   19 1     
   20   10   20 1     
   21   11   12 1     
   22   11   24 1     
   23   12   13 1     
   24   12   21 1     
   25   12   22 1     
@<TRIPOS>SUBSTRUCTURE
      1 ****           1
@<TRIPOS>SET
DONOR_HYDROGENS      STATIC     ATOMS    <user>   **** ""
2 23 24
ATOM$RED        STATIC     ATOMS    COLORGROUP SYSTEM
2 23 24
@<TRIPOS>COMMENT
> <Gold.Version>
2022.2.0

> <Gold.Id.Protein>
1qkm|1qkm_protein|mol2

> <Gold.Protein.RotatedTorsions>
[  496  491  490  487 ] final -174.02 input  -89.99 | X-H torsion

> <Gold.Protein.ActiveResidues>
 MET295  LEU298  THR299  LEU301  ALA302  GLU305  TRP335  MET336  LEU339  MET340 
 GLY342  LEU343  ARG346  PHE356  ILE373  ILE376  PHE377  LEU380  LYS471  GLY472 
 MET473  HIS475  LEU476  LEU477  ASN478  MET479  VAL484  VAL487 

> <Gold.Protein.RotatedAtoms>
   37.3117   33.5487   40.8219 H   0  0  0  0  0  0  0  0  0  0  0  0  # atno 496  bound_to 491 

> <Gold.Score>
     Score     S(PLP)   S(hbond)     S(cho)   S(metal)  DE(clash)   DE(tors)     intcor
     36.58     -33.65       1.00       0.00       0.00       0.00       0.04       0.00

> <Gold.PLP.Fitness>
36.5803

> <Gold.PLP.PLP>
-33.6542

> <Gold.PLP.part.hbond>
-1.0000

> <Gold.PLP.part.metal>
0.0000

> <Gold.PLP.part.buried>
-4.9856

> <Gold.PLP.part.nonpolar>
-28.3264

> <Gold.PLP.part.repulsive>
0.1500

> <Gold.PLP.ligand.clash>
0.0000

> <Gold.PLP.ligand.torsion>
0.0370

> <Gold.PLP.Chemscore.Hbond>
1.0000

> <Gold.PLP.Chemscore.CHOScore>
0.0000

> <Gold.PLP.Chemscore.Metal>
0.0000

> <Gold.Chemscore.Hbonds>
donor molecule, donor type, donor heavy atom, donor atom, acceptor molecule, acceptor atom, score
      L1  H     7    23       P1   470  1.00

> <Gold.PLP.Chemscore.Internal.Correction>
0.0000

