#       Name:                EN300-246549_i001
#       Creating user name   aseyller
#       Creation time:       Sat Apr 22 07:55:31 2023


#       File generated by GOLD software.
#

@<TRIPOS>MOLECULE
EN300-246549_i001|amine_3|mol2|4094|dock17
    24    25     1
SMALL
USER_CHARGES


@<TRIPOS>ATOM
      1 C1          30.6983  38.4473  34.8507 C.3            1 <1>                0.0000
      2 O2          30.0541  37.8857  36.0245 O.3            1 <1>                0.0000
      3 C3          30.8565  37.3515  36.9659 C.2            1 <1>                0.0000
      4 O4          32.0634  37.4084  36.8388 O.2            1 <1>                0.0000
      5 C5          30.2693  36.6975  38.1514 C.2            1 <1>                0.0000
      6 N6          30.9161  35.9993  39.0709 N.2            1 <1>                0.0000
      7 N7          30.0921  35.5728  39.9661 N.pl3          1 <1>                0.0000
      8 C8          28.8478  35.9774  39.6743 C.2            1 <1>                0.0000
      9 C9          27.5568  35.7386  40.4155 C.3            1 <1>                0.0000
     10 C10         26.5199  36.7397  39.8859 C.3            1 <1>                0.0000
     11 N11         26.5071  36.7127  38.4169 N.3            1 <1>                0.0000
     12 C12         27.7253  37.3238  37.8551 C.3            1 <1>                0.0000
     13 C13         28.9170  36.6999  38.5266 C.2            1 <1>                0.0000
     14 H14         29.9404  38.8425  34.1744 H              1 <1>                0.0000
     15 H15         31.3692  39.2510  35.1540 H              1 <1>                0.0000
     16 H16         31.2690  37.6700  34.3426 H              1 <1>                0.0000
     17 H17         27.2116  34.7203  40.2370 H              1 <1>                0.0000
     18 H18         27.7098  35.8956  41.4832 H              1 <1>                0.0000
     19 H19         25.5326  36.4715  40.2619 H              1 <1>                0.0000
     20 H20         26.7767  37.7424  40.2277 H              1 <1>                0.0000
     21 H21         27.7671  37.1407  36.7814 H              1 <1>                0.0000
     22 H22         27.7201  38.3969  38.0461 H              1 <1>                0.0000
     23 H23         30.3366  35.0377  40.7373 H              1 <1>                0.0000
     24 H24         26.3831  35.7720  38.0735 H              1 <1>                0.0000
@<TRIPOS>BOND
    1    1    2 1     
    2    1   14 1     
    3    1   15 1     
    4    1   16 1     
    5    2    3 1     
    6    3    4 2     
    7    3    5 1     
    8    5    6 2     
    9    5   13 1     
   10    6    7 1     
   11    7    8 1     
   12    7   23 1     
   13    8    9 1     
   14    8   13 2     
   15    9   10 1     
   16    9   17 1     
   17    9   18 1     
   18   10   11 1     
   19   10   19 1     
   20   10   20 1     
   21   11   12 1     
   22   11   24 1     
   23   12   13 1     
   24   12   21 1     
   25   12   22 1     
@<TRIPOS>SUBSTRUCTURE
      1 ****           1
@<TRIPOS>SET
DONOR_HYDROGENS      STATIC     ATOMS    <user>   **** ""
2 23 24
ATOM$RED        STATIC     ATOMS    COLORGROUP SYSTEM
2 23 24
@<TRIPOS>COMMENT
> <Gold.Version>
2022.2.0

> <Gold.Id.Protein>
1qkm|1qkm_protein|mol2

> <Gold.Protein.RotatedTorsions>
[  496  491  490  487 ] final -154.84 input  -89.99 | X-H torsion

> <Gold.Protein.ActiveResidues>
 MET295  LEU298  THR299  LEU301  ALA302  GLU305  TRP335  MET336  LEU339  MET340 
 GLY342  LEU343  ARG346  PHE356  ILE373  ILE376  PHE377  LEU380  LYS471  GLY472 
 MET473  HIS475  LEU476  LEU477  ASN478  MET479  VAL484  VAL487 

> <Gold.Protein.RotatedAtoms>
   37.2543   33.8441   40.7315 H   0  0  0  0  0  0  0  0  0  0  0  0  # atno 496  bound_to 491 

> <Gold.Score>
     Score     S(PLP)   S(hbond)     S(cho)   S(metal)  DE(clash)   DE(tors)     intcor
     34.63     -32.66       0.69       0.00       0.00       0.00       0.04       0.00

> <Gold.PLP.Fitness>
34.6327

> <Gold.PLP.PLP>
-32.6569

> <Gold.PLP.part.hbond>
-1.0000

> <Gold.PLP.part.metal>
0.0000

> <Gold.PLP.part.buried>
-4.3926

> <Gold.PLP.part.nonpolar>
-28.2271

> <Gold.PLP.part.repulsive>
0.1641

> <Gold.PLP.ligand.clash>
0.0000

> <Gold.PLP.ligand.torsion>
0.0441

> <Gold.PLP.Chemscore.Hbond>
0.6880

> <Gold.PLP.Chemscore.CHOScore>
0.0000

> <Gold.PLP.Chemscore.Metal>
0.0000

> <Gold.Chemscore.Hbonds>
donor molecule, donor type, donor heavy atom, donor atom, acceptor molecule, acceptor atom, score
      L1  H     7    23       P1   470  0.69

> <Gold.PLP.Chemscore.Internal.Correction>
0.0000

