#       Name:                EN300-246549_i001
#       Creating user name   aseyller
#       Creation time:       Sat Apr 22 07:55:29 2023


#       File generated by GOLD software.
#

@<TRIPOS>MOLECULE
EN300-246549_i001|amine_3|mol2|4094|dock6
    24    25     1
SMALL
USER_CHARGES


@<TRIPOS>ATOM
      1 C1          28.0941  36.3995  41.3713 C.3            1 <1>                0.0000
      2 O2          29.1015  35.6848  40.6080 O.3            1 <1>                0.0000
      3 C3          29.5531  36.2776  39.4854 C.2            1 <1>                0.0000
      4 O4          29.0506  37.3151  39.1021 O.2            1 <1>                0.0000
      5 C5          30.6579  35.6664  38.7215 C.2            1 <1>                0.0000
      6 N6          31.1542  34.4505  38.8846 N.2            1 <1>                0.0000
      7 N7          32.1119  34.2454  38.0461 N.pl3          1 <1>                0.0000
      8 C8          32.2919  35.3309  37.2806 C.2            1 <1>                0.0000
      9 C9          33.2764  35.5721  36.1645 C.3            1 <1>                0.0000
     10 C10         32.7967  36.7969  35.3724 C.3            1 <1>                0.0000
     11 N11         32.4909  37.8982  36.2958 N.3            1 <1>                0.0000
     12 C12         31.2652  37.6295  37.0694 C.3            1 <1>                0.0000
     13 C13         31.3832  36.2591  37.6763 C.2            1 <1>                0.0000
     14 H14         27.8188  35.8132  42.2479 H              1 <1>                0.0000
     15 H15         28.4943  37.3623  41.6891 H              1 <1>                0.0000
     16 H16         27.2131  36.5595  40.7498 H              1 <1>                0.0000
     17 H17         34.2654  35.7654  36.5801 H              1 <1>                0.0000
     18 H18         33.3137  34.7009  35.5105 H              1 <1>                0.0000
     19 H19         33.5789  37.1104  34.6810 H              1 <1>                0.0000
     20 H20         31.9002  36.5362  34.8097 H              1 <1>                0.0000
     21 H21         31.1563  38.3753  37.8567 H              1 <1>                0.0000
     22 H22         30.3988  37.6618  36.4088 H              1 <1>                0.0000
     23 H23         32.6266  33.4259  37.9792 H              1 <1>                0.0000
     24 H24         33.2712  38.0844  36.9077 H              1 <1>                0.0000
@<TRIPOS>BOND
    1    1    2 1     
    2    1   14 1     
    3    1   15 1     
    4    1   16 1     
    5    2    3 1     
    6    3    4 2     
    7    3    5 1     
    8    5    6 2     
    9    5   13 1     
   10    6    7 1     
   11    7    8 1     
   12    7   23 1     
   13    8    9 1     
   14    8   13 2     
   15    9   10 1     
   16    9   17 1     
   17    9   18 1     
   18   10   11 1     
   19   10   19 1     
   20   10   20 1     
   21   11   12 1     
   22   11   24 1     
   23   12   13 1     
   24   12   21 1     
   25   12   22 1     
@<TRIPOS>SUBSTRUCTURE
      1 ****           1
@<TRIPOS>SET
DONOR_HYDROGENS      STATIC     ATOMS    <user>   **** ""
2 23 24
ATOM$RED        STATIC     ATOMS    COLORGROUP SYSTEM
2 23 24
@<TRIPOS>COMMENT
> <Gold.Version>
2022.2.0

> <Gold.Id.Protein>
1qkm|1qkm_protein|mol2

> <Gold.Protein.RotatedTorsions>
[  496  491  490  487 ] final   67.64 input  -89.99 | X-H torsion

> <Gold.Protein.ActiveResidues>
 MET295  LEU298  THR299  LEU301  ALA302  GLU305  TRP335  MET336  LEU339  MET340 
 GLY342  LEU343  ARG346  PHE356  ILE373  ILE376  PHE377  LEU380  LYS471  GLY472 
 MET473  HIS475  LEU476  LEU477  ASN478  MET479  VAL484  VAL487 

> <Gold.Protein.RotatedAtoms>
   36.6166   33.2263   42.2490 H   0  0  0  0  0  0  0  0  0  0  0  0  # atno 496  bound_to 491 

> <Gold.Score>
     Score     S(PLP)   S(hbond)     S(cho)   S(metal)  DE(clash)   DE(tors)     intcor
     34.57     -34.74       0.00       0.00       0.00       0.00       0.09       0.00

> <Gold.PLP.Fitness>
34.5662

> <Gold.PLP.PLP>
-34.7431

> <Gold.PLP.part.hbond>
0.0000

> <Gold.PLP.part.metal>
0.0000

> <Gold.PLP.part.buried>
-5.4407

> <Gold.PLP.part.nonpolar>
-30.1058

> <Gold.PLP.part.repulsive>
0.2683

> <Gold.PLP.ligand.clash>
0.0000

> <Gold.PLP.ligand.torsion>
0.0885

> <Gold.PLP.Chemscore.Hbond>
0.0000

> <Gold.PLP.Chemscore.CHOScore>
0.0000

> <Gold.PLP.Chemscore.Metal>
0.0000

> <Gold.PLP.Chemscore.Internal.Correction>
0.0000

