#       Name:                EN300-246549_i001
#       Creating user name   aseyller
#       Creation time:       Sat Apr 22 07:55:30 2023


#       File generated by GOLD software.
#

@<TRIPOS>MOLECULE
EN300-246549_i001|amine_3|mol2|4094|dock9
    24    25     1
SMALL
USER_CHARGES


@<TRIPOS>ATOM
      1 C1          31.5224  34.2707  38.7802 C.3            1 <1>                0.0000
      2 O2          30.2370  34.9017  39.0207 O.3            1 <1>                0.0000
      3 C3          29.9805  36.0421  38.3506 C.2            1 <1>                0.0000
      4 O4          30.8376  36.5396  37.6479 O.2            1 <1>                0.0000
      5 C5          28.6585  36.6869  38.4703 C.2            1 <1>                0.0000
      6 N6          28.0715  37.4602  37.5710 N.2            1 <1>                0.0000
      7 N7          26.9218  37.8514  38.0039 N.pl3          1 <1>                0.0000
      8 C8          26.6947  37.3455  39.2243 C.2            1 <1>                0.0000
      9 C9          25.5006  37.5095  40.1300 C.3            1 <1>                0.0000
     10 C10         25.5749  36.4173  41.2067 C.3            1 <1>                0.0000
     11 N11         26.9174  36.3972  41.8035 N.3            1 <1>                0.0000
     12 C12         27.9184  35.8622  40.8629 C.3            1 <1>                0.0000
     13 C13         27.7759  36.5946  39.5577 C.2            1 <1>                0.0000
     14 H14         31.6001  33.3642  39.3804 H              1 <1>                0.0000
     15 H15         31.6102  34.0159  37.7241 H              1 <1>                0.0000
     16 H16         32.3219  34.9584  39.0558 H              1 <1>                0.0000
     17 H17         25.5257  38.4930  40.5994 H              1 <1>                0.0000
     18 H18         24.5822  37.3980  39.5537 H              1 <1>                0.0000
     19 H19         24.8367  36.6220  41.9820 H              1 <1>                0.0000
     20 H20         25.3647  35.4479  40.7546 H              1 <1>                0.0000
     21 H21         28.9198  36.0141  41.2656 H              1 <1>                0.0000
     22 H22         27.7424  34.7982  40.7044 H              1 <1>                0.0000
     23 H23         26.3110  38.4273  37.5179 H              1 <1>                0.0000
     24 H24         27.1819  37.3147  42.1297 H              1 <1>                0.0000
@<TRIPOS>BOND
    1    1    2 1     
    2    1   14 1     
    3    1   15 1     
    4    1   16 1     
    5    2    3 1     
    6    3    4 2     
    7    3    5 1     
    8    5    6 2     
    9    5   13 1     
   10    6    7 1     
   11    7    8 1     
   12    7   23 1     
   13    8    9 1     
   14    8   13 2     
   15    9   10 1     
   16    9   17 1     
   17    9   18 1     
   18   10   11 1     
   19   10   19 1     
   20   10   20 1     
   21   11   12 1     
   22   11   24 1     
   23   12   13 1     
   24   12   21 1     
   25   12   22 1     
@<TRIPOS>SUBSTRUCTURE
      1 ****           1
@<TRIPOS>SET
DONOR_HYDROGENS      STATIC     ATOMS    <user>   **** ""
2 23 24
ATOM$RED        STATIC     ATOMS    COLORGROUP SYSTEM
2 23 24
@<TRIPOS>COMMENT
> <Gold.Version>
2022.2.0

> <Gold.Id.Protein>
1qkm|1qkm_protein|mol2

> <Gold.Protein.RotatedTorsions>
[  496  491  490  487 ] final  -48.61 input  -89.99 | X-H torsion

> <Gold.Protein.ActiveResidues>
 MET295  LEU298  THR299  LEU301  ALA302  GLU305  TRP335  MET336  LEU339  MET340 
 GLY342  LEU343  ARG346  PHE356  ILE373  ILE376  PHE377  LEU380  LYS471  GLY472 
 MET473  HIS475  LEU476  LEU477  ASN478  MET479  VAL484  VAL487 

> <Gold.Protein.RotatedAtoms>
   36.4154   34.6982   41.6497 H   0  0  0  0  0  0  0  0  0  0  0  0  # atno 496  bound_to 491 

> <Gold.Score>
     Score     S(PLP)   S(hbond)     S(cho)   S(metal)  DE(clash)   DE(tors)     intcor
     36.58     -37.24       0.00       0.00       0.00       0.00       0.33       0.00

> <Gold.PLP.Fitness>
36.5829

> <Gold.PLP.PLP>
-37.2372

> <Gold.PLP.part.hbond>
-1.0000

> <Gold.PLP.part.metal>
0.0000

> <Gold.PLP.part.buried>
-5.5059

> <Gold.PLP.part.nonpolar>
-31.1763

> <Gold.PLP.part.repulsive>
0.1000

> <Gold.PLP.ligand.clash>
0.0000

> <Gold.PLP.ligand.torsion>
0.3272

> <Gold.PLP.Chemscore.Hbond>
0.0000

> <Gold.PLP.Chemscore.CHOScore>
0.0000

> <Gold.PLP.Chemscore.Metal>
0.0000

> <Gold.PLP.Chemscore.Internal.Correction>
0.0000

