#       Name:                EN300-246549_i001
#       Creating user name   aseyller
#       Creation time:       Sat Apr 22 07:55:31 2023


#       File generated by GOLD software.
#

@<TRIPOS>MOLECULE
EN300-246549_i001|amine_3|mol2|4094|dock15
    24    25     1
SMALL
USER_CHARGES


@<TRIPOS>ATOM
      1 C1          25.9290  36.5396  40.7675 C.3            1 <1>                0.0000
      2 O2          26.8155  36.9924  39.7105 O.3            1 <1>                0.0000
      3 C3          28.0556  36.4662  39.6849 C.2            1 <1>                0.0000
      4 O4          28.3753  35.6246  40.5006 O.2            1 <1>                0.0000
      5 C5          29.0255  36.9123  38.6660 C.2            1 <1>                0.0000
      6 N6          28.9301  37.9877  37.9007 N.2            1 <1>                0.0000
      7 N7          29.9556  38.0727  37.1240 N.pl3          1 <1>                0.0000
      8 C8          30.7858  37.0439  37.3460 C.2            1 <1>                0.0000
      9 C9          32.1058  36.7119  36.6975 C.3            1 <1>                0.0000
     10 C10         32.8172  35.6793  37.5837 C.3            1 <1>                0.0000
     11 N11         31.8944  34.5835  37.9100 N.3            1 <1>                0.0000
     12 C12         30.8515  35.0197  38.8561 C.3            1 <1>                0.0000
     13 C13         30.2318  36.2818  38.3238 C.2            1 <1>                0.0000
     14 H14         24.9653  37.0400  40.6727 H              1 <1>                0.0000
     15 H15         25.7882  35.4618  40.6867 H              1 <1>                0.0000
     16 H16         26.3680  36.7770  41.7365 H              1 <1>                0.0000
     17 H17         31.9348  36.2923  35.7061 H              1 <1>                0.0000
     18 H18         32.7148  37.6124  36.6181 H              1 <1>                0.0000
     19 H19         33.6809  35.2796  37.0523 H              1 <1>                0.0000
     20 H20         33.1497  36.1594  38.5041 H              1 <1>                0.0000
     21 H21         30.0912  34.2441  38.9487 H              1 <1>                0.0000
     22 H22         31.2980  35.2163  39.8308 H              1 <1>                0.0000
     23 H23         30.1045  38.7775  36.4743 H              1 <1>                0.0000
     24 H24         31.4845  34.1948  37.0740 H              1 <1>                0.0000
@<TRIPOS>BOND
    1    1    2 1     
    2    1   14 1     
    3    1   15 1     
    4    1   16 1     
    5    2    3 1     
    6    3    4 2     
    7    3    5 1     
    8    5    6 2     
    9    5   13 1     
   10    6    7 1     
   11    7    8 1     
   12    7   23 1     
   13    8    9 1     
   14    8   13 2     
   15    9   10 1     
   16    9   17 1     
   17    9   18 1     
   18   10   11 1     
   19   10   19 1     
   20   10   20 1     
   21   11   12 1     
   22   11   24 1     
   23   12   13 1     
   24   12   21 1     
   25   12   22 1     
@<TRIPOS>SUBSTRUCTURE
      1 ****           1
@<TRIPOS>SET
DONOR_HYDROGENS      STATIC     ATOMS    <user>   **** ""
2 23 24
ATOM$RED        STATIC     ATOMS    COLORGROUP SYSTEM
2 23 24
@<TRIPOS>COMMENT
> <Gold.Version>
2022.2.0

> <Gold.Id.Protein>
1qkm|1qkm_protein|mol2

> <Gold.Protein.RotatedTorsions>
[  496  491  490  487 ] final -174.76 input  -89.99 | X-H torsion

> <Gold.Protein.ActiveResidues>
 MET295  LEU298  THR299  LEU301  ALA302  GLU305  TRP335  MET336  LEU339  MET340 
 GLY342  LEU343  ARG346  PHE356  ILE373  ILE376  PHE377  LEU380  LYS471  GLY472 
 MET473  HIS475  LEU476  LEU477  ASN478  MET479  VAL484  VAL487 

> <Gold.Protein.RotatedAtoms>
   37.3128   33.5377   40.8271 H   0  0  0  0  0  0  0  0  0  0  0  0  # atno 496  bound_to 491 

> <Gold.Score>
     Score     S(PLP)   S(hbond)     S(cho)   S(metal)  DE(clash)   DE(tors)     intcor
     32.82     -33.02       0.00       0.00       0.00       0.00       0.10       0.00

> <Gold.PLP.Fitness>
32.8162

> <Gold.PLP.PLP>
-33.0168

> <Gold.PLP.part.hbond>
0.0000

> <Gold.PLP.part.metal>
0.0000

> <Gold.PLP.part.buried>
-5.5409

> <Gold.PLP.part.nonpolar>
-28.2812

> <Gold.PLP.part.repulsive>
0.1412

> <Gold.PLP.ligand.clash>
0.0000

> <Gold.PLP.ligand.torsion>
0.1003

> <Gold.PLP.Chemscore.Hbond>
0.0000

> <Gold.PLP.Chemscore.CHOScore>
0.0000

> <Gold.PLP.Chemscore.Metal>
0.0000

> <Gold.PLP.Chemscore.Internal.Correction>
0.0000

