#       Name:                EN300-246549_i001
#       Creating user name   aseyller
#       Creation time:       Sat Apr 22 07:55:29 2023


#       File generated by GOLD software.
#

@<TRIPOS>MOLECULE
EN300-246549_i001|amine_3|mol2|4094|dock4
    24    25     1
SMALL
USER_CHARGES


@<TRIPOS>ATOM
      1 C1          28.7950  36.1362  41.1468 C.3            1 <1>                0.0000
      2 O2          29.0492  37.0012  40.0087 O.3            1 <1>                0.0000
      3 C3          29.8628  36.5234  39.0468 C.2            1 <1>                0.0000
      4 O4          30.3411  35.4117  39.1529 O.2            1 <1>                0.0000
      5 C5          30.1729  37.3505  37.8646 C.2            1 <1>                0.0000
      6 N6          29.6414  38.5232  37.5586 N.2            1 <1>                0.0000
      7 N7          30.1431  38.9642  36.4559 N.pl3          1 <1>                0.0000
      8 C8          31.0416  38.0911  35.9791 C.2            1 <1>                0.0000
      9 C9          31.8898  38.1621  34.7347 C.3            1 <1>                0.0000
     10 C10         33.0126  37.1238  34.8724 C.3            1 <1>                0.0000
     11 N11         32.4456  35.8274  35.2686 N.3            1 <1>                0.0000
     12 C12         31.9774  35.8474  36.6662 C.3            1 <1>                0.0000
     13 C13         31.0932  37.0495  36.8487 C.2            1 <1>                0.0000
     14 H14         28.1267  36.6407  41.8445 H              1 <1>                0.0000
     15 H15         28.3313  35.2113  40.8038 H              1 <1>                0.0000
     16 H16         29.7363  35.9072  41.6464 H              1 <1>                0.0000
     17 H17         31.2813  37.9340  33.8596 H              1 <1>                0.0000
     18 H18         32.3191  39.1593  34.6370 H              1 <1>                0.0000
     19 H19         33.5271  37.0176  33.9173 H              1 <1>                0.0000
     20 H20         33.7223  37.4558  35.6302 H              1 <1>                0.0000
     21 H21         31.4151  34.9381  36.8788 H              1 <1>                0.0000
     22 H22         32.8318  35.9182  37.3393 H              1 <1>                0.0000
     23 H23         29.9052  39.8043  36.0333 H              1 <1>                0.0000
     24 H24         31.7042  35.5505  34.6427 H              1 <1>                0.0000
@<TRIPOS>BOND
    1    1    2 1     
    2    1   14 1     
    3    1   15 1     
    4    1   16 1     
    5    2    3 1     
    6    3    4 2     
    7    3    5 1     
    8    5    6 2     
    9    5   13 1     
   10    6    7 1     
   11    7    8 1     
   12    7   23 1     
   13    8    9 1     
   14    8   13 2     
   15    9   10 1     
   16    9   17 1     
   17    9   18 1     
   18   10   11 1     
   19   10   19 1     
   20   10   20 1     
   21   11   12 1     
   22   11   24 1     
   23   12   13 1     
   24   12   21 1     
   25   12   22 1     
@<TRIPOS>SUBSTRUCTURE
      1 ****           1
@<TRIPOS>SET
DONOR_HYDROGENS      STATIC     ATOMS    <user>   **** ""
2 23 24
ATOM$RED        STATIC     ATOMS    COLORGROUP SYSTEM
2 23 24
@<TRIPOS>COMMENT
> <Gold.Version>
2022.2.0

> <Gold.Id.Protein>
1qkm|1qkm_protein|mol2

> <Gold.Protein.RotatedTorsions>
[  496  491  490  487 ] final   68.93 input  -89.99 | X-H torsion

> <Gold.Protein.ActiveResidues>
 MET295  LEU298  THR299  LEU301  ALA302  GLU305  TRP335  MET336  LEU339  MET340 
 GLY342  LEU343  ARG346  PHE356  ILE373  ILE376  PHE377  LEU380  LYS471  GLY472 
 MET473  HIS475  LEU476  LEU477  ASN478  MET479  VAL484  VAL487 

> <Gold.Protein.RotatedAtoms>
   36.6280   33.2116   42.2386 H   0  0  0  0  0  0  0  0  0  0  0  0  # atno 496  bound_to 491 

> <Gold.Score>
     Score     S(PLP)   S(hbond)     S(cho)   S(metal)  DE(clash)   DE(tors)     intcor
     35.58     -35.61       0.00       0.00       0.00       0.00       0.02       0.00

> <Gold.PLP.Fitness>
35.5756

> <Gold.PLP.PLP>
-35.6112

> <Gold.PLP.part.hbond>
0.0000

> <Gold.PLP.part.metal>
0.0000

> <Gold.PLP.part.buried>
-5.4356

> <Gold.PLP.part.nonpolar>
-30.1647

> <Gold.PLP.part.repulsive>
0.1468

> <Gold.PLP.ligand.clash>
0.0000

> <Gold.PLP.ligand.torsion>
0.0179

> <Gold.PLP.Chemscore.Hbond>
0.0000

> <Gold.PLP.Chemscore.CHOScore>
0.0000

> <Gold.PLP.Chemscore.Metal>
0.0000

> <Gold.PLP.Chemscore.Internal.Correction>
0.0000

