#       Name:                EN300-246549_i001
#       Creating user name   aseyller
#       Creation time:       Sat Apr 22 07:55:31 2023


#       File generated by GOLD software.
#

@<TRIPOS>MOLECULE
EN300-246549_i001|amine_3|mol2|4094|dock16
    24    25     1
SMALL
USER_CHARGES


@<TRIPOS>ATOM
      1 C1          32.0852  35.2869  38.1631 C.3            1 <1>                0.0000
      2 O2          30.9824  35.1412  39.0964 O.3            1 <1>                0.0000
      3 C3          30.0610  36.1242  39.1127 C.2            1 <1>                0.0000
      4 O4          30.1517  37.0547  38.3370 O.2            1 <1>                0.0000
      5 C5          28.9416  36.0703  40.0729 C.2            1 <1>                0.0000
      6 N6          28.9507  35.4994  41.2667 N.2            1 <1>                0.0000
      7 N7          27.8030  35.6426  41.8365 N.pl3          1 <1>                0.0000
      8 C8          26.9744  36.3253  41.0338 C.2            1 <1>                0.0000
      9 C9          25.5432  36.7442  41.2562 C.3            1 <1>                0.0000
     10 C10         25.2055  37.8275  40.2217 C.3            1 <1>                0.0000
     11 N11         25.6113  37.3804  38.8822 N.3            1 <1>                0.0000
     12 C12         27.0782  37.3724  38.7371 C.3            1 <1>                0.0000
     13 C13         27.6617  36.6197  39.9004 C.2            1 <1>                0.0000
     14 H14         32.7522  34.4295  38.2522 H              1 <1>                0.0000
     15 H15         31.6960  35.3405  37.1464 H              1 <1>                0.0000
     16 H16         32.6350  36.2002  38.3903 H              1 <1>                0.0000
     17 H17         24.8828  35.8874  41.1226 H              1 <1>                0.0000
     18 H18         25.4285  37.1463  42.2628 H              1 <1>                0.0000
     19 H19         24.1318  38.0154  40.2312 H              1 <1>                0.0000
     20 H20         25.7353  38.7464  40.4731 H              1 <1>                0.0000
     21 H21         27.3528  36.8820  37.8032 H              1 <1>                0.0000
     22 H22         27.4536  38.3957  38.7403 H              1 <1>                0.0000
     23 H23         27.5730  35.3058  42.7166 H              1 <1>                0.0000
     24 H24         25.2221  36.4739  38.6702 H              1 <1>                0.0000
@<TRIPOS>BOND
    1    1    2 1     
    2    1   14 1     
    3    1   15 1     
    4    1   16 1     
    5    2    3 1     
    6    3    4 2     
    7    3    5 1     
    8    5    6 2     
    9    5   13 1     
   10    6    7 1     
   11    7    8 1     
   12    7   23 1     
   13    8    9 1     
   14    8   13 2     
   15    9   10 1     
   16    9   17 1     
   17    9   18 1     
   18   10   11 1     
   19   10   19 1     
   20   10   20 1     
   21   11   12 1     
   22   11   24 1     
   23   12   13 1     
   24   12   21 1     
   25   12   22 1     
@<TRIPOS>SUBSTRUCTURE
      1 ****           1
@<TRIPOS>SET
DONOR_HYDROGENS      STATIC     ATOMS    <user>   **** ""
2 23 24
ATOM$RED        STATIC     ATOMS    COLORGROUP SYSTEM
2 23 24
@<TRIPOS>COMMENT
> <Gold.Version>
2022.2.0

> <Gold.Id.Protein>
1qkm|1qkm_protein|mol2

> <Gold.Protein.RotatedTorsions>
[  496  491  490  487 ] final  -35.83 input  -89.99 | X-H torsion

> <Gold.Protein.ActiveResidues>
 MET295  LEU298  THR299  LEU301  ALA302  GLU305  TRP335  MET336  LEU339  MET340 
 GLY342  LEU343  ARG346  PHE356  ILE373  ILE376  PHE377  LEU380  LYS471  GLY472 
 MET473  HIS475  LEU476  LEU477  ASN478  MET479  VAL484  VAL487 

> <Gold.Protein.RotatedAtoms>
   36.3414   34.6200   41.8299 H   0  0  0  0  0  0  0  0  0  0  0  0  # atno 496  bound_to 491 

> <Gold.Score>
     Score     S(PLP)   S(hbond)     S(cho)   S(metal)  DE(clash)   DE(tors)     intcor
     37.29     -35.36       0.88       0.00       0.00       0.00       0.36       0.00

> <Gold.PLP.Fitness>
37.2868

> <Gold.PLP.PLP>
-35.3633

> <Gold.PLP.part.hbond>
-1.0000

> <Gold.PLP.part.metal>
0.0000

> <Gold.PLP.part.buried>
-7.8045

> <Gold.PLP.part.nonpolar>
-29.0885

> <Gold.PLP.part.repulsive>
1.4200

> <Gold.PLP.ligand.clash>
0.0000

> <Gold.PLP.ligand.torsion>
0.3583

> <Gold.PLP.Chemscore.Hbond>
0.8800

> <Gold.PLP.Chemscore.CHOScore>
0.0000

> <Gold.PLP.Chemscore.Metal>
0.0000

> <Gold.Chemscore.Hbonds>
donor molecule, donor type, donor heavy atom, donor atom, acceptor molecule, acceptor atom, score
      L1  H     7    23       P1   582  0.88

> <Gold.PLP.Chemscore.Internal.Correction>
0.0000

