#       Name:                EN300-246549_i001
#       Creating user name   aseyller
#       Creation time:       Sat Apr 22 07:55:28 2023


#       File generated by GOLD software.
#

@<TRIPOS>MOLECULE
EN300-246549_i001|amine_3|mol2|4094|dock2
    24    25     1
SMALL
USER_CHARGES


@<TRIPOS>ATOM
      1 C1          32.8619  36.1182  37.5914 C.3            1 <1>                0.0000
      2 O2          31.5431  36.7255  37.5801 O.3            1 <1>                0.0000
      3 C3          30.6110  36.1788  38.3850 C.2            1 <1>                0.0000
      4 O4          30.9005  35.2396  39.0991 O.2            1 <1>                0.0000
      5 C5          29.2385  36.7209  38.3990 C.2            1 <1>                0.0000
      6 N6          28.6704  37.4592  37.4592 N.2            1 <1>                0.0000
      7 N7          27.4627  37.7575  37.7980 N.pl3          1 <1>                0.0000
      8 C8          27.1753  37.2206  38.9921 C.2            1 <1>                0.0000
      9 C9          25.9019  37.2831  39.7969 C.3            1 <1>                0.0000
     10 C10         25.9703  36.1860  40.8690 C.3            1 <1>                0.0000
     11 N11         27.2570  36.2593  41.5747 N.3            1 <1>                0.0000
     12 C12         28.3694  35.8128  40.7168 C.3            1 <1>                0.0000
     13 C13         28.2793  36.5489  39.4090 C.2            1 <1>                0.0000
     14 H14         33.5142  36.6532  36.9012 H              1 <1>                0.0000
     15 H15         33.2772  36.1700  38.5978 H              1 <1>                0.0000
     16 H16         32.7843  35.0755  37.2835 H              1 <1>                0.0000
     17 H17         25.8137  38.2596  40.2730 H              1 <1>                0.0000
     18 H18         25.0450  37.1101  39.1459 H              1 <1>                0.0000
     19 H19         25.1575  36.3250  41.5819 H              1 <1>                0.0000
     20 H20         25.8721  35.2094  40.3950 H              1 <1>                0.0000
     21 H21         29.3200  36.0344  41.2020 H              1 <1>                0.0000
     22 H22         28.2883  34.7407  40.5376 H              1 <1>                0.0000
     23 H23         26.8518  38.2919  37.2667 H              1 <1>                0.0000
     24 H24         27.4234  37.1898  41.9276 H              1 <1>                0.0000
@<TRIPOS>BOND
    1    1    2 1     
    2    1   14 1     
    3    1   15 1     
    4    1   16 1     
    5    2    3 1     
    6    3    4 2     
    7    3    5 1     
    8    5    6 2     
    9    5   13 1     
   10    6    7 1     
   11    7    8 1     
   12    7   23 1     
   13    8    9 1     
   14    8   13 2     
   15    9   10 1     
   16    9   17 1     
   17    9   18 1     
   18   10   11 1     
   19   10   19 1     
   20   10   20 1     
   21   11   12 1     
   22   11   24 1     
   23   12   13 1     
   24   12   21 1     
   25   12   22 1     
@<TRIPOS>SUBSTRUCTURE
      1 ****           1
@<TRIPOS>SET
DONOR_HYDROGENS      STATIC     ATOMS    <user>   **** ""
2 23 24
ATOM$RED        STATIC     ATOMS    COLORGROUP SYSTEM
2 23 24
@<TRIPOS>COMMENT
> <Gold.Version>
2022.2.0

> <Gold.Id.Protein>
1qkm|1qkm_protein|mol2

> <Gold.Protein.RotatedTorsions>
[  496  491  490  487 ] final  -76.77 input  -89.99 | X-H torsion

> <Gold.Protein.ActiveResidues>
 MET295  LEU298  THR299  LEU301  ALA302  GLU305  TRP335  MET336  LEU339  MET340 
 GLY342  LEU343  ARG346  PHE356  ILE373  ILE376  PHE377  LEU380  LYS471  GLY472 
 MET473  HIS475  LEU476  LEU477  ASN478  MET479  VAL484  VAL487 

> <Gold.Protein.RotatedAtoms>
   36.6370   34.7177   41.2484 H   0  0  0  0  0  0  0  0  0  0  0  0  # atno 496  bound_to 491 

> <Gold.Score>
     Score     S(PLP)   S(hbond)     S(cho)   S(metal)  DE(clash)   DE(tors)     intcor
     37.37     -37.72       0.00       0.00       0.00       0.00       0.18       0.00

> <Gold.PLP.Fitness>
37.3674

> <Gold.PLP.PLP>
-37.7232

> <Gold.PLP.part.hbond>
-0.9959

> <Gold.PLP.part.metal>
0.0000

> <Gold.PLP.part.buried>
-6.3431

> <Gold.PLP.part.nonpolar>
-31.4461

> <Gold.PLP.part.repulsive>
0.2394

> <Gold.PLP.ligand.clash>
0.0000

> <Gold.PLP.ligand.torsion>
0.1779

> <Gold.PLP.Chemscore.Hbond>
0.0000

> <Gold.PLP.Chemscore.CHOScore>
0.0000

> <Gold.PLP.Chemscore.Metal>
0.0000

> <Gold.PLP.Chemscore.Internal.Correction>
0.0000

