#       Name:                plp ligand
#       Creating user name   aseyller
#       Creation time:       Sat Apr 22 07:55:28 2023


#       File generated by GOLD software.
#

@<TRIPOS>MOLECULE
plp ligand
    24    25     1
SMALL
USER_CHARGES


@<TRIPOS>ATOM
      1 C1           4.5628  -0.2079  -0.0119 NONPOLAR       1 <1>                0.0000
      2 O2           3.3347   0.5663   0.0127 ACCEPTOR       1 <1>                0.0000
      3 C3           2.1769  -0.1228   0.0026 NONPOLAR       1 <1>                0.0000
      4 O4           2.1931  -1.3372  -0.0259 ACCEPTOR       1 <1>                0.0000
      5 C5           0.8892   0.5977   0.0262 NONPOLAR       1 <1>                0.0000
      6 N6           0.7176   1.9095   0.0574 ACCEPTOR       1 <1>                0.0000
      7 N7          -0.5401   2.1929   0.0696 DONOR          1 <1>                0.0000
      8 C8          -1.2647   1.0654   0.0450 NONPOLAR       1 <1>                0.0000
      9 C9          -2.7609   0.8799   0.0404 NONPOLAR       1 <1>                0.0000
     10 C10         -3.0533  -0.5632  -0.3951 NONPOLAR       1 <1>                0.0000
     11 N11         -2.2277  -1.4954   0.3849 DONACC         1 <1>                0.0000
     12 C12         -0.8091  -1.4189  -0.0083 NONPOLAR       1 <1>                0.0000
     13 C13         -0.3922   0.0254   0.0139 NONPOLAR       1 <1>                0.0000
     14 H14          5.4183   0.4674  -0.0006                1 <1>                0.0000
     15 H15          4.6007  -0.8570   0.8629                1 <1>                0.0000
     16 H16          4.5913  -0.8153  -0.9165                1 <1>                0.0000
     17 H17         -3.1572   1.0510   1.0413                1 <1>                0.0000
     18 H18         -3.2171   1.5772  -0.6623                1 <1>                0.0000
     19 H19         -4.1072  -0.7856  -0.2280                1 <1>                0.0000
     20 H20         -2.8239  -0.6755  -1.4548                1 <1>                0.0000
     21 H21         -0.2016  -1.9907   0.6932                1 <1>                0.0000
     22 H22         -0.6843  -1.8185  -1.0147                1 <1>                0.0000
     23 H23         -0.9079   3.0902   0.0932                1 <1>                0.0000
     24 H24         -2.3377  -1.3345   1.3749                1 <1>                0.0000
@<TRIPOS>BOND
    1    1    2 1     
    2    1   14 1     
    3    1   15 1     
    4    1   16 1     
    5    2    3 1     
    6    3    4 2     
    7    3    5 1     
    8    5    6 2     
    9    5   13 1     
   10    6    7 1     
   11    7    8 1     
   12    7   23 1     
   13    8    9 1     
   14    8   13 2     
   15    9   10 1     
   16    9   17 1     
   17    9   18 1     
   18   10   11 1     
   19   10   19 1     
   20   10   20 1     
   21   11   12 1     
   22   11   24 1     
   23   12   13 1     
   24   12   21 1     
   25   12   22 1     
@<TRIPOS>SUBSTRUCTURE
      1 ****           1
@<TRIPOS>SET
DONOR_HYDROGENS      STATIC     ATOMS    <user>   **** ""
2 23 24
ATOM$RED        STATIC     ATOMS    COLORGROUP SYSTEM
2 23 24
