#       Name:                EN300-1144246_i001
#       Creating user name   aseyller
#       Creation time:       Fri Apr 21 20:18:34 2023


#       File generated by GOLD software.
#

@<TRIPOS>MOLECULE
EN300-1144246_i001|Sulfonylchlorides|mol2|1052|dock13
    21    20     1
SMALL
USER_CHARGES


@<TRIPOS>ATOM
      1 F1          25.8104  36.7061  39.0749 F              1 <1>                0.0000
      2 C2          26.4539  36.9993  40.2820 C.3            1 <1>                0.0000
      3 F3          25.4985  37.2965  41.2597 F              1 <1>                0.0000
      4 C4          27.2794  35.7902  40.7266 C.3            1 <1>                0.0000
      5 O5          28.1689  35.4082  39.6754 O.3            1 <1>                0.0000
      6 C6          29.1302  36.4091  39.3349 C.3            1 <1>                0.0000
      7 C7          29.9623  35.9324  38.1427 C.3            1 <1>                0.0000
      8 C8          31.0371  36.9731  37.8223 C.3            1 <1>                0.0000
      9 S9          32.5471  36.1328  37.2707 S.o2           1 <1>                0.0000
     10 O10         33.6898  36.6970  37.8994 O.2            1 <1>                0.0000
     11 O11         32.3502  34.7259  37.2352 O.2            1 <1>                0.0000
     12 Cl12        32.7362  36.6585  35.3295 Cl             1 <1>                0.0000
     13 H13         27.1117  37.8574  40.1441 H              1 <1>                0.0000
     14 H14         27.8562  36.0506  41.6140 H              1 <1>                0.0000
     15 H15         26.6121  34.9598  40.9576 H              1 <1>                0.0000
     16 H16         28.6152  37.3332  39.0723 H              1 <1>                0.0000
     17 H17         29.7858  36.5881  40.1872 H              1 <1>                0.0000
     18 H18         30.4377  34.9828  38.3880 H              1 <1>                0.0000
     19 H19         29.3140  35.8012  37.2764 H              1 <1>                0.0000
     20 H20         30.6794  37.6334  37.0322 H              1 <1>                0.0000
     21 H21         31.2531  37.5593  38.7156 H              1 <1>                0.0000
@<TRIPOS>BOND
    1    1    2 1     
    2    2    3 1     
    3    2    4 1     
    4    2   13 1     
    5    4    5 1     
    6    4   14 1     
    7    4   15 1     
    8    5    6 1     
    9    6    7 1     
   10    6   16 1     
   11    6   17 1     
   12    7    8 1     
   13    7   18 1     
   14    7   19 1     
   15    8    9 1     
   16    8   20 1     
   17    8   21 1     
   18    9   10 2     
   19    9   11 2     
   20    9   12 1     
@<TRIPOS>SUBSTRUCTURE
      1 ****           1
@<TRIPOS>COMMENT
> <Gold.Version>
2022.2.0

> <Gold.Id.Protein>
1qkm|1qkm_protein|mol2

> <Gold.Protein.RotatedTorsions>
[  496  491  490  487 ] final -163.13 input  -89.99 | X-H torsion

> <Gold.Protein.ActiveResidues>
 MET295  LEU298  THR299  LEU301  ALA302  GLU305  TRP335  MET336  LEU339  MET340 
 GLY342  LEU343  ARG346  PHE356  ILE373  ILE376  PHE377  LEU380  LYS471  GLY472 
 MET473  HIS475  LEU476  LEU477  ASN478  MET479  VAL484  VAL487 

> <Gold.Protein.RotatedAtoms>
   37.2860   33.7145   40.7598 H   0  0  0  0  0  0  0  0  0  0  0  0  # atno 496  bound_to 491 

> <Gold.Score>
     Score     S(PLP)   S(hbond)     S(cho)   S(metal)  DE(clash)   DE(tors)     intcor
     38.15     -38.74       0.00       0.00       0.00       0.00       0.38       0.17

> <Gold.PLP.Fitness>
38.1473

> <Gold.PLP.PLP>
-38.7441

> <Gold.PLP.part.hbond>
0.0000

> <Gold.PLP.part.metal>
0.0000

> <Gold.PLP.part.buried>
-0.9775

> <Gold.PLP.part.nonpolar>
-37.2930

> <Gold.PLP.part.repulsive>
0.0921

> <Gold.PLP.ligand.clash>
0.0000

> <Gold.PLP.ligand.torsion>
0.3839

> <Gold.PLP.Chemscore.Hbond>
0.0000

> <Gold.PLP.Chemscore.CHOScore>
0.0000

> <Gold.PLP.Chemscore.Metal>
0.0000

> <Gold.PLP.Chemscore.Internal.Correction>
0.1710

