#       Name:                EN300-1144246_i001
#       Creating user name   aseyller
#       Creation time:       Fri Apr 21 20:18:28 2023


#       File generated by GOLD software.
#

@<TRIPOS>MOLECULE
EN300-1144246_i001|Sulfonylchlorides|mol2|1052|dock8
    21    20     1
SMALL
USER_CHARGES


@<TRIPOS>ATOM
      1 F1          25.8040  36.8566  40.7956 F              1 <1>                0.0000
      2 C2          26.2278  36.4743  39.5183 C.3            1 <1>                0.0000
      3 F3          26.3184  37.6047  38.6991 F              1 <1>                0.0000
      4 C4          27.5995  35.8037  39.6156 C.3            1 <1>                0.0000
      5 O5          28.5076  36.6731  40.2951 O.3            1 <1>                0.0000
      6 C6          29.8179  36.7048  39.7260 C.3            1 <1>                0.0000
      7 C7          29.7135  36.9441  38.2185 C.3            1 <1>                0.0000
      8 C8          31.1161  37.1119  37.6303 C.3            1 <1>                0.0000
      9 S9          30.9967  37.8817  35.9922 S.o2           1 <1>                0.0000
     10 O10         30.2647  37.0500  35.1025 O.2            1 <1>                0.0000
     11 O11         30.6998  39.2662  36.1123 O.2            1 <1>                0.0000
     12 Cl12        32.8848  37.8375  35.2756 Cl             1 <1>                0.0000
     13 H13         25.5101  35.7732  39.0921 H              1 <1>                0.0000
     14 H14         27.5086  34.8690  40.1688 H              1 <1>                0.0000
     15 H15         27.9751  35.5977  38.6133 H              1 <1>                0.0000
     16 H16         30.3931  37.5102  40.1828 H              1 <1>                0.0000
     17 H17         30.3168  35.7531  39.9091 H              1 <1>                0.0000
     18 H18         29.2221  36.0922  37.7486 H              1 <1>                0.0000
     19 H19         29.1316  37.8470  38.0333 H              1 <1>                0.0000
     20 H20         31.7120  37.7456  38.2872 H              1 <1>                0.0000
     21 H21         31.5909  36.1350  37.5391 H              1 <1>                0.0000
@<TRIPOS>BOND
    1    1    2 1     
    2    2    3 1     
    3    2    4 1     
    4    2   13 1     
    5    4    5 1     
    6    4   14 1     
    7    4   15 1     
    8    5    6 1     
    9    6    7 1     
   10    6   16 1     
   11    6   17 1     
   12    7    8 1     
   13    7   18 1     
   14    7   19 1     
   15    8    9 1     
   16    8   20 1     
   17    8   21 1     
   18    9   10 2     
   19    9   11 2     
   20    9   12 1     
@<TRIPOS>SUBSTRUCTURE
      1 ****           1
@<TRIPOS>COMMENT
> <Gold.Version>
2022.2.0

> <Gold.Id.Protein>
1qkm|1qkm_protein|mol2

> <Gold.Protein.RotatedTorsions>
[  496  491  490  487 ] final  -32.55 input  -89.99 | X-H torsion

> <Gold.Protein.ActiveResidues>
 MET295  LEU298  THR299  LEU301  ALA302  GLU305  TRP335  MET336  LEU339  MET340 
 GLY342  LEU343  ARG346  PHE356  ILE373  ILE376  PHE377  LEU380  LYS471  GLY472 
 MET473  HIS475  LEU476  LEU477  ASN478  MET479  VAL484  VAL487 

> <Gold.Protein.RotatedAtoms>
   36.3259   34.5934   41.8743 H   0  0  0  0  0  0  0  0  0  0  0  0  # atno 496  bound_to 491 

> <Gold.Score>
     Score     S(PLP)   S(hbond)     S(cho)   S(metal)  DE(clash)   DE(tors)     intcor
     38.45     -39.32       0.00       0.00       0.00       0.00       0.52       0.17

> <Gold.PLP.Fitness>
38.4533

> <Gold.PLP.PLP>
-39.3201

> <Gold.PLP.part.hbond>
0.0000

> <Gold.PLP.part.metal>
0.0000

> <Gold.PLP.part.buried>
-4.3813

> <Gold.PLP.part.nonpolar>
-35.5181

> <Gold.PLP.part.repulsive>
0.1109

> <Gold.PLP.ligand.clash>
0.0000

> <Gold.PLP.ligand.torsion>
0.5189

> <Gold.PLP.Chemscore.Hbond>
0.0000

> <Gold.PLP.Chemscore.CHOScore>
0.0000

> <Gold.PLP.Chemscore.Metal>
0.0000

> <Gold.PLP.Chemscore.Internal.Correction>
0.1710

