#       Name:                EN300-1144246_i001
#       Creating user name   aseyller
#       Creation time:       Fri Apr 21 20:18:42 2023


#       File generated by GOLD software.
#

@<TRIPOS>MOLECULE
EN300-1144246_i001|Sulfonylchlorides|mol2|1052|dock19
    21    20     1
SMALL
USER_CHARGES


@<TRIPOS>ATOM
      1 F1          27.6381  36.2316  41.2278 F              1 <1>                0.0000
      2 C2          26.3789  36.2028  40.6191 C.3            1 <1>                0.0000
      3 F3          25.4962  37.0190  41.3344 F              1 <1>                0.0000
      4 C4          26.4953  36.7143  39.1819 C.3            1 <1>                0.0000
      5 O5          27.8576  36.6362  38.7573 O.3            1 <1>                0.0000
      6 C6          28.1537  37.4279  37.6052 C.3            1 <1>                0.0000
      7 C7          29.6637  37.6585  37.5191 C.3            1 <1>                0.0000
      8 C8          30.3614  36.3429  37.1673 C.3            1 <1>                0.0000
      9 S9          31.8932  36.6943  36.2615 S.o2           1 <1>                0.0000
     10 O10         32.6952  37.6221  36.9791 O.2            1 <1>                0.0000
     11 O11         32.4495  35.4957  35.7387 O.2            1 <1>                0.0000
     12 Cl12        31.2893  37.7172  34.6276 Cl             1 <1>                0.0000
     13 H13         26.0024  35.1799  40.6113 H              1 <1>                0.0000
     14 H14         25.8751  36.1022  38.5270 H              1 <1>                0.0000
     15 H15         26.1594  37.7503  39.1366 H              1 <1>                0.0000
     16 H16         27.8140  36.9074  36.7097 H              1 <1>                0.0000
     17 H17         27.6434  38.3879  37.6830 H              1 <1>                0.0000
     18 H18         29.8747  38.3992  36.7479 H              1 <1>                0.0000
     19 H19         30.0315  38.0191  38.4797 H              1 <1>                0.0000
     20 H20         30.5969  35.8004  38.0829 H              1 <1>                0.0000
     21 H21         29.7022  35.7372  36.5454 H              1 <1>                0.0000
@<TRIPOS>BOND
    1    1    2 1     
    2    2    3 1     
    3    2    4 1     
    4    2   13 1     
    5    4    5 1     
    6    4   14 1     
    7    4   15 1     
    8    5    6 1     
    9    6    7 1     
   10    6   16 1     
   11    6   17 1     
   12    7    8 1     
   13    7   18 1     
   14    7   19 1     
   15    8    9 1     
   16    8   20 1     
   17    8   21 1     
   18    9   10 2     
   19    9   11 2     
   20    9   12 1     
@<TRIPOS>SUBSTRUCTURE
      1 ****           1
@<TRIPOS>COMMENT
> <Gold.Version>
2022.2.0

> <Gold.Id.Protein>
1qkm|1qkm_protein|mol2

> <Gold.Protein.RotatedTorsions>
[  496  491  490  487 ] final  167.70 input  -89.99 | X-H torsion

> <Gold.Protein.ActiveResidues>
 MET295  LEU298  THR299  LEU301  ALA302  GLU305  TRP335  MET336  LEU339  MET340 
 GLY342  LEU343  ARG346  PHE356  ILE373  ILE376  PHE377  LEU380  LYS471  GLY472 
 MET473  HIS475  LEU476  LEU477  ASN478  MET479  VAL484  VAL487 

> <Gold.Protein.RotatedAtoms>
   37.3124   33.2965   40.9838 H   0  0  0  0  0  0  0  0  0  0  0  0  # atno 496  bound_to 491 

> <Gold.Score>
     Score     S(PLP)   S(hbond)     S(cho)   S(metal)  DE(clash)   DE(tors)     intcor
     35.40     -37.22       0.00       0.00       0.00       0.00       1.00       0.17

> <Gold.PLP.Fitness>
35.3952

> <Gold.PLP.PLP>
-37.2243

> <Gold.PLP.part.hbond>
0.0000

> <Gold.PLP.part.metal>
0.0000

> <Gold.PLP.part.buried>
-2.7994

> <Gold.PLP.part.nonpolar>
-34.7803

> <Gold.PLP.part.repulsive>
0.0628

> <Gold.PLP.ligand.clash>
0.0000

> <Gold.PLP.ligand.torsion>
0.9978

> <Gold.PLP.Chemscore.Hbond>
0.0000

> <Gold.PLP.Chemscore.CHOScore>
0.0000

> <Gold.PLP.Chemscore.Metal>
0.0000

> <Gold.PLP.Chemscore.Internal.Correction>
0.1666

