#       Name:                EN300-1144246_i001
#       Creating user name   aseyller
#       Creation time:       Fri Apr 21 20:18:36 2023


#       File generated by GOLD software.
#

@<TRIPOS>MOLECULE
EN300-1144246_i001|Sulfonylchlorides|mol2|1052|dock14
    21    20     1
SMALL
USER_CHARGES


@<TRIPOS>ATOM
      1 F1          26.8146  36.2096  39.0024 F              1 <1>                0.0000
      2 C2          26.9520  36.7879  40.2688 C.3            1 <1>                0.0000
      3 F3          25.7494  36.6613  40.9724 F              1 <1>                0.0000
      4 C4          28.0688  36.0769  41.0357 C.3            1 <1>                0.0000
      5 O5          29.3314  36.4074  40.4537 O.3            1 <1>                0.0000
      6 C6          29.7450  35.5153  39.4170 C.3            1 <1>                0.0000
      7 C7          30.7279  36.2322  38.4893 C.3            1 <1>                0.0000
      8 C8          30.1985  37.6314  38.1684 C.3            1 <1>                0.0000
      9 S9          30.8297  38.1609  36.5523 S.o2           1 <1>                0.0000
     10 O10         32.2505  38.1852  36.5555 O.2            1 <1>                0.0000
     11 O11         30.1102  37.5267  35.5038 O.2            1 <1>                0.0000
     12 Cl12        30.2985  40.1050  36.4161 Cl             1 <1>                0.0000
     13 H13         27.2004  37.8437  40.1611 H              1 <1>                0.0000
     14 H14         28.0543  36.3962  42.0778 H              1 <1>                0.0000
     15 H15         27.9158  34.9989  40.9838 H              1 <1>                0.0000
     16 H16         30.2310  34.6452  39.8587 H              1 <1>                0.0000
     17 H17         28.8743  35.1939  38.8454 H              1 <1>                0.0000
     18 H18         31.6973  36.3144  38.9808 H              1 <1>                0.0000
     19 H19         30.8359  35.6640  37.5654 H              1 <1>                0.0000
     20 H20         29.1089  37.6108  38.1440 H              1 <1>                0.0000
     21 H21         30.5315  38.3306  38.9355 H              1 <1>                0.0000
@<TRIPOS>BOND
    1    1    2 1     
    2    2    3 1     
    3    2    4 1     
    4    2   13 1     
    5    4    5 1     
    6    4   14 1     
    7    4   15 1     
    8    5    6 1     
    9    6    7 1     
   10    6   16 1     
   11    6   17 1     
   12    7    8 1     
   13    7   18 1     
   14    7   19 1     
   15    8    9 1     
   16    8   20 1     
   17    8   21 1     
   18    9   10 2     
   19    9   11 2     
   20    9   12 1     
@<TRIPOS>SUBSTRUCTURE
      1 ****           1
@<TRIPOS>COMMENT
> <Gold.Version>
2022.2.0

> <Gold.Id.Protein>
1qkm|1qkm_protein|mol2

> <Gold.Protein.RotatedTorsions>
[  496  491  490  487 ] final -105.85 input  -89.99 | X-H torsion

> <Gold.Protein.ActiveResidues>
 MET295  LEU298  THR299  LEU301  ALA302  GLU305  TRP335  MET336  LEU339  MET340 
 GLY342  LEU343  ARG346  PHE356  ILE373  ILE376  PHE377  LEU380  LYS471  GLY472 
 MET473  HIS475  LEU476  LEU477  ASN478  MET479  VAL484  VAL487 

> <Gold.Protein.RotatedAtoms>
   36.9030   34.5196   40.9103 H   0  0  0  0  0  0  0  0  0  0  0  0  # atno 496  bound_to 491 

> <Gold.Score>
     Score     S(PLP)   S(hbond)     S(cho)   S(metal)  DE(clash)   DE(tors)     intcor
     37.92     -39.23       0.00       0.00       0.00       0.00       0.74       0.17

> <Gold.PLP.Fitness>
37.9191

> <Gold.PLP.PLP>
-39.2305

> <Gold.PLP.part.hbond>
0.0000

> <Gold.PLP.part.metal>
0.0000

> <Gold.PLP.part.buried>
-3.9126

> <Gold.PLP.part.nonpolar>
-36.2991

> <Gold.PLP.part.repulsive>
0.1133

> <Gold.PLP.ligand.clash>
0.0000

> <Gold.PLP.ligand.torsion>
0.7412

> <Gold.PLP.Chemscore.Hbond>
0.0000

> <Gold.PLP.Chemscore.CHOScore>
0.0000

> <Gold.PLP.Chemscore.Metal>
0.0000

> <Gold.PLP.Chemscore.Internal.Correction>
0.1710

