#       Name:                EN300-1144246_i001
#       Creating user name   aseyller
#       Creation time:       Fri Apr 21 20:18:41 2023


#       File generated by GOLD software.
#

@<TRIPOS>MOLECULE
EN300-1144246_i001|Sulfonylchlorides|mol2|1052|dock18
    21    20     1
SMALL
USER_CHARGES


@<TRIPOS>ATOM
      1 F1          25.4977  36.9995  41.2030 F              1 <1>                0.0000
      2 C2          26.2602  36.4606  40.1613 C.3            1 <1>                0.0000
      3 F3          26.3133  37.3727  39.1019 F              1 <1>                0.0000
      4 C4          27.6781  36.1767  40.6612 C.3            1 <1>                0.0000
      5 O5          28.5049  35.7977  39.5591 O.3            1 <1>                0.0000
      6 C6          29.7992  36.4030  39.5681 C.3            1 <1>                0.0000
      7 C7          30.6644  35.7735  38.4745 C.3            1 <1>                0.0000
      8 C8          31.6101  36.8306  37.9007 C.3            1 <1>                0.0000
      9 S9          30.6560  38.0381  36.9404 S.o2           1 <1>                0.0000
     10 O10         29.4602  38.3864  37.6246 O.2            1 <1>                0.0000
     11 O11         31.5120  39.0384  36.4057 O.2            1 <1>                0.0000
     12 Cl12        30.0221  37.0080  35.3225 Cl             1 <1>                0.0000
     13 H13         25.8030  35.5323  39.8189 H              1 <1>                0.0000
     14 H14         28.0848  37.0733  41.1290 H              1 <1>                0.0000
     15 H15         27.6509  35.3669  41.3904 H              1 <1>                0.0000
     16 H16         29.7013  37.4728  39.3833 H              1 <1>                0.0000
     17 H17         30.2681  36.2435  40.5392 H              1 <1>                0.0000
     18 H18         31.2475  34.9559  38.8982 H              1 <1>                0.0000
     19 H19         30.0239  35.3897  37.6804 H              1 <1>                0.0000
     20 H20         32.1241  37.3393  38.7162 H              1 <1>                0.0000
     21 H21         32.3432  36.3492  37.2534 H              1 <1>                0.0000
@<TRIPOS>BOND
    1    1    2 1     
    2    2    3 1     
    3    2    4 1     
    4    2   13 1     
    5    4    5 1     
    6    4   14 1     
    7    4   15 1     
    8    5    6 1     
    9    6    7 1     
   10    6   16 1     
   11    6   17 1     
   12    7    8 1     
   13    7   18 1     
   14    7   19 1     
   15    8    9 1     
   16    8   20 1     
   17    8   21 1     
   18    9   10 2     
   19    9   11 2     
   20    9   12 1     
@<TRIPOS>SUBSTRUCTURE
      1 ****           1
@<TRIPOS>COMMENT
> <Gold.Version>
2022.2.0

> <Gold.Id.Protein>
1qkm|1qkm_protein|mol2

> <Gold.Protein.RotatedTorsions>
[  496  491  490  487 ] final  -73.76 input  -89.99 | X-H torsion

> <Gold.Protein.ActiveResidues>
 MET295  LEU298  THR299  LEU301  ALA302  GLU305  TRP335  MET336  LEU339  MET340 
 GLY342  LEU343  ARG346  PHE356  ILE373  ILE376  PHE377  LEU380  LYS471  GLY472 
 MET473  HIS475  LEU476  LEU477  ASN478  MET479  VAL484  VAL487 

> <Gold.Protein.RotatedAtoms>
   36.6107   34.7259   41.2894 H   0  0  0  0  0  0  0  0  0  0  0  0  # atno 496  bound_to 491 

> <Gold.Score>
     Score     S(PLP)   S(hbond)     S(cho)   S(metal)  DE(clash)   DE(tors)     intcor
     37.24     -38.59       0.00       0.00       0.00       0.00       0.76       0.17

> <Gold.PLP.Fitness>
37.2424

> <Gold.PLP.PLP>
-38.5936

> <Gold.PLP.part.hbond>
0.0000

> <Gold.PLP.part.metal>
0.0000

> <Gold.PLP.part.buried>
-3.4623

> <Gold.PLP.part.nonpolar>
-35.0088

> <Gold.PLP.part.repulsive>
0.0395

> <Gold.PLP.ligand.clash>
0.0000

> <Gold.PLP.ligand.torsion>
0.7589

> <Gold.PLP.Chemscore.Hbond>
0.0000

> <Gold.PLP.Chemscore.CHOScore>
0.0000

> <Gold.PLP.Chemscore.Metal>
0.0000

> <Gold.PLP.Chemscore.Internal.Correction>
0.1666

