#       Name:                EN300-1144246_i001
#       Creating user name   aseyller
#       Creation time:       Fri Apr 21 20:18:23 2023


#       File generated by GOLD software.
#

@<TRIPOS>MOLECULE
EN300-1144246_i001|Sulfonylchlorides|mol2|1052|dock4
    21    20     1
SMALL
USER_CHARGES


@<TRIPOS>ATOM
      1 F1          26.8661  35.8034  40.8965 F              1 <1>                0.0000
      2 C2          26.5792  36.4013  39.6647 C.3            1 <1>                0.0000
      3 F3          25.7931  37.5400  39.8708 F              1 <1>                0.0000
      4 C4          27.8853  36.8011  38.9755 C.3            1 <1>                0.0000
      5 O5          27.5903  37.4984  37.7634 O.3            1 <1>                0.0000
      6 C6          28.6650  38.3077  37.2821 C.3            1 <1>                0.0000
      7 C7          29.7961  37.4079  36.7804 C.3            1 <1>                0.0000
      8 C8          30.7064  37.0321  37.9514 C.3            1 <1>                0.0000
      9 S9          32.0644  35.9898  37.3512 S.o2           1 <1>                0.0000
     10 O10         31.9289  35.7479  35.9576 O.2            1 <1>                0.0000
     11 O11         33.3021  36.4164  37.9039 O.2            1 <1>                0.0000
     12 Cl12        31.7324  34.1890  38.2040 Cl             1 <1>                0.0000
     13 H13         26.0377  35.6950  39.0354 H              1 <1>                0.0000
     14 H14         28.4613  37.4490  39.6363 H              1 <1>                0.0000
     15 H15         28.4648  35.9064  38.7481 H              1 <1>                0.0000
     16 H16         28.3096  38.9347  36.4643 H              1 <1>                0.0000
     17 H17         29.0344  38.9393  38.0901 H              1 <1>                0.0000
     18 H18         29.3738  36.5030  36.3435 H              1 <1>                0.0000
     19 H19         30.3757  37.9395  36.0257 H              1 <1>                0.0000
     20 H20         31.1144  37.9381  38.3996 H              1 <1>                0.0000
     21 H21         30.1308  36.4848  38.6979 H              1 <1>                0.0000
@<TRIPOS>BOND
    1    1    2 1     
    2    2    3 1     
    3    2    4 1     
    4    2   13 1     
    5    4    5 1     
    6    4   14 1     
    7    4   15 1     
    8    5    6 1     
    9    6    7 1     
   10    6   16 1     
   11    6   17 1     
   12    7    8 1     
   13    7   18 1     
   14    7   19 1     
   15    8    9 1     
   16    8   20 1     
   17    8   21 1     
   18    9   10 2     
   19    9   11 2     
   20    9   12 1     
@<TRIPOS>SUBSTRUCTURE
      1 ****           1
@<TRIPOS>COMMENT
> <Gold.Version>
2022.2.0

> <Gold.Id.Protein>
1qkm|1qkm_protein|mol2

> <Gold.Protein.RotatedTorsions>
[  496  491  490  487 ] final  -81.63 input  -89.99 | X-H torsion

> <Gold.Protein.ActiveResidues>
 MET295  LEU298  THR299  LEU301  ALA302  GLU305  TRP335  MET336  LEU339  MET340 
 GLY342  LEU343  ARG346  PHE356  ILE373  ILE376  PHE377  LEU380  LYS471  GLY472 
 MET473  HIS475  LEU476  LEU477  ASN478  MET479  VAL484  VAL487 

> <Gold.Protein.RotatedAtoms>
   36.6806   34.6994   41.1839 H   0  0  0  0  0  0  0  0  0  0  0  0  # atno 496  bound_to 491 

> <Gold.Score>
     Score     S(PLP)   S(hbond)     S(cho)   S(metal)  DE(clash)   DE(tors)     intcor
     37.17     -37.80       0.00       0.00       0.00       0.00       0.40       0.17

> <Gold.PLP.Fitness>
37.1724

> <Gold.PLP.PLP>
-37.8004

> <Gold.PLP.part.hbond>
0.0000

> <Gold.PLP.part.metal>
0.0000

> <Gold.PLP.part.buried>
-3.2721

> <Gold.PLP.part.nonpolar>
-34.3174

> <Gold.PLP.part.repulsive>
0.0920

> <Gold.PLP.ligand.clash>
0.0000

> <Gold.PLP.ligand.torsion>
0.3995

> <Gold.PLP.Chemscore.Hbond>
0.0000

> <Gold.PLP.Chemscore.CHOScore>
0.0000

> <Gold.PLP.Chemscore.Metal>
0.0000

> <Gold.PLP.Chemscore.Internal.Correction>
0.1710

