#       Name:                EN300-1144246_i001
#       Creating user name   aseyller
#       Creation time:       Fri Apr 21 20:18:38 2023


#       File generated by GOLD software.
#

@<TRIPOS>MOLECULE
EN300-1144246_i001|Sulfonylchlorides|mol2|1052|dock16
    21    20     1
SMALL
USER_CHARGES


@<TRIPOS>ATOM
      1 F1          25.6588  37.0426  41.4414 F              1 <1>                0.0000
      2 C2          26.3429  36.2092  40.5500 C.3            1 <1>                0.0000
      3 F3          26.1109  36.6383  39.2388 F              1 <1>                0.0000
      4 C4          27.8426  36.2662  40.8474 C.3            1 <1>                0.0000
      5 O5          28.5350  35.3672  39.9788 O.3            1 <1>                0.0000
      6 C6          29.0118  35.9729  38.7756 C.3            1 <1>                0.0000
      7 C7          29.7599  37.2634  39.1161 C.3            1 <1>                0.0000
      8 C8          30.7298  37.6047  37.9830 C.3            1 <1>                0.0000
      9 S9          29.9090  38.7022  36.7946 S.o2           1 <1>                0.0000
     10 O10         28.4988  38.6536  36.9625 O.2            1 <1>                0.0000
     11 O11         30.5941  39.9442  36.7073 O.2            1 <1>                0.0000
     12 Cl12        30.2274  37.8306  35.0003 Cl             1 <1>                0.0000
     13 H13         25.9883  35.1850  40.6653 H              1 <1>                0.0000
     14 H14         28.2069  37.2807  40.6855 H              1 <1>                0.0000
     15 H15         28.0187  35.9779  41.8838 H              1 <1>                0.0000
     16 H16         29.6866  35.2855  38.2655 H              1 <1>                0.0000
     17 H17         28.1678  36.2030  38.1254 H              1 <1>                0.0000
     18 H18         29.0444  38.0764  39.2392 H              1 <1>                0.0000
     19 H19         30.3175  37.1265  40.0426 H              1 <1>                0.0000
     20 H20         31.6069  38.1049  38.3939 H              1 <1>                0.0000
     21 H21         31.0369  36.6882  37.4792 H              1 <1>                0.0000
@<TRIPOS>BOND
    1    1    2 1     
    2    2    3 1     
    3    2    4 1     
    4    2   13 1     
    5    4    5 1     
    6    4   14 1     
    7    4   15 1     
    8    5    6 1     
    9    6    7 1     
   10    6   16 1     
   11    6   17 1     
   12    7    8 1     
   13    7   18 1     
   14    7   19 1     
   15    8    9 1     
   16    8   20 1     
   17    8   21 1     
   18    9   10 2     
   19    9   11 2     
   20    9   12 1     
@<TRIPOS>SUBSTRUCTURE
      1 ****           1
@<TRIPOS>COMMENT
> <Gold.Version>
2022.2.0

> <Gold.Id.Protein>
1qkm|1qkm_protein|mol2

> <Gold.Protein.RotatedTorsions>
[  496  491  490  487 ] final -140.24 input  -89.99 | X-H torsion

> <Gold.Protein.ActiveResidues>
 MET295  LEU298  THR299  LEU301  ALA302  GLU305  TRP335  MET336  LEU339  MET340 
 GLY342  LEU343  ARG346  PHE356  ILE373  ILE376  PHE377  LEU380  LYS471  GLY472 
 MET473  HIS475  LEU476  LEU477  ASN478  MET479  VAL484  VAL487 

> <Gold.Protein.RotatedAtoms>
   37.1754   34.0703   40.7235 H   0  0  0  0  0  0  0  0  0  0  0  0  # atno 496  bound_to 491 

> <Gold.Score>
     Score     S(PLP)   S(hbond)     S(cho)   S(metal)  DE(clash)   DE(tors)     intcor
     37.44     -38.75       0.00       0.00       0.00       0.00       0.74       0.17

> <Gold.PLP.Fitness>
37.4382

> <Gold.PLP.PLP>
-38.7494

> <Gold.PLP.part.hbond>
0.0000

> <Gold.PLP.part.metal>
0.0000

> <Gold.PLP.part.buried>
-3.7074

> <Gold.PLP.part.nonpolar>
-35.4516

> <Gold.PLP.part.repulsive>
0.0754

> <Gold.PLP.ligand.clash>
0.0000

> <Gold.PLP.ligand.torsion>
0.7389

> <Gold.PLP.Chemscore.Hbond>
0.0000

> <Gold.PLP.Chemscore.CHOScore>
0.0000

> <Gold.PLP.Chemscore.Metal>
0.0000

> <Gold.PLP.Chemscore.Internal.Correction>
0.1666

