#       Name:                EN300-1144246_i001
#       Creating user name   aseyller
#       Creation time:       Fri Apr 21 20:18:44 2023


#       File generated by GOLD software.
#

@<TRIPOS>MOLECULE
EN300-1144246_i001|Sulfonylchlorides|mol2|1052|dock20
    21    20     1
SMALL
USER_CHARGES


@<TRIPOS>ATOM
      1 F1          25.7963  37.0220  41.3804 F              1 <1>                0.0000
      2 C2          26.1941  36.5834  40.1129 C.3            1 <1>                0.0000
      3 F3          25.7982  37.5183  39.1503 F              1 <1>                0.0000
      4 C4          27.7161  36.4313  40.0804 C.3            1 <1>                0.0000
      5 O5          28.1124  35.8722  38.8264 O.3            1 <1>                0.0000
      6 C6          28.5261  36.8423  37.8622 C.3            1 <1>                0.0000
      7 C7          29.7672  37.5748  38.3758 C.3            1 <1>                0.0000
      8 C8          30.3521  38.4355  37.2541 C.3            1 <1>                0.0000
      9 S9          31.0458  37.3617  35.9672 S.o2           1 <1>                0.0000
     10 O10         32.1351  36.6074  36.4808 O.2            1 <1>                0.0000
     11 O11         30.0071  36.7369  35.2257 O.2            1 <1>                0.0000
     12 Cl12        31.8987  38.6366  34.6527 Cl             1 <1>                0.0000
     13 H13         25.7282  35.6216  39.8984 H              1 <1>                0.0000
     14 H14         28.1817  37.4089  40.2057 H              1 <1>                0.0000
     15 H15         28.0327  35.7718  40.8885 H              1 <1>                0.0000
     16 H16         28.7619  36.3428  36.9224 H              1 <1>                0.0000
     17 H17         27.7216  37.5598  37.7004 H              1 <1>                0.0000
     18 H18         29.4913  38.2117  39.2162 H              1 <1>                0.0000
     19 H19         30.5106  36.8467  38.7003 H              1 <1>                0.0000
     20 H20         29.5656  39.0561  36.8246 H              1 <1>                0.0000
     21 H21         31.1384  39.0733  37.6580 H              1 <1>                0.0000
@<TRIPOS>BOND
    1    1    2 1     
    2    2    3 1     
    3    2    4 1     
    4    2   13 1     
    5    4    5 1     
    6    4   14 1     
    7    4   15 1     
    8    5    6 1     
    9    6    7 1     
   10    6   16 1     
   11    6   17 1     
   12    7    8 1     
   13    7   18 1     
   14    7   19 1     
   15    8    9 1     
   16    8   20 1     
   17    8   21 1     
   18    9   10 2     
   19    9   11 2     
   20    9   12 1     
@<TRIPOS>SUBSTRUCTURE
      1 ****           1
@<TRIPOS>COMMENT
> <Gold.Version>
2022.2.0

> <Gold.Id.Protein>
1qkm|1qkm_protein|mol2

> <Gold.Protein.RotatedTorsions>
[  496  491  490  487 ] final  -34.46 input  -89.99 | X-H torsion

> <Gold.Protein.ActiveResidues>
 MET295  LEU298  THR299  LEU301  ALA302  GLU305  TRP335  MET336  LEU339  MET340 
 GLY342  LEU343  ARG346  PHE356  ILE373  ILE376  PHE377  LEU380  LYS471  GLY472 
 MET473  HIS475  LEU476  LEU477  ASN478  MET479  VAL484  VAL487 

> <Gold.Protein.RotatedAtoms>
   36.3348   34.6092   41.8486 H   0  0  0  0  0  0  0  0  0  0  0  0  # atno 496  bound_to 491 

> <Gold.Score>
     Score     S(PLP)   S(hbond)     S(cho)   S(metal)  DE(clash)   DE(tors)     intcor
     36.57     -37.20       0.00       0.00       0.00       0.00       0.40       0.17

> <Gold.PLP.Fitness>
36.5706

> <Gold.PLP.PLP>
-37.2050

> <Gold.PLP.part.hbond>
0.0000

> <Gold.PLP.part.metal>
0.0000

> <Gold.PLP.part.buried>
-3.4433

> <Gold.PLP.part.nonpolar>
-34.6208

> <Gold.PLP.part.repulsive>
0.0605

> <Gold.PLP.ligand.clash>
0.0000

> <Gold.PLP.ligand.torsion>
0.4005

> <Gold.PLP.Chemscore.Hbond>
0.0000

> <Gold.PLP.Chemscore.CHOScore>
0.0000

> <Gold.PLP.Chemscore.Metal>
0.0000

> <Gold.PLP.Chemscore.Internal.Correction>
0.1666

