#       Name:                EN300-1144246_i001
#       Creating user name   aseyller
#       Creation time:       Fri Apr 21 20:18:32 2023


#       File generated by GOLD software.
#

@<TRIPOS>MOLECULE
EN300-1144246_i001|Sulfonylchlorides|mol2|1052|dock11
    21    20     1
SMALL
USER_CHARGES


@<TRIPOS>ATOM
      1 F1          25.5350  36.9947  41.1377 F              1 <1>                0.0000
      2 C2          26.7338  36.7364  40.4644 C.3            1 <1>                0.0000
      3 F3          27.2581  35.5139  40.8976 F              1 <1>                0.0000
      4 C4          26.4695  36.6731  38.9587 C.3            1 <1>                0.0000
      5 O5          27.6922  36.3989  38.2716 O.3            1 <1>                0.0000
      6 C6          28.6694  37.4349  38.3880 C.3            1 <1>                0.0000
      7 C7          30.0664  36.8140  38.4469 C.3            1 <1>                0.0000
      8 C8          30.7841  37.0456  37.1156 C.3            1 <1>                0.0000
      9 S9          32.3238  36.0871  37.0839 S.o2           1 <1>                0.0000
     10 O10         33.2908  36.6682  37.9480 O.2            1 <1>                0.0000
     11 O11         32.0452  34.6944  37.1273 O.2            1 <1>                0.0000
     12 Cl12        33.0673  36.3888  35.2300 Cl             1 <1>                0.0000
     13 H13         27.4476  37.5329  40.6747 H              1 <1>                0.0000
     14 H14         25.7497  35.8819  38.7491 H              1 <1>                0.0000
     15 H15         26.0685  37.6283  38.6197 H              1 <1>                0.0000
     16 H16         28.6020  38.0967  37.5245 H              1 <1>                0.0000
     17 H17         28.4869  38.0059  39.2984 H              1 <1>                0.0000
     18 H18         30.6363  37.2773  39.2523 H              1 <1>                0.0000
     19 H19         29.9806  35.7432  38.6318 H              1 <1>                0.0000
     20 H20         30.1405  36.7267  36.2957 H              1 <1>                0.0000
     21 H21         31.0136  38.1056  37.0063 H              1 <1>                0.0000
@<TRIPOS>BOND
    1    1    2 1     
    2    2    3 1     
    3    2    4 1     
    4    2   13 1     
    5    4    5 1     
    6    4   14 1     
    7    4   15 1     
    8    5    6 1     
    9    6    7 1     
   10    6   16 1     
   11    6   17 1     
   12    7    8 1     
   13    7   18 1     
   14    7   19 1     
   15    8    9 1     
   16    8   20 1     
   17    8   21 1     
   18    9   10 2     
   19    9   11 2     
   20    9   12 1     
@<TRIPOS>SUBSTRUCTURE
      1 ****           1
@<TRIPOS>COMMENT
> <Gold.Version>
2022.2.0

> <Gold.Id.Protein>
1qkm|1qkm_protein|mol2

> <Gold.Protein.RotatedTorsions>
[  496  491  490  487 ] final  110.03 input  -89.99 | X-H torsion

> <Gold.Protein.ActiveResidues>
 MET295  LEU298  THR299  LEU301  ALA302  GLU305  TRP335  MET336  LEU339  MET340 
 GLY342  LEU343  ARG346  PHE356  ILE373  ILE376  PHE377  LEU380  LYS471  GLY472 
 MET473  HIS475  LEU476  LEU477  ASN478  MET479  VAL484  VAL487 

> <Gold.Protein.RotatedAtoms>
   36.9996   32.9425   41.7612 H   0  0  0  0  0  0  0  0  0  0  0  0  # atno 496  bound_to 491 

> <Gold.Score>
     Score     S(PLP)   S(hbond)     S(cho)   S(metal)  DE(clash)   DE(tors)     intcor
     37.86     -39.05       0.00       0.00       0.00       0.00       0.68       0.17

> <Gold.PLP.Fitness>
37.8593

> <Gold.PLP.PLP>
-39.0465

> <Gold.PLP.part.hbond>
0.0000

> <Gold.PLP.part.metal>
0.0000

> <Gold.PLP.part.buried>
-2.4245

> <Gold.PLP.part.nonpolar>
-36.8580

> <Gold.PLP.part.repulsive>
0.0399

> <Gold.PLP.ligand.clash>
0.0000

> <Gold.PLP.ligand.torsion>
0.6791

> <Gold.PLP.Chemscore.Hbond>
0.0000

> <Gold.PLP.Chemscore.CHOScore>
0.0000

> <Gold.PLP.Chemscore.Metal>
0.0000

> <Gold.PLP.Chemscore.Internal.Correction>
0.1710

