#       Name:                EN300-1144246_i001
#       Creating user name   aseyller
#       Creation time:       Fri Apr 21 20:18:27 2023


#       File generated by GOLD software.
#

@<TRIPOS>MOLECULE
EN300-1144246_i001|Sulfonylchlorides|mol2|1052|dock7
    21    20     1
SMALL
USER_CHARGES


@<TRIPOS>ATOM
      1 F1          25.5017  37.0332  41.2377 F              1 <1>                0.0000
      2 C2          26.1499  36.5261  40.1065 C.3            1 <1>                0.0000
      3 F3          25.9095  37.3672  39.0148 F              1 <1>                0.0000
      4 C4          27.6550  36.4521  40.3715 C.3            1 <1>                0.0000
      5 O5          28.3075  35.8544  39.2494 O.3            1 <1>                0.0000
      6 C6          29.7022  35.6153  39.4475 C.3            1 <1>                0.0000
      7 C7          30.5124  36.5306  38.5273 C.3            1 <1>                0.0000
      8 C8          29.5588  37.3668  37.6714 C.3            1 <1>                0.0000
      9 S9          30.5079  38.2750  36.4205 S.o2           1 <1>                0.0000
     10 O10         30.2271  37.7741  35.1207 O.2            1 <1>                0.0000
     11 O11         30.4808  39.6700  36.6897 O.2            1 <1>                0.0000
     12 Cl12        32.4265  37.7399  36.7567 Cl             1 <1>                0.0000
     13 H13         25.7702  35.5283  39.8869 H              1 <1>                0.0000
     14 H14         28.0465  37.4575  40.5263 H              1 <1>                0.0000
     15 H15         27.8380  35.8498  41.2614 H              1 <1>                0.0000
     16 H16         29.9624  35.8214  40.4857 H              1 <1>                0.0000
     17 H17         29.9289  34.5745  39.2159 H              1 <1>                0.0000
     18 H18         31.1349  37.1922  39.1296 H              1 <1>                0.0000
     19 H19         31.1463  35.9254  37.8793 H              1 <1>                0.0000
     20 H20         28.8426  36.7097  37.1780 H              1 <1>                0.0000
     21 H21         29.0254  38.0737  38.3069 H              1 <1>                0.0000
@<TRIPOS>BOND
    1    1    2 1     
    2    2    3 1     
    3    2    4 1     
    4    2   13 1     
    5    4    5 1     
    6    4   14 1     
    7    4   15 1     
    8    5    6 1     
    9    6    7 1     
   10    6   16 1     
   11    6   17 1     
   12    7    8 1     
   13    7   18 1     
   14    7   19 1     
   15    8    9 1     
   16    8   20 1     
   17    8   21 1     
   18    9   10 2     
   19    9   11 2     
   20    9   12 1     
@<TRIPOS>SUBSTRUCTURE
      1 ****           1
@<TRIPOS>COMMENT
> <Gold.Version>
2022.2.0

> <Gold.Id.Protein>
1qkm|1qkm_protein|mol2

> <Gold.Protein.RotatedTorsions>
[  496  491  490  487 ] final   66.60 input  -89.99 | X-H torsion

> <Gold.Protein.ActiveResidues>
 MET295  LEU298  THR299  LEU301  ALA302  GLU305  TRP335  MET336  LEU339  MET340 
 GLY342  LEU343  ARG346  PHE356  ILE373  ILE376  PHE377  LEU380  LYS471  GLY472 
 MET473  HIS475  LEU476  LEU477  ASN478  MET479  VAL484  VAL487 

> <Gold.Protein.RotatedAtoms>
   36.6075   33.2384   42.2571 H   0  0  0  0  0  0  0  0  0  0  0  0  # atno 496  bound_to 491 

> <Gold.Score>
     Score     S(PLP)   S(hbond)     S(cho)   S(metal)  DE(clash)   DE(tors)     intcor
     36.95     -38.45       0.00       0.00       0.00       0.00       0.83       0.17

> <Gold.PLP.Fitness>
36.9508

> <Gold.PLP.PLP>
-38.4476

> <Gold.PLP.part.hbond>
0.0000

> <Gold.PLP.part.metal>
0.0000

> <Gold.PLP.part.buried>
-3.8838

> <Gold.PLP.part.nonpolar>
-35.6157

> <Gold.PLP.part.repulsive>
0.0497

> <Gold.PLP.ligand.clash>
0.0000

> <Gold.PLP.ligand.torsion>
0.8339

> <Gold.PLP.Chemscore.Hbond>
0.0000

> <Gold.PLP.Chemscore.CHOScore>
0.0000

> <Gold.PLP.Chemscore.Metal>
0.0000

> <Gold.PLP.Chemscore.Internal.Correction>
0.1710

