#       Name:                EN300-1144246_i001
#       Creating user name   aseyller
#       Creation time:       Fri Apr 21 20:18:26 2023


#       File generated by GOLD software.
#

@<TRIPOS>MOLECULE
EN300-1144246_i001|Sulfonylchlorides|mol2|1052|dock6
    21    20     1
SMALL
USER_CHARGES


@<TRIPOS>ATOM
      1 F1          25.4983  37.2974  41.2469 F              1 <1>                0.0000
      2 C2          25.7976  36.6413  40.0481 C.3            1 <1>                0.0000
      3 F3          25.9717  37.5854  39.0305 F              1 <1>                0.0000
      4 C4          27.0844  35.8312  40.2177 C.3            1 <1>                0.0000
      5 O5          28.1438  36.6994  40.6252 O.3            1 <1>                0.0000
      6 C6          29.4407  36.2707  40.2058 C.3            1 <1>                0.0000
      7 C7          29.5832  36.4780  38.6967 C.3            1 <1>                0.0000
      8 C8          30.2009  37.8515  38.4266 C.3            1 <1>                0.0000
      9 S9          29.5614  38.5046  36.8597 S.o2           1 <1>                0.0000
     10 O10         30.0205  37.7195  35.7678 O.2            1 <1>                0.0000
     11 O11         28.1892  38.8513  36.9870 O.2            1 <1>                0.0000
     12 Cl12        30.5037  40.2765  36.6301 Cl             1 <1>                0.0000
     13 H13         24.9786  35.9715  39.7861 H              1 <1>                0.0000
     14 H14         26.9327  35.0626  40.9756 H              1 <1>                0.0000
     15 H15         27.3449  35.3603  39.2697 H              1 <1>                0.0000
     16 H16         30.2016  36.8526  40.7259 H              1 <1>                0.0000
     17 H17         29.5677  35.2139  40.4410 H              1 <1>                0.0000
     18 H18         30.2272  35.7022  38.2826 H              1 <1>                0.0000
     19 H19         28.6006  36.4231  38.2280 H              1 <1>                0.0000
     20 H20         29.9410  38.5324  39.2371 H              1 <1>                0.0000
     21 H21         31.2850  37.7566  38.3653 H              1 <1>                0.0000
@<TRIPOS>BOND
    1    1    2 1     
    2    2    3 1     
    3    2    4 1     
    4    2   13 1     
    5    4    5 1     
    6    4   14 1     
    7    4   15 1     
    8    5    6 1     
    9    6    7 1     
   10    6   16 1     
   11    6   17 1     
   12    7    8 1     
   13    7   18 1     
   14    7   19 1     
   15    8    9 1     
   16    8   20 1     
   17    8   21 1     
   18    9   10 2     
   19    9   11 2     
   20    9   12 1     
@<TRIPOS>SUBSTRUCTURE
      1 ****           1
@<TRIPOS>COMMENT
> <Gold.Version>
2022.2.0

> <Gold.Id.Protein>
1qkm|1qkm_protein|mol2

> <Gold.Protein.RotatedTorsions>
[  496  491  490  487 ] final -165.56 input  -89.99 | X-H torsion

> <Gold.Protein.ActiveResidues>
 MET295  LEU298  THR299  LEU301  ALA302  GLU305  TRP335  MET336  LEU339  MET340 
 GLY342  LEU343  ARG346  PHE356  ILE373  ILE376  PHE377  LEU380  LYS471  GLY472 
 MET473  HIS475  LEU476  LEU477  ASN478  MET479  VAL484  VAL487 

> <Gold.Protein.RotatedAtoms>
   37.2933   33.6770   40.7712 H   0  0  0  0  0  0  0  0  0  0  0  0  # atno 496  bound_to 491 

> <Gold.Score>
     Score     S(PLP)   S(hbond)     S(cho)   S(metal)  DE(clash)   DE(tors)     intcor
     40.50     -41.73       0.00       0.00       0.00       0.00       0.70       0.17

> <Gold.PLP.Fitness>
40.5004

> <Gold.PLP.PLP>
-41.7332

> <Gold.PLP.part.hbond>
0.0000

> <Gold.PLP.part.metal>
0.0000

> <Gold.PLP.part.buried>
-2.8522

> <Gold.PLP.part.nonpolar>
-38.4310

> <Gold.PLP.part.repulsive>
0.0708

> <Gold.PLP.ligand.clash>
0.0000

> <Gold.PLP.ligand.torsion>
0.7019

> <Gold.PLP.Chemscore.Hbond>
0.0000

> <Gold.PLP.Chemscore.CHOScore>
0.0000

> <Gold.PLP.Chemscore.Metal>
0.0000

> <Gold.PLP.Chemscore.Internal.Correction>
0.1710

