#       Name:                EN300-1144246_i001
#       Creating user name   aseyller
#       Creation time:       Fri Apr 21 20:18:39 2023


#       File generated by GOLD software.
#

@<TRIPOS>MOLECULE
EN300-1144246_i001|Sulfonylchlorides|mol2|1052|dock17
    21    20     1
SMALL
USER_CHARGES


@<TRIPOS>ATOM
      1 F1          26.2493  36.7808  40.9078 F              1 <1>                0.0000
      2 C2          27.0017  35.8164  40.2288 C.3            1 <1>                0.0000
      3 F3          26.8930  36.0259  38.8499 F              1 <1>                0.0000
      4 C4          28.4691  35.9268  40.6473 C.3            1 <1>                0.0000
      5 O5          29.1006  36.9684  39.9000 O.3            1 <1>                0.0000
      6 C6          29.8927  36.5012  38.8064 C.3            1 <1>                0.0000
      7 C7          30.1414  37.6514  37.8287 C.3            1 <1>                0.0000
      8 C8          30.5928  37.0861  36.4804 C.3            1 <1>                0.0000
      9 S9          32.2229  36.3121  36.6645 S.o2           1 <1>                0.0000
     10 O10         32.9927  36.9974  37.6428 O.2            1 <1>                0.0000
     11 O11         32.1031  34.8963  36.6864 O.2            1 <1>                0.0000
     12 Cl12        33.1672  36.7051  34.9226 Cl             1 <1>                0.0000
     13 H13         26.6271  34.8231  40.4760 H              1 <1>                0.0000
     14 H14         28.5272  36.1565  41.7113 H              1 <1>                0.0000
     15 H15         28.9749  34.9813  40.4516 H              1 <1>                0.0000
     16 H16         30.8467  36.1301  39.1811 H              1 <1>                0.0000
     17 H17         29.3658  35.6962  38.2940 H              1 <1>                0.0000
     18 H18         29.2210  38.2196  37.6946 H              1 <1>                0.0000
     19 H19         30.9174  38.3052  38.2266 H              1 <1>                0.0000
     20 H20         29.8734  36.3416  36.1394 H              1 <1>                0.0000
     21 H21         30.6541  37.8932  35.7503 H              1 <1>                0.0000
@<TRIPOS>BOND
    1    1    2 1     
    2    2    3 1     
    3    2    4 1     
    4    2   13 1     
    5    4    5 1     
    6    4   14 1     
    7    4   15 1     
    8    5    6 1     
    9    6    7 1     
   10    6   16 1     
   11    6   17 1     
   12    7    8 1     
   13    7   18 1     
   14    7   19 1     
   15    8    9 1     
   16    8   20 1     
   17    8   21 1     
   18    9   10 2     
   19    9   11 2     
   20    9   12 1     
@<TRIPOS>SUBSTRUCTURE
      1 ****           1
@<TRIPOS>COMMENT
> <Gold.Version>
2022.2.0

> <Gold.Id.Protein>
1qkm|1qkm_protein|mol2

> <Gold.Protein.RotatedTorsions>
[  496  491  490  487 ] final  119.10 input  -89.99 | X-H torsion

> <Gold.Protein.ActiveResidues>
 MET295  LEU298  THR299  LEU301  ALA302  GLU305  TRP335  MET336  LEU339  MET340 
 GLY342  LEU343  ARG346  PHE356  ILE373  ILE376  PHE377  LEU380  LYS471  GLY472 
 MET473  HIS475  LEU476  LEU477  ASN478  MET479  VAL484  VAL487 

> <Gold.Protein.RotatedAtoms>
   37.0736   32.9421   41.6318 H   0  0  0  0  0  0  0  0  0  0  0  0  # atno 496  bound_to 491 

> <Gold.Score>
     Score     S(PLP)   S(hbond)     S(cho)   S(metal)  DE(clash)   DE(tors)     intcor
     36.26     -38.37       0.00       0.00       0.00       0.00       1.14       0.17

> <Gold.PLP.Fitness>
36.2608

> <Gold.PLP.PLP>
-38.3675

> <Gold.PLP.part.hbond>
0.0000

> <Gold.PLP.part.metal>
0.0000

> <Gold.PLP.part.buried>
-3.3734

> <Gold.PLP.part.nonpolar>
-35.7064

> <Gold.PLP.part.repulsive>
0.0687

> <Gold.PLP.ligand.clash>
0.0000

> <Gold.PLP.ligand.torsion>
1.1367

> <Gold.PLP.Chemscore.Hbond>
0.0000

> <Gold.PLP.Chemscore.CHOScore>
0.0000

> <Gold.PLP.Chemscore.Metal>
0.0000

> <Gold.PLP.Chemscore.Internal.Correction>
0.1666

