#       Name:                EN300-1144246_i001
#       Creating user name   aseyller
#       Creation time:       Fri Apr 21 20:18:33 2023


#       File generated by GOLD software.
#

@<TRIPOS>MOLECULE
EN300-1144246_i001|Sulfonylchlorides|mol2|1052|dock12
    21    20     1
SMALL
USER_CHARGES


@<TRIPOS>ATOM
      1 F1          25.7213  36.9856  41.1739 F              1 <1>                0.0000
      2 C2          26.5157  36.2831  40.2614 C.3            1 <1>                0.0000
      3 F3          26.5920  36.9987  39.0618 F              1 <1>                0.0000
      4 C4          27.9210  36.1057  40.8397 C.3            1 <1>                0.0000
      5 O5          28.7935  35.6033  39.8256 O.3            1 <1>                0.0000
      6 C6          29.9295  36.4325  39.5730 C.3            1 <1>                0.0000
      7 C7          30.7563  35.8318  38.4344 C.3            1 <1>                0.0000
      8 C8          31.4832  36.9512  37.6863 C.3            1 <1>                0.0000
      9 S9          31.6987  36.4766  35.9488 S.o2           1 <1>                0.0000
     10 O10         32.3940  35.2412  35.8519 O.2            1 <1>                0.0000
     11 O11         30.5012  36.7027  35.2180 O.2            1 <1>                0.0000
     12 Cl12        32.9966  37.8378  35.2117 Cl             1 <1>                0.0000
     13 H13         26.0741  35.3045  40.0733 H              1 <1>                0.0000
     14 H14         28.2920  37.0673  41.1944 H              1 <1>                0.0000
     15 H15         27.8858  35.4010  41.6705 H              1 <1>                0.0000
     16 H16         29.5951  37.4311  39.2915 H              1 <1>                0.0000
     17 H17         30.5414  36.4945  40.4729 H              1 <1>                0.0000
     18 H18         31.4871  35.1349  38.8447 H              1 <1>                0.0000
     19 H19         30.0968  35.3035  37.7460 H              1 <1>                0.0000
     20 H20         30.8951  37.8673  37.7426 H              1 <1>                0.0000
     21 H21         32.4596  37.1178  38.1413 H              1 <1>                0.0000
@<TRIPOS>BOND
    1    1    2 1     
    2    2    3 1     
    3    2    4 1     
    4    2   13 1     
    5    4    5 1     
    6    4   14 1     
    7    4   15 1     
    8    5    6 1     
    9    6    7 1     
   10    6   16 1     
   11    6   17 1     
   12    7    8 1     
   13    7   18 1     
   14    7   19 1     
   15    8    9 1     
   16    8   20 1     
   17    8   21 1     
   18    9   10 2     
   19    9   11 2     
   20    9   12 1     
@<TRIPOS>SUBSTRUCTURE
      1 ****           1
@<TRIPOS>COMMENT
> <Gold.Version>
2022.2.0

> <Gold.Id.Protein>
1qkm|1qkm_protein|mol2

> <Gold.Protein.RotatedTorsions>
[  496  491  490  487 ] final  -20.74 input  -89.99 | X-H torsion

> <Gold.Protein.ActiveResidues>
 MET295  LEU298  THR299  LEU301  ALA302  GLU305  TRP335  MET336  LEU339  MET340 
 GLY342  LEU343  ARG346  PHE356  ILE373  ILE376  PHE377  LEU380  LYS471  GLY472 
 MET473  HIS475  LEU476  LEU477  ASN478  MET479  VAL484  VAL487 

> <Gold.Protein.RotatedAtoms>
   36.2828   34.4781   42.0244 H   0  0  0  0  0  0  0  0  0  0  0  0  # atno 496  bound_to 491 

> <Gold.Score>
     Score     S(PLP)   S(hbond)     S(cho)   S(metal)  DE(clash)   DE(tors)     intcor
     37.94     -39.78       0.00       0.00       0.00       0.00       1.00       0.17

> <Gold.PLP.Fitness>
37.9400

> <Gold.PLP.PLP>
-39.7780

> <Gold.PLP.part.hbond>
0.0000

> <Gold.PLP.part.metal>
0.0000

> <Gold.PLP.part.buried>
-4.5613

> <Gold.PLP.part.nonpolar>
-36.0632

> <Gold.PLP.part.repulsive>
0.1829

> <Gold.PLP.ligand.clash>
0.0000

> <Gold.PLP.ligand.torsion>
1.0045

> <Gold.PLP.Chemscore.Hbond>
0.0000

> <Gold.PLP.Chemscore.CHOScore>
0.0000

> <Gold.PLP.Chemscore.Metal>
0.0000

> <Gold.PLP.Chemscore.Internal.Correction>
0.1710

