#       Name:                EN300-1144246_i001
#       Creating user name   aseyller
#       Creation time:       Fri Apr 21 20:18:20 2023


#       File generated by GOLD software.
#

@<TRIPOS>MOLECULE
EN300-1144246_i001|Sulfonylchlorides|mol2|1052|dock2
    21    20     1
SMALL
USER_CHARGES


@<TRIPOS>ATOM
      1 F1          25.6703  36.9728  41.1660 F              1 <1>                0.0000
      2 C2          26.7031  36.3961  40.4190 C.3            1 <1>                0.0000
      3 F3          26.6939  36.9252  39.1240 F              1 <1>                0.0000
      4 C4          28.0462  36.7017  41.0851 C.3            1 <1>                0.0000
      5 O5          28.9483  35.6168  40.8582 O.3            1 <1>                0.0000
      6 C6          29.3404  35.4628  39.4928 C.3            1 <1>                0.0000
      7 C7          30.0479  36.7339  39.0189 C.3            1 <1>                0.0000
      8 C8          30.3540  36.6201  37.5240 C.3            1 <1>                0.0000
      9 S9          31.9645  35.8171  37.2960 S.o2           1 <1>                0.0000
     10 O10         32.1750  35.5017  35.9265 O.2            1 <1>                0.0000
     11 O11         32.9645  36.4802  38.0573 O.2            1 <1>                0.0000
     12 Cl12        31.7635  34.0198  38.1959 Cl             1 <1>                0.0000
     13 H13         26.5584  35.3168  40.3716 H              1 <1>                0.0000
     14 H14         28.4627  37.6153  40.6609 H              1 <1>                0.0000
     15 H15         27.8986  36.8333  42.1571 H              1 <1>                0.0000
     16 H16         30.0189  34.6144  39.4031 H              1 <1>                0.0000
     17 H17         28.4571  35.2881  38.8785 H              1 <1>                0.0000
     18 H18         29.4030  37.5951  39.1931 H              1 <1>                0.0000
     19 H19         30.9789  36.8592  39.5717 H              1 <1>                0.0000
     20 H20         29.5796  36.0258  37.0389 H              1 <1>                0.0000
     21 H21         30.3785  37.6159  37.0814 H              1 <1>                0.0000
@<TRIPOS>BOND
    1    1    2 1     
    2    2    3 1     
    3    2    4 1     
    4    2   13 1     
    5    4    5 1     
    6    4   14 1     
    7    4   15 1     
    8    5    6 1     
    9    6    7 1     
   10    6   16 1     
   11    6   17 1     
   12    7    8 1     
   13    7   18 1     
   14    7   19 1     
   15    8    9 1     
   16    8   20 1     
   17    8   21 1     
   18    9   10 2     
   19    9   11 2     
   20    9   12 1     
@<TRIPOS>SUBSTRUCTURE
      1 ****           1
@<TRIPOS>COMMENT
> <Gold.Version>
2022.2.0

> <Gold.Id.Protein>
1qkm|1qkm_protein|mol2

> <Gold.Protein.RotatedTorsions>
[  496  491  490  487 ] final  -48.32 input  -89.99 | X-H torsion

> <Gold.Protein.ActiveResidues>
 MET295  LEU298  THR299  LEU301  ALA302  GLU305  TRP335  MET336  LEU339  MET340 
 GLY342  LEU343  ARG346  PHE356  ILE373  ILE376  PHE377  LEU380  LYS471  GLY472 
 MET473  HIS475  LEU476  LEU477  ASN478  MET479  VAL484  VAL487 

> <Gold.Protein.RotatedAtoms>
   36.4135   34.6969   41.6538 H   0  0  0  0  0  0  0  0  0  0  0  0  # atno 496  bound_to 491 

> <Gold.Score>
     Score     S(PLP)   S(hbond)     S(cho)   S(metal)  DE(clash)   DE(tors)     intcor
     38.97     -40.15       0.00       0.00       0.00       0.00       0.68       0.17

> <Gold.PLP.Fitness>
38.9676

> <Gold.PLP.PLP>
-40.1485

> <Gold.PLP.part.hbond>
0.0000

> <Gold.PLP.part.metal>
0.0000

> <Gold.PLP.part.buried>
-3.6341

> <Gold.PLP.part.nonpolar>
-36.9059

> <Gold.PLP.part.repulsive>
0.2354

> <Gold.PLP.ligand.clash>
0.0000

> <Gold.PLP.ligand.torsion>
0.6759

> <Gold.PLP.Chemscore.Hbond>
0.0000

> <Gold.PLP.Chemscore.CHOScore>
0.0000

> <Gold.PLP.Chemscore.Metal>
0.0000

> <Gold.PLP.Chemscore.Internal.Correction>
0.1710

