#       Name:                EN300-1144246_i001
#       Creating user name   aseyller
#       Creation time:       Fri Apr 21 20:18:21 2023


#       File generated by GOLD software.
#

@<TRIPOS>MOLECULE
EN300-1144246_i001|Sulfonylchlorides|mol2|1052|dock3
    21    20     1
SMALL
USER_CHARGES


@<TRIPOS>ATOM
      1 F1          25.8039  37.0034  41.4933 F              1 <1>                0.0000
      2 C2          26.5300  36.1513  40.6543 C.3            1 <1>                0.0000
      3 F3          26.3945  36.5757  39.3282 F              1 <1>                0.0000
      4 C4          28.0073  36.1822  41.0512 C.3            1 <1>                0.0000
      5 O5          28.8038  35.7187  39.9590 O.3            1 <1>                0.0000
      6 C6          29.4396  36.7628  39.2191 C.3            1 <1>                0.0000
      7 C7          30.0400  36.1857  37.9356 C.3            1 <1>                0.0000
      8 C8          31.4159  36.8087  37.6910 C.3            1 <1>                0.0000
      9 S9          31.5087  37.4191  35.9854 S.o2           1 <1>                0.0000
     10 O10         30.4458  36.8869  35.2068 O.2            1 <1>                0.0000
     11 O11         31.8048  38.8088  35.9685 O.2            1 <1>                0.0000
     12 Cl12        33.1660  36.5475  35.2276 Cl             1 <1>                0.0000
     13 H13         26.1490  35.1347  40.7513 H              1 <1>                0.0000
     14 H14         28.2946  37.2031  41.3029 H              1 <1>                0.0000
     15 H15         28.1649  35.5368  41.9154 H              1 <1>                0.0000
     16 H16         28.7053  37.5272  38.9650 H              1 <1>                0.0000
     17 H17         30.2313  37.2061  39.8232 H              1 <1>                0.0000
     18 H18         30.1431  35.1053  38.0366 H              1 <1>                0.0000
     19 H19         29.3845  36.4111  37.0945 H              1 <1>                0.0000
     20 H20         31.5674  37.6376  38.3825 H              1 <1>                0.0000
     21 H21         32.1887  36.0567  37.8505 H              1 <1>                0.0000
@<TRIPOS>BOND
    1    1    2 1     
    2    2    3 1     
    3    2    4 1     
    4    2   13 1     
    5    4    5 1     
    6    4   14 1     
    7    4   15 1     
    8    5    6 1     
    9    6    7 1     
   10    6   16 1     
   11    6   17 1     
   12    7    8 1     
   13    7   18 1     
   14    7   19 1     
   15    8    9 1     
   16    8   20 1     
   17    8   21 1     
   18    9   10 2     
   19    9   11 2     
   20    9   12 1     
@<TRIPOS>SUBSTRUCTURE
      1 ****           1
@<TRIPOS>COMMENT
> <Gold.Version>
2022.2.0

> <Gold.Id.Protein>
1qkm|1qkm_protein|mol2

> <Gold.Protein.RotatedTorsions>
[  496  491  490  487 ] final  -74.29 input  -89.99 | X-H torsion

> <Gold.Protein.ActiveResidues>
 MET295  LEU298  THR299  LEU301  ALA302  GLU305  TRP335  MET336  LEU339  MET340 
 GLY342  LEU343  ARG346  PHE356  ILE373  ILE376  PHE377  LEU380  LYS471  GLY472 
 MET473  HIS475  LEU476  LEU477  ASN478  MET479  VAL484  VAL487 

> <Gold.Protein.RotatedAtoms>
   36.6152   34.7247   41.2822 H   0  0  0  0  0  0  0  0  0  0  0  0  # atno 496  bound_to 491 

> <Gold.Score>
     Score     S(PLP)   S(hbond)     S(cho)   S(metal)  DE(clash)   DE(tors)     intcor
     37.59     -39.96       0.00       0.00       0.00       0.00       1.27       0.17

> <Gold.PLP.Fitness>
37.5926

> <Gold.PLP.PLP>
-39.9566

> <Gold.PLP.part.hbond>
0.0000

> <Gold.PLP.part.metal>
0.0000

> <Gold.PLP.part.buried>
-3.4915

> <Gold.PLP.part.nonpolar>
-36.7840

> <Gold.PLP.part.repulsive>
0.1329

> <Gold.PLP.ligand.clash>
0.0000

> <Gold.PLP.ligand.torsion>
1.2675

> <Gold.PLP.Chemscore.Hbond>
0.0000

> <Gold.PLP.Chemscore.CHOScore>
0.0000

> <Gold.PLP.Chemscore.Metal>
0.0000

> <Gold.PLP.Chemscore.Internal.Correction>
0.1710

