#       Name:                EN300-1144246_i001
#       Creating user name   aseyller
#       Creation time:       Fri Apr 21 20:18:19 2023


#       File generated by GOLD software.
#

@<TRIPOS>MOLECULE
EN300-1144246_i001|Sulfonylchlorides|mol2|1052|dock1
    21    20     1
SMALL
USER_CHARGES


@<TRIPOS>ATOM
      1 F1          25.5004  37.2998  40.4812 F              1 <1>                0.0000
      2 C2          26.8104  36.9479  40.1390 C.3            1 <1>                0.0000
      3 F3          27.1801  35.7923  40.8355 F              1 <1>                0.0000
      4 C4          26.8909  36.6839  38.6341 C.3            1 <1>                0.0000
      5 O5          28.2516  36.4544  38.2628 O.3            1 <1>                0.0000
      6 C6          29.1003  37.5914  38.4330 C.3            1 <1>                0.0000
      7 C7          30.5182  37.2424  37.9764 C.3            1 <1>                0.0000
      8 C8          30.6236  37.4180  36.4601 C.3            1 <1>                0.0000
      9 S9          32.2456  36.8346  35.8951 S.o2           1 <1>                0.0000
     10 O10         32.1177  35.6021  35.1997 O.2            1 <1>                0.0000
     11 O11         32.9996  37.9086  35.3500 O.2            1 <1>                0.0000
     12 Cl12        33.2262  36.3491  37.5931 Cl             1 <1>                0.0000
     13 H13         27.4857  37.7621  40.4016 H              1 <1>                0.0000
     14 H14         26.2939  35.8061  38.3867 H              1 <1>                0.0000
     15 H15         26.5074  37.5486  38.0925 H              1 <1>                0.0000
     16 H16         28.7204  38.4209  37.8365 H              1 <1>                0.0000
     17 H17         29.1173  37.8779  39.4845 H              1 <1>                0.0000
     18 H18         31.2315  37.9031  38.4691 H              1 <1>                0.0000
     19 H19         30.7400  36.2079  38.2385 H              1 <1>                0.0000
     20 H20         29.8391  36.8396  35.9720 H              1 <1>                0.0000
     21 H21         30.5083  38.4721  36.2076 H              1 <1>                0.0000
@<TRIPOS>BOND
    1    1    2 1     
    2    2    3 1     
    3    2    4 1     
    4    2   13 1     
    5    4    5 1     
    6    4   14 1     
    7    4   15 1     
    8    5    6 1     
    9    6    7 1     
   10    6   16 1     
   11    6   17 1     
   12    7    8 1     
   13    7   18 1     
   14    7   19 1     
   15    8    9 1     
   16    8   20 1     
   17    8   21 1     
   18    9   10 2     
   19    9   11 2     
   20    9   12 1     
@<TRIPOS>SUBSTRUCTURE
      1 ****           1
@<TRIPOS>COMMENT
> <Gold.Version>
2022.2.0

> <Gold.Id.Protein>
1qkm|1qkm_protein|mol2

> <Gold.Protein.RotatedTorsions>
[  496  491  490  487 ] final   14.15 input  -89.99 | X-H torsion

> <Gold.Protein.ActiveResidues>
 MET295  LEU298  THR299  LEU301  ALA302  GLU305  TRP335  MET336  LEU339  MET340 
 GLY342  LEU343  ARG346  PHE356  ILE373  ILE376  PHE377  LEU380  LYS471  GLY472 
 MET473  HIS475  LEU476  LEU477  ASN478  MET479  VAL484  VAL487 

> <Gold.Protein.RotatedAtoms>
   36.2835   34.0028   42.3308 H   0  0  0  0  0  0  0  0  0  0  0  0  # atno 496  bound_to 491 

> <Gold.Score>
     Score     S(PLP)   S(hbond)     S(cho)   S(metal)  DE(clash)   DE(tors)     intcor
     36.72     -37.04       0.00       0.00       0.00       0.00       0.25       0.17

> <Gold.PLP.Fitness>
36.7166

> <Gold.PLP.PLP>
-37.0446

> <Gold.PLP.part.hbond>
0.0000

> <Gold.PLP.part.metal>
0.0000

> <Gold.PLP.part.buried>
-4.0958

> <Gold.PLP.part.nonpolar>
-33.1749

> <Gold.PLP.part.repulsive>
0.1928

> <Gold.PLP.ligand.clash>
0.0000

> <Gold.PLP.ligand.torsion>
0.2495

> <Gold.PLP.Chemscore.Hbond>
0.0000

> <Gold.PLP.Chemscore.CHOScore>
0.0000

> <Gold.PLP.Chemscore.Metal>
0.0000

> <Gold.PLP.Chemscore.Internal.Correction>
0.1710

