#       Name:                EN300-1144246_i001
#       Creating user name   aseyller
#       Creation time:       Fri Apr 21 20:18:31 2023


#       File generated by GOLD software.
#

@<TRIPOS>MOLECULE
EN300-1144246_i001|Sulfonylchlorides|mol2|1052|dock10
    21    20     1
SMALL
USER_CHARGES


@<TRIPOS>ATOM
      1 F1          25.7205  36.9991  41.1956 F              1 <1>                0.0000
      2 C2          26.4822  36.5152  40.1265 C.3            1 <1>                0.0000
      3 F3          26.2609  37.3118  38.9979 F              1 <1>                0.0000
      4 C4          27.9659  36.5573  40.4974 C.3            1 <1>                0.0000
      5 O5          28.7563  36.4866  39.3089 O.3            1 <1>                0.0000
      6 C6          29.8571  35.5798  39.3959 C.3            1 <1>                0.0000
      7 C7          30.9482  36.0061  38.4118 C.3            1 <1>                0.0000
      8 C8          30.3018  36.6183  37.1674 C.3            1 <1>                0.0000
      9 S9          31.5963  37.2034  36.0394 S.o2           1 <1>                0.0000
     10 O10         32.3965  38.1942  36.6697 O.2            1 <1>                0.0000
     11 O11         32.1898  36.1106  35.3518 O.2            1 <1>                0.0000
     12 Cl12        30.5954  38.2112  34.6030 Cl             1 <1>                0.0000
     13 H13         26.1912  35.4877  39.9088 H              1 <1>                0.0000
     14 H14         28.1828  37.4873  41.0231 H              1 <1>                0.0000
     15 H15         28.2034  35.7114  41.1425 H              1 <1>                0.0000
     16 H16         30.2577  35.5908  40.4097 H              1 <1>                0.0000
     17 H17         29.5190  34.5731  39.1498 H              1 <1>                0.0000
     18 H18         31.5961  36.7440  38.8850 H              1 <1>                0.0000
     19 H19         31.5380  35.1359  38.1239 H              1 <1>                0.0000
     20 H20         29.6953  35.8647  36.6650 H              1 <1>                0.0000
     21 H21         29.6699  37.4564  37.4614 H              1 <1>                0.0000
@<TRIPOS>BOND
    1    1    2 1     
    2    2    3 1     
    3    2    4 1     
    4    2   13 1     
    5    4    5 1     
    6    4   14 1     
    7    4   15 1     
    8    5    6 1     
    9    6    7 1     
   10    6   16 1     
   11    6   17 1     
   12    7    8 1     
   13    7   18 1     
   14    7   19 1     
   15    8    9 1     
   16    8   20 1     
   17    8   21 1     
   18    9   10 2     
   19    9   11 2     
   20    9   12 1     
@<TRIPOS>SUBSTRUCTURE
      1 ****           1
@<TRIPOS>COMMENT
> <Gold.Version>
2022.2.0

> <Gold.Id.Protein>
1qkm|1qkm_protein|mol2

> <Gold.Protein.RotatedTorsions>
[  496  491  490  487 ] final  -77.62 input  -89.99 | X-H torsion

> <Gold.Protein.ActiveResidues>
 MET295  LEU298  THR299  LEU301  ALA302  GLU305  TRP335  MET336  LEU339  MET340 
 GLY342  LEU343  ARG346  PHE356  ILE373  ILE376  PHE377  LEU380  LYS471  GLY472 
 MET473  HIS475  LEU476  LEU477  ASN478  MET479  VAL484  VAL487 

> <Gold.Protein.RotatedAtoms>
   36.6447   34.7149   41.2369 H   0  0  0  0  0  0  0  0  0  0  0  0  # atno 496  bound_to 491 

> <Gold.Score>
     Score     S(PLP)   S(hbond)     S(cho)   S(metal)  DE(clash)   DE(tors)     intcor
     36.21     -37.87       0.00       0.00       0.00       0.00       0.92       0.17

> <Gold.PLP.Fitness>
36.2115

> <Gold.PLP.PLP>
-37.8744

> <Gold.PLP.part.hbond>
0.0000

> <Gold.PLP.part.metal>
0.0000

> <Gold.PLP.part.buried>
-3.4188

> <Gold.PLP.part.nonpolar>
-34.7421

> <Gold.PLP.part.repulsive>
0.1200

> <Gold.PLP.ligand.clash>
0.0000

> <Gold.PLP.ligand.torsion>
0.9169

> <Gold.PLP.Chemscore.Hbond>
0.0000

> <Gold.PLP.Chemscore.CHOScore>
0.0000

> <Gold.PLP.Chemscore.Metal>
0.0000

> <Gold.PLP.Chemscore.Internal.Correction>
0.1710

