#       Name:                EN300-1144246_i001
#       Creating user name   aseyller
#       Creation time:       Fri Apr 21 20:18:37 2023


#       File generated by GOLD software.
#

@<TRIPOS>MOLECULE
EN300-1144246_i001|Sulfonylchlorides|mol2|1052|dock15
    21    20     1
SMALL
USER_CHARGES


@<TRIPOS>ATOM
      1 F1          25.8592  37.0338  41.0002 F              1 <1>                0.0000
      2 C2          25.9976  36.5388  39.6991 C.3            1 <1>                0.0000
      3 F3          26.0978  37.6074  38.8017 F              1 <1>                0.0000
      4 C4          27.2606  35.6797  39.6121 C.3            1 <1>                0.0000
      5 O5          28.4121  36.5051  39.7993 O.3            1 <1>                0.0000
      6 C6          29.6530  35.8046  39.6927 C.3            1 <1>                0.0000
      7 C7          30.2985  36.1134  38.3403 C.3            1 <1>                0.0000
      8 C8          30.0337  37.5743  37.9705 C.3            1 <1>                0.0000
      9 S9          31.1648  38.0769  36.6444 S.o2           1 <1>                0.0000
     10 O10         30.9282  39.4278  36.2725 O.2            1 <1>                0.0000
     11 O11         32.4806  37.6091  36.9073 O.2            1 <1>                0.0000
     12 Cl12        30.5669  37.0063  35.0392 Cl             1 <1>                0.0000
     13 H13         25.1278  35.9326  39.4465 H              1 <1>                0.0000
     14 H14         27.2330  34.9135  40.3869 H              1 <1>                0.0000
     15 H15         27.3098  35.2042  38.6325 H              1 <1>                0.0000
     16 H16         30.3196  36.1223  40.4944 H              1 <1>                0.0000
     17 H17         29.4731  34.7325  39.7730 H              1 <1>                0.0000
     18 H18         31.3733  35.9437  38.4036 H              1 <1>                0.0000
     19 H19         29.8721  35.4625  37.5771 H              1 <1>                0.0000
     20 H20         29.0038  37.6819  37.6300 H              1 <1>                0.0000
     21 H21         30.1952  38.2053  38.8445 H              1 <1>                0.0000
@<TRIPOS>BOND
    1    1    2 1     
    2    2    3 1     
    3    2    4 1     
    4    2   13 1     
    5    4    5 1     
    6    4   14 1     
    7    4   15 1     
    8    5    6 1     
    9    6    7 1     
   10    6   16 1     
   11    6   17 1     
   12    7    8 1     
   13    7   18 1     
   14    7   19 1     
   15    8    9 1     
   16    8   20 1     
   17    8   21 1     
   18    9   10 2     
   19    9   11 2     
   20    9   12 1     
@<TRIPOS>SUBSTRUCTURE
      1 ****           1
@<TRIPOS>COMMENT
> <Gold.Version>
2022.2.0

> <Gold.Id.Protein>
1qkm|1qkm_protein|mol2

> <Gold.Protein.RotatedTorsions>
[  496  491  490  487 ] final   83.18 input  -89.99 | X-H torsion

> <Gold.Protein.ActiveResidues>
 MET295  LEU298  THR299  LEU301  ALA302  GLU305  TRP335  MET336  LEU339  MET340 
 GLY342  LEU343  ARG346  PHE356  ILE373  ILE376  PHE377  LEU380  LYS471  GLY472 
 MET473  HIS475  LEU476  LEU477  ASN478  MET479  VAL484  VAL487 

> <Gold.Protein.RotatedAtoms>
   36.7572   33.0724   42.1021 H   0  0  0  0  0  0  0  0  0  0  0  0  # atno 496  bound_to 491 

> <Gold.Score>
     Score     S(PLP)   S(hbond)     S(cho)   S(metal)  DE(clash)   DE(tors)     intcor
     37.46     -38.59       0.00       0.00       0.00       0.00       0.65       0.17

> <Gold.PLP.Fitness>
37.4564

> <Gold.PLP.PLP>
-38.5863

> <Gold.PLP.part.hbond>
0.0000

> <Gold.PLP.part.metal>
0.0000

> <Gold.PLP.part.buried>
-3.9833

> <Gold.PLP.part.nonpolar>
-35.6508

> <Gold.PLP.part.repulsive>
0.0335

> <Gold.PLP.ligand.clash>
0.0000

> <Gold.PLP.ligand.torsion>
0.6504

> <Gold.PLP.Chemscore.Hbond>
0.0000

> <Gold.PLP.Chemscore.CHOScore>
0.0000

> <Gold.PLP.Chemscore.Metal>
0.0000

> <Gold.PLP.Chemscore.Internal.Correction>
0.1710

