#       Name:                EN300-1144246_i001
#       Creating user name   aseyller
#       Creation time:       Fri Apr 21 20:18:29 2023


#       File generated by GOLD software.
#

@<TRIPOS>MOLECULE
EN300-1144246_i001|Sulfonylchlorides|mol2|1052|dock9
    21    20     1
SMALL
USER_CHARGES


@<TRIPOS>ATOM
      1 F1          25.6910  37.2855  39.1057 F              1 <1>                0.0000
      2 C2          26.4983  37.0381  40.2211 C.3            1 <1>                0.0000
      3 F3          25.7045  37.0010  41.3725 F              1 <1>                0.0000
      4 C4          27.2090  35.6943  40.0482 C.3            1 <1>                0.0000
      5 O5          28.4629  35.7269  40.7328 O.3            1 <1>                0.0000
      6 C6          29.3025  36.8201  40.3562 C.3            1 <1>                0.0000
      7 C7          29.7728  36.6284  38.9130 C.3            1 <1>                0.0000
      8 C8          29.7813  37.9798  38.1955 C.3            1 <1>                0.0000
      9 S9          30.7006  37.8322  36.6388 S.o2           1 <1>                0.0000
     10 O10         32.0848  37.6366  36.8937 O.2            1 <1>                0.0000
     11 O11         29.9999  37.0021  35.7227 O.2            1 <1>                0.0000
     12 Cl12        30.6008  39.6751  35.8177 Cl             1 <1>                0.0000
     13 H13         27.2396  37.8315  40.3163 H              1 <1>                0.0000
     14 H14         26.5892  34.8994  40.4631 H              1 <1>                0.0000
     15 H15         27.3787  35.5068  38.9880 H              1 <1>                0.0000
     16 H16         28.7428  37.7522  40.4352 H              1 <1>                0.0000
     17 H17         30.1677  36.8587  41.0182 H              1 <1>                0.0000
     18 H18         30.7793  36.2100  38.9114 H              1 <1>                0.0000
     19 H19         29.0954  35.9477  38.3975 H              1 <1>                0.0000
     20 H20         28.7564  38.2857  37.9848 H              1 <1>                0.0000
     21 H21         30.2596  38.7254  38.8308 H              1 <1>                0.0000
@<TRIPOS>BOND
    1    1    2 1     
    2    2    3 1     
    3    2    4 1     
    4    2   13 1     
    5    4    5 1     
    6    4   14 1     
    7    4   15 1     
    8    5    6 1     
    9    6    7 1     
   10    6   16 1     
   11    6   17 1     
   12    7    8 1     
   13    7   18 1     
   14    7   19 1     
   15    8    9 1     
   16    8   20 1     
   17    8   21 1     
   18    9   10 2     
   19    9   11 2     
   20    9   12 1     
@<TRIPOS>SUBSTRUCTURE
      1 ****           1
@<TRIPOS>COMMENT
> <Gold.Version>
2022.2.0

> <Gold.Id.Protein>
1qkm|1qkm_protein|mol2

> <Gold.Protein.RotatedTorsions>
[  496  491  490  487 ] final   71.78 input  -89.99 | X-H torsion

> <Gold.Protein.ActiveResidues>
 MET295  LEU298  THR299  LEU301  ALA302  GLU305  TRP335  MET336  LEU339  MET340 
 GLY342  LEU343  ARG346  PHE356  ILE373  ILE376  PHE377  LEU380  LYS471  GLY472 
 MET473  HIS475  LEU476  LEU477  ASN478  MET479  VAL484  VAL487 

> <Gold.Protein.RotatedAtoms>
   36.6532   33.1804   42.2145 H   0  0  0  0  0  0  0  0  0  0  0  0  # atno 496  bound_to 491 

> <Gold.Score>
     Score     S(PLP)   S(hbond)     S(cho)   S(metal)  DE(clash)   DE(tors)     intcor
     39.58     -40.96       0.00       0.00       0.00       0.00       0.78       0.17

> <Gold.PLP.Fitness>
39.5751

> <Gold.PLP.PLP>
-40.9566

> <Gold.PLP.part.hbond>
0.0000

> <Gold.PLP.part.metal>
0.0000

> <Gold.PLP.part.buried>
-3.9025

> <Gold.PLP.part.nonpolar>
-38.1323

> <Gold.PLP.part.repulsive>
0.1402

> <Gold.PLP.ligand.clash>
0.0000

> <Gold.PLP.ligand.torsion>
0.7763

> <Gold.PLP.Chemscore.Hbond>
0.0000

> <Gold.PLP.Chemscore.CHOScore>
0.0000

> <Gold.PLP.Chemscore.Metal>
0.0000

> <Gold.PLP.Chemscore.Internal.Correction>
0.1710

