#       Name:                EN300-1144246_i001
#       Creating user name   aseyller
#       Creation time:       Fri Apr 21 20:18:24 2023


#       File generated by GOLD software.
#

@<TRIPOS>MOLECULE
EN300-1144246_i001|Sulfonylchlorides|mol2|1052|dock5
    21    20     1
SMALL
USER_CHARGES


@<TRIPOS>ATOM
      1 F1          25.8030  37.0908  41.3847 F              1 <1>                0.0000
      2 C2          25.8886  36.4916  40.1235 C.3            1 <1>                0.0000
      3 F3          25.7515  37.4693  39.1323 F              1 <1>                0.0000
      4 C4          27.2473  35.8038  39.9768 C.3            1 <1>                0.0000
      5 O5          28.2249  36.7625  39.5679 O.3            1 <1>                0.0000
      6 C6          29.5336  36.2178  39.3879 C.3            1 <1>                0.0000
      7 C7          30.3608  37.1576  38.5085 C.3            1 <1>                0.0000
      8 C8          29.8837  37.0511  37.0586 C.3            1 <1>                0.0000
      9 S9          30.7850  38.2479  36.0360 S.o2           1 <1>                0.0000
     10 O10         32.1755  38.2039  36.3255 O.2            1 <1>                0.0000
     11 O11         30.3142  38.2131  34.6957 O.2            1 <1>                0.0000
     12 Cl12        30.1893  40.0504  36.7265 Cl             1 <1>                0.0000
     13 H13         25.0941  35.7529  40.0175 H              1 <1>                0.0000
     14 H14         27.5407  35.3711  40.9333 H              1 <1>                0.0000
     15 H15         27.1764  35.0151  39.2277 H              1 <1>                0.0000
     16 H16         30.0180  36.1079  40.3582 H              1 <1>                0.0000
     17 H17         29.4583  35.2425  38.9070 H              1 <1>                0.0000
     18 H18         30.2382  38.1830  38.8570 H              1 <1>                0.0000
     19 H19         31.4126  36.8774  38.5663 H              1 <1>                0.0000
     20 H20         30.0701  36.0431  36.6879 H              1 <1>                0.0000
     21 H21         28.8157  37.2640  37.0111 H              1 <1>                0.0000
@<TRIPOS>BOND
    1    1    2 1     
    2    2    3 1     
    3    2    4 1     
    4    2   13 1     
    5    4    5 1     
    6    4   14 1     
    7    4   15 1     
    8    5    6 1     
    9    6    7 1     
   10    6   16 1     
   11    6   17 1     
   12    7    8 1     
   13    7   18 1     
   14    7   19 1     
   15    8    9 1     
   16    8   20 1     
   17    8   21 1     
   18    9   10 2     
   19    9   11 2     
   20    9   12 1     
@<TRIPOS>SUBSTRUCTURE
      1 ****           1
@<TRIPOS>COMMENT
> <Gold.Version>
2022.2.0

> <Gold.Id.Protein>
1qkm|1qkm_protein|mol2

> <Gold.Protein.RotatedTorsions>
[  496  491  490  487 ] final  -24.53 input  -89.99 | X-H torsion

> <Gold.Protein.ActiveResidues>
 MET295  LEU298  THR299  LEU301  ALA302  GLU305  TRP335  MET336  LEU339  MET340 
 GLY342  LEU343  ARG346  PHE356  ILE373  ILE376  PHE377  LEU380  LYS471  GLY472 
 MET473  HIS475  LEU476  LEU477  ASN478  MET479  VAL484  VAL487 

> <Gold.Protein.RotatedAtoms>
   36.2944   34.5184   41.9781 H   0  0  0  0  0  0  0  0  0  0  0  0  # atno 496  bound_to 491 

> <Gold.Score>
     Score     S(PLP)   S(hbond)     S(cho)   S(metal)  DE(clash)   DE(tors)     intcor
     39.38     -40.20       0.00       0.00       0.00       0.00       0.50       0.17

> <Gold.PLP.Fitness>
39.3761

> <Gold.PLP.PLP>
-40.1980

> <Gold.PLP.part.hbond>
0.0000

> <Gold.PLP.part.metal>
0.0000

> <Gold.PLP.part.buried>
-3.8956

> <Gold.PLP.part.nonpolar>
-37.3915

> <Gold.PLP.part.repulsive>
0.0509

> <Gold.PLP.ligand.clash>
0.0000

> <Gold.PLP.ligand.torsion>
0.4964

> <Gold.PLP.Chemscore.Hbond>
0.0000

> <Gold.PLP.Chemscore.CHOScore>
0.0000

> <Gold.PLP.Chemscore.Metal>
0.0000

> <Gold.PLP.Chemscore.Internal.Correction>
0.1710

