#       Name:                plp ligand
#       Creating user name   aseyller
#       Creation time:       Fri Apr 21 20:18:18 2023


#       File generated by GOLD software.
#

@<TRIPOS>MOLECULE
plp ligand
    21    20     1
SMALL
USER_CHARGES


@<TRIPOS>ATOM
      1 F1           3.8697   1.0251  -1.1423 NONPOLAR       1 <1>                0.0000
      2 C2           3.8623   0.2175  -0.0000 NONPOLAR       1 <1>                0.0000
      3 F3           3.8697   1.0251   1.1423 NONPOLAR       1 <1>                0.0000
      4 C4           2.6050  -0.6543   0.0000 NONPOLAR       1 <1>                0.0000
      5 O5           1.4458   0.1814   0.0000 ACCEPTOR       1 <1>                0.0000
      6 C6           0.2109  -0.5375   0.0000 NONPOLAR       1 <1>                0.0000
      7 C7          -0.9556   0.4525   0.0000 NONPOLAR       1 <1>                0.0000
      8 C8          -2.2779  -0.3173   0.0000 NONPOLAR       1 <1>                0.0000
      9 S9          -3.6609   0.8565  -0.0000 NONPOLAR       1 <1>                0.0000
     10 O10         -3.7238   1.5530   1.2370 ACCEPTOR       1 <1>                0.0000
     11 O11         -3.7238   1.5530  -1.2370 ACCEPTOR       1 <1>                0.0000
     12 Cl12        -5.3110  -0.3087  -0.0000 NONPOLAR       1 <1>                0.0000
     13 H13          4.7464  -0.4200   0.0000                1 <1>                0.0000
     14 H14          2.5992  -1.2836  -0.8900                1 <1>                0.0000
     15 H15          2.5992  -1.2836   0.8900                1 <1>                0.0000
     16 H16          0.1554  -1.1644  -0.8900                1 <1>                0.0000
     17 H17          0.1554  -1.1644   0.8900                1 <1>                0.0000
     18 H18         -0.9001   1.0793   0.8900                1 <1>                0.0000
     19 H19         -0.9002   1.0793  -0.8900                1 <1>                0.0000
     20 H20         -2.3333  -0.9442  -0.8900                1 <1>                0.0000
     21 H21         -2.3333  -0.9442   0.8900                1 <1>                0.0000
@<TRIPOS>BOND
    1    1    2 1     
    2    2    3 1     
    3    2    4 1     
    4    2   13 1     
    5    4    5 1     
    6    4   14 1     
    7    4   15 1     
    8    5    6 1     
    9    6    7 1     
   10    6   16 1     
   11    6   17 1     
   12    7    8 1     
   13    7   18 1     
   14    7   19 1     
   15    8    9 1     
   16    8   20 1     
   17    8   21 1     
   18    9   10 2     
   19    9   11 2     
   20    9   12 1     
@<TRIPOS>SUBSTRUCTURE
      1 ****           1
@<TRIPOS>SET
DONOR_HYDROGENS      STATIC     ATOMS    <user>   **** ""
0
ATOM$RED        STATIC     ATOMS    COLORGROUP SYSTEM
0
