#       Name:                EN300-77042_i001
#       Creating user name   aseyller
#       Creation time:       Fri Apr 21 19:21:18 2023


#       File generated by GOLD software.
#

@<TRIPOS>MOLECULE
EN300-77042_i001|benzaldehydes|mol2|798|dock18
    27    27     1
SMALL
USER_CHARGES


@<TRIPOS>ATOM
      1 C1          29.9961  40.0096  36.8127 C.3            1 <1>                0.0000
      2 O2          29.2774  38.8877  37.3294 O.3            1 <1>                0.0000
      3 C3          29.9676  37.7245  37.4715 C.ar           1 <1>                0.0000
      4 C4          31.0653  37.4717  36.6737 C.ar           1 <1>                0.0000
      5 C5          31.7737  36.2730  36.8233 C.ar           1 <1>                0.0000
      6 C6          32.9429  35.9981  35.9781 C.2            1 <1>                0.0000
      7 O7          33.3556  36.8490  35.2186 O.2            1 <1>                0.0000
      8 C8          31.3644  35.3376  37.7812 C.ar           1 <1>                0.0000
      9 C9          30.2683  35.5981  38.5726 C.ar           1 <1>                0.0000
     10 C10         29.5693  36.7898  38.4272 C.ar           1 <1>                0.0000
     11 O11         28.4894  37.0409  39.2103 O.3            1 <1>                0.0000
     12 C12         27.7319  35.9126  39.6520 C.3            1 <1>                0.0000
     13 C13         27.3763  36.0840  41.1302 C.3            1 <1>                0.0000
     14 F14         28.4460  36.6872  41.8003 F              1 <1>                0.0000
     15 F15         26.2392  36.8908  41.2457 F              1 <1>                0.0000
     16 N16         32.1095  34.0689  37.9429 N.pl3          1 <1>                0.0000
     17 O17         33.3267  34.0677  37.8991 O.2            1 <1>                0.0000
     18 O18         31.5055  33.0261  38.1199 O.2            1 <1>                0.0000
     19 H19         30.3763  39.7713  35.8192 H              1 <1>                0.0000
     20 H20         29.3303  40.8702  36.7501 H              1 <1>                0.0000
     21 H21         30.8302  40.2429  37.4745 H              1 <1>                0.0000
     22 H22         31.3768  38.1963  35.9359 H              1 <1>                0.0000
     23 H23         33.4350  35.0383  36.0328 H              1 <1>                0.0000
     24 H24         29.9533  34.8756  39.3110 H              1 <1>                0.0000
     25 H25         26.8170  35.8366  39.0646 H              1 <1>                0.0000
     26 H26         28.3226  35.0055  39.5234 H              1 <1>                0.0000
     27 H27         27.1753  35.1077  41.5713 H              1 <1>                0.0000
@<TRIPOS>BOND
    1    1    2 1     
    2    1   19 1     
    3    1   20 1     
    4    1   21 1     
    5    2    3 1     
    6    3    4 ar    
    7    3   10 ar    
    8    4    5 ar    
    9    4   22 1     
   10    5    6 1     
   11    5    8 ar    
   12    6    7 2     
   13    6   23 1     
   14    8    9 ar    
   15    8   16 1     
   16    9   10 ar    
   17    9   24 1     
   18   10   11 1     
   19   11   12 1     
   20   12   13 1     
   21   12   25 1     
   22   12   26 1     
   23   13   14 1     
   24   13   15 1     
   25   13   27 1     
   26   16   17 2     
   27   16   18 2     
@<TRIPOS>SUBSTRUCTURE
      1 ****           1
@<TRIPOS>COMMENT
> <Gold.Version>
2022.2.0

> <Gold.Id.Protein>
1qkm|1qkm_protein|mol2

> <Gold.Protein.RotatedTorsions>
[  496  491  490  487 ] final   11.54 input  -89.99 | X-H torsion

> <Gold.Protein.ActiveResidues>
 MET295  LEU298  THR299  LEU301  ALA302  GLU305  TRP335  MET336  LEU339  MET340 
 GLY342  LEU343  ARG346  PHE356  ILE373  ILE376  PHE377  LEU380  LYS471  GLY472 
 MET473  HIS475  LEU476  LEU477  ASN478  MET479  VAL484  VAL487 

> <Gold.Protein.RotatedAtoms>
   36.2767   34.0429   42.3167 H   0  0  0  0  0  0  0  0  0  0  0  0  # atno 496  bound_to 491 

> <Gold.Score>
     Score     S(PLP)   S(hbond)     S(cho)   S(metal)  DE(clash)   DE(tors)     intcor
     47.97     -49.00       0.00       0.00       0.00       0.00       1.93       2.83

> <Gold.PLP.Fitness>
47.9697

> <Gold.PLP.PLP>
-49.0019

> <Gold.PLP.part.hbond>
0.0000

> <Gold.PLP.part.metal>
0.0000

> <Gold.PLP.part.buried>
-1.1044

> <Gold.PLP.part.nonpolar>
-49.1572

> <Gold.PLP.part.repulsive>
0.1859

> <Gold.PLP.ligand.clash>
0.0000

> <Gold.PLP.ligand.torsion>
1.9309

> <Gold.PLP.Chemscore.Hbond>
0.0000

> <Gold.PLP.Chemscore.CHOScore>
0.0000

> <Gold.PLP.Chemscore.Metal>
0.0000

> <Gold.PLP.Chemscore.Internal.Correction>
2.8294

