#       Name:                EN300-77042_i001
#       Creating user name   aseyller
#       Creation time:       Fri Apr 21 19:21:14 2023


#       File generated by GOLD software.
#

@<TRIPOS>MOLECULE
EN300-77042_i001|benzaldehydes|mol2|798|dock15
    27    27     1
SMALL
USER_CHARGES


@<TRIPOS>ATOM
      1 C1          32.0520  33.5253  38.1830 C.3            1 <1>                0.0000
      2 O2          31.4783  34.4593  39.1000 O.3            1 <1>                0.0000
      3 C3          30.8761  35.5564  38.5679 C.ar           1 <1>                0.0000
      4 C4          31.2705  36.0289  37.3323 C.ar           1 <1>                0.0000
      5 C5          30.6477  37.1588  36.7875 C.ar           1 <1>                0.0000
      6 C6          31.0622  37.6662  35.4732 C.2            1 <1>                0.0000
      7 O7          31.9462  37.1076  34.8586 O.2            1 <1>                0.0000
      8 C8          29.6286  37.8028  37.4993 C.ar           1 <1>                0.0000
      9 C9          29.2417  37.3246  38.7310 C.ar           1 <1>                0.0000
     10 C10         29.8563  36.2006  39.2684 C.ar           1 <1>                0.0000
     11 O11         29.4705  35.7339  40.4833 O.3            1 <1>                0.0000
     12 C12         28.8969  36.6788  41.3889 C.3            1 <1>                0.0000
     13 C13         27.4002  36.3985  41.5381 C.3            1 <1>                0.0000
     14 F14         26.7462  36.7074  40.3407 F              1 <1>                0.0000
     15 F15         27.2069  35.0462  41.8396 F              1 <1>                0.0000
     16 N16         28.9675  38.9976  36.9280 N.pl3          1 <1>                0.0000
     17 O17         27.7577  39.1175  37.0009 O.2            1 <1>                0.0000
     18 O18         29.6334  39.8609  36.3849 O.2            1 <1>                0.0000
     19 H19         32.8201  34.0226  37.5907 H              1 <1>                0.0000
     20 H20         32.4984  32.6996  38.7370 H              1 <1>                0.0000
     21 H21         31.2751  33.1413  37.5218 H              1 <1>                0.0000
     22 H22         32.0574  35.5287  36.7873 H              1 <1>                0.0000
     23 H23         30.5798  38.5368  35.0539 H              1 <1>                0.0000
     24 H24         28.4556  37.8225  39.2793 H              1 <1>                0.0000
     25 H25         29.3817  36.5909  42.3611 H              1 <1>                0.0000
     26 H26         29.0407  37.6873  41.0011 H              1 <1>                0.0000
     27 H27         26.9941  37.0117  42.3426 H              1 <1>                0.0000
@<TRIPOS>BOND
    1    1    2 1     
    2    1   19 1     
    3    1   20 1     
    4    1   21 1     
    5    2    3 1     
    6    3    4 ar    
    7    3   10 ar    
    8    4    5 ar    
    9    4   22 1     
   10    5    6 1     
   11    5    8 ar    
   12    6    7 2     
   13    6   23 1     
   14    8    9 ar    
   15    8   16 1     
   16    9   10 ar    
   17    9   24 1     
   18   10   11 1     
   19   11   12 1     
   20   12   13 1     
   21   12   25 1     
   22   12   26 1     
   23   13   14 1     
   24   13   15 1     
   25   13   27 1     
   26   16   17 2     
   27   16   18 2     
@<TRIPOS>SUBSTRUCTURE
      1 ****           1
@<TRIPOS>COMMENT
> <Gold.Version>
2022.2.0

> <Gold.Id.Protein>
1qkm|1qkm_protein|mol2

> <Gold.Protein.RotatedTorsions>
[  496  491  490  487 ] final -119.50 input  -89.99 | X-H torsion

> <Gold.Protein.ActiveResidues>
 MET295  LEU298  THR299  LEU301  ALA302  GLU305  TRP335  MET336  LEU339  MET340 
 GLY342  LEU343  ARG346  PHE356  ILE373  ILE376  PHE377  LEU380  LYS471  GLY472 
 MET473  HIS475  LEU476  LEU477  ASN478  MET479  VAL484  VAL487 

> <Gold.Protein.RotatedAtoms>
   37.0219   34.3624   40.8035 H   0  0  0  0  0  0  0  0  0  0  0  0  # atno 496  bound_to 491 

> <Gold.Score>
     Score     S(PLP)   S(hbond)     S(cho)   S(metal)  DE(clash)   DE(tors)     intcor
     47.45     -48.24       0.00       0.00       0.00       0.00       1.81       2.83

> <Gold.PLP.Fitness>
47.4524

> <Gold.PLP.PLP>
-48.2370

> <Gold.PLP.part.hbond>
0.0000

> <Gold.PLP.part.metal>
0.0000

> <Gold.PLP.part.buried>
-0.0115

> <Gold.PLP.part.nonpolar>
-51.0681

> <Gold.PLP.part.repulsive>
2.2347

> <Gold.PLP.ligand.clash>
0.0000

> <Gold.PLP.ligand.torsion>
1.8070

> <Gold.PLP.Chemscore.Hbond>
0.0000

> <Gold.PLP.Chemscore.CHOScore>
0.0000

> <Gold.PLP.Chemscore.Metal>
0.0000

> <Gold.PLP.Chemscore.Internal.Correction>
2.8294

