#       Name:                EN300-77042_i001
#       Creating user name   aseyller
#       Creation time:       Fri Apr 21 19:21:15 2023


#       File generated by GOLD software.
#

@<TRIPOS>MOLECULE
EN300-77042_i001|benzaldehydes|mol2|798|dock16
    27    27     1
SMALL
USER_CHARGES


@<TRIPOS>ATOM
      1 C1          31.5311  33.9789  38.5780 C.3            1 <1>                0.0000
      2 O2          30.3574  34.6672  39.0149 O.3            1 <1>                0.0000
      3 C3          30.1034  35.8764  38.4468 C.ar           1 <1>                0.0000
      4 C4          31.1365  36.6160  37.9073 C.ar           1 <1>                0.0000
      5 C5          30.8709  37.8606  37.3228 C.ar           1 <1>                0.0000
      6 C6          31.9655  38.6522  36.7466 C.2            1 <1>                0.0000
      7 O7          32.8657  38.0989  36.1509 O.2            1 <1>                0.0000
      8 C8          29.5588  38.3477  37.2889 C.ar           1 <1>                0.0000
      9 C9          28.5345  37.6033  37.8294 C.ar           1 <1>                0.0000
     10 C10         28.7981  36.3664  38.4043 C.ar           1 <1>                0.0000
     11 O11         27.7840  35.6371  38.9356 O.3            1 <1>                0.0000
     12 C12         26.6170  36.3520  39.3470 C.3            1 <1>                0.0000
     13 C13         26.4338  36.2025  40.8586 C.3            1 <1>                0.0000
     14 F14         27.6607  36.4050  41.4995 F              1 <1>                0.0000
     15 F15         25.5089  37.1491  41.3121 F              1 <1>                0.0000
     16 N16         29.2730  39.6628  36.6726 N.pl3          1 <1>                0.0000
     17 O17         30.0282  40.5999  36.8594 O.2            1 <1>                0.0000
     18 O18         28.2826  39.8078  35.9786 O.2            1 <1>                0.0000
     19 H19         32.4093  34.5903  38.7856 H              1 <1>                0.0000
     20 H20         31.6149  33.0306  39.1088 H              1 <1>                0.0000
     21 H21         31.4643  33.7908  37.5064 H              1 <1>                0.0000
     22 H22         32.1471  36.2360  37.9363 H              1 <1>                0.0000
     23 H23         31.9689  39.7269  36.8533 H              1 <1>                0.0000
     24 H24         27.5227  37.9803  37.8030 H              1 <1>                0.0000
     25 H25         26.7303  37.4069  39.0973 H              1 <1>                0.0000
     26 H26         25.7441  35.9488  38.8336 H              1 <1>                0.0000
     27 H27         26.0678  35.2005  41.0830 H              1 <1>                0.0000
@<TRIPOS>BOND
    1    1    2 1     
    2    1   19 1     
    3    1   20 1     
    4    1   21 1     
    5    2    3 1     
    6    3    4 ar    
    7    3   10 ar    
    8    4    5 ar    
    9    4   22 1     
   10    5    6 1     
   11    5    8 ar    
   12    6    7 2     
   13    6   23 1     
   14    8    9 ar    
   15    8   16 1     
   16    9   10 ar    
   17    9   24 1     
   18   10   11 1     
   19   11   12 1     
   20   12   13 1     
   21   12   25 1     
   22   12   26 1     
   23   13   14 1     
   24   13   15 1     
   25   13   27 1     
   26   16   17 2     
   27   16   18 2     
@<TRIPOS>SUBSTRUCTURE
      1 ****           1
@<TRIPOS>COMMENT
> <Gold.Version>
2022.2.0

> <Gold.Id.Protein>
1qkm|1qkm_protein|mol2

> <Gold.Protein.RotatedTorsions>
[  496  491  490  487 ] final   23.76 input  -89.99 | X-H torsion

> <Gold.Protein.ActiveResidues>
 MET295  LEU298  THR299  LEU301  ALA302  GLU305  TRP335  MET336  LEU339  MET340 
 GLY342  LEU343  ARG346  PHE356  ILE373  ILE376  PHE377  LEU380  LYS471  GLY472 
 MET473  HIS475  LEU476  LEU477  ASN478  MET479  VAL484  VAL487 

> <Gold.Protein.RotatedAtoms>
   36.3172   33.8532   42.3684 H   0  0  0  0  0  0  0  0  0  0  0  0  # atno 496  bound_to 491 

> <Gold.Score>
     Score     S(PLP)   S(hbond)     S(cho)   S(metal)  DE(clash)   DE(tors)     intcor
     44.18     -45.67       0.00       0.00       0.00       0.15       2.08       2.83

> <Gold.PLP.Fitness>
44.1844

> <Gold.PLP.PLP>
-45.6667

> <Gold.PLP.part.hbond>
0.0000

> <Gold.PLP.part.metal>
0.0000

> <Gold.PLP.part.buried>
1.5813

> <Gold.PLP.part.nonpolar>
-47.9778

> <Gold.PLP.part.repulsive>
0.1211

> <Gold.PLP.ligand.clash>
0.1462

> <Gold.PLP.ligand.torsion>
2.0827

> <Gold.PLP.Chemscore.Hbond>
0.0000

> <Gold.PLP.Chemscore.CHOScore>
0.0000

> <Gold.PLP.Chemscore.Metal>
0.0000

> <Gold.PLP.Chemscore.Internal.Correction>
2.8294

