#       Name:                EN300-77042_i001
#       Creating user name   aseyller
#       Creation time:       Fri Apr 21 19:21:17 2023


#       File generated by GOLD software.
#

@<TRIPOS>MOLECULE
EN300-77042_i001|benzaldehydes|mol2|798|dock17
    27    27     1
SMALL
USER_CHARGES


@<TRIPOS>ATOM
      1 C1          31.9016  33.3752  38.3645 C.3            1 <1>                0.0000
      2 O2          31.2330  34.5501  38.8280 O.3            1 <1>                0.0000
      3 C3          31.1745  35.6054  37.9721 C.ar           1 <1>                0.0000
      4 C4          32.1736  35.7925  37.0381 C.ar           1 <1>                0.0000
      5 C5          32.1095  36.8801  36.1582 C.ar           1 <1>                0.0000
      6 C6          33.1689  37.0845  35.1618 C.2            1 <1>                0.0000
      7 O7          34.1750  36.4079  35.1987 O.2            1 <1>                0.0000
      8 C8          31.0325  37.7716  36.2309 C.ar           1 <1>                0.0000
      9 C9          30.0406  37.5772  37.1656 C.ar           1 <1>                0.0000
     10 C10         30.1021  36.4952  38.0346 C.ar           1 <1>                0.0000
     11 O11         29.1211  36.3089  38.9541 O.3            1 <1>                0.0000
     12 C12         28.2811  37.4284  39.2424 C.3            1 <1>                0.0000
     13 C13         27.1559  37.5015  38.2082 C.3            1 <1>                0.0000
     14 F14         25.9192  37.4623  38.8610 F              1 <1>                0.0000
     15 F15         27.2640  38.6942  37.4851 F              1 <1>                0.0000
     16 N16         30.9605  38.9229  35.3034 N.pl3          1 <1>                0.0000
     17 O17         31.2657  38.7818  34.1328 O.2            1 <1>                0.0000
     18 O18         30.5960  40.0113  35.7108 O.2            1 <1>                0.0000
     19 H19         32.9375  33.6167  38.1261 H              1 <1>                0.0000
     20 H20         31.8763  32.6120  39.1423 H              1 <1>                0.0000
     21 H21         31.4010  33.0007  37.4716 H              1 <1>                0.0000
     22 H22         33.0025  35.1021  36.9863 H              1 <1>                0.0000
     23 H23         33.0521  37.8372  34.3962 H              1 <1>                0.0000
     24 H24         29.2104  38.2659  37.2210 H              1 <1>                0.0000
     25 H25         27.8525  37.3143  40.2381 H              1 <1>                0.0000
     26 H26         28.8705  38.3445  39.2033 H              1 <1>                0.0000
     27 H27         27.2337  36.6547  37.5261 H              1 <1>                0.0000
@<TRIPOS>BOND
    1    1    2 1     
    2    1   19 1     
    3    1   20 1     
    4    1   21 1     
    5    2    3 1     
    6    3    4 ar    
    7    3   10 ar    
    8    4    5 ar    
    9    4   22 1     
   10    5    6 1     
   11    5    8 ar    
   12    6    7 2     
   13    6   23 1     
   14    8    9 ar    
   15    8   16 1     
   16    9   10 ar    
   17    9   24 1     
   18   10   11 1     
   19   11   12 1     
   20   12   13 1     
   21   12   25 1     
   22   12   26 1     
   23   13   14 1     
   24   13   15 1     
   25   13   27 1     
   26   16   17 2     
   27   16   18 2     
@<TRIPOS>SUBSTRUCTURE
      1 ****           1
@<TRIPOS>COMMENT
> <Gold.Version>
2022.2.0

> <Gold.Id.Protein>
1qkm|1qkm_protein|mol2

> <Gold.Protein.RotatedTorsions>
[  496  491  490  487 ] final  152.11 input  -89.99 | X-H torsion

> <Gold.Protein.ActiveResidues>
 MET295  LEU298  THR299  LEU301  ALA302  GLU305  TRP335  MET336  LEU339  MET340 
 GLY342  LEU343  ARG346  PHE356  ILE373  ILE376  PHE377  LEU380  LYS471  GLY472 
 MET473  HIS475  LEU476  LEU477  ASN478  MET479  VAL484  VAL487 

> <Gold.Protein.RotatedAtoms>
   37.2711   33.1237   41.1679 H   0  0  0  0  0  0  0  0  0  0  0  0  # atno 496  bound_to 491 

> <Gold.Score>
     Score     S(PLP)   S(hbond)     S(cho)   S(metal)  DE(clash)   DE(tors)     intcor
     45.64     -48.00       0.00       0.00       0.00       0.87       2.15       2.83

> <Gold.PLP.Fitness>
45.6441

> <Gold.PLP.PLP>
-47.9979

> <Gold.PLP.part.hbond>
0.0000

> <Gold.PLP.part.metal>
0.0000

> <Gold.PLP.part.buried>
-3.7929

> <Gold.PLP.part.nonpolar>
-44.0530

> <Gold.PLP.part.repulsive>
0.3334

> <Gold.PLP.ligand.clash>
0.8737

> <Gold.PLP.ligand.torsion>
2.1548

> <Gold.PLP.Chemscore.Hbond>
0.0000

> <Gold.PLP.Chemscore.CHOScore>
0.0000

> <Gold.PLP.Chemscore.Metal>
0.0000

> <Gold.PLP.Chemscore.Internal.Correction>
2.8294

