#       Name:                EN300-77042_i001
#       Creating user name   aseyller
#       Creation time:       Fri Apr 21 19:20:58 2023


#       File generated by GOLD software.
#

@<TRIPOS>MOLECULE
EN300-77042_i001|benzaldehydes|mol2|798|dock5
    27    27     1
SMALL
USER_CHARGES


@<TRIPOS>ATOM
      1 C1          31.9397  33.3452  38.4398 C.3            1 <1>                0.0000
      2 O2          31.3931  34.5114  39.0591 O.3            1 <1>                0.0000
      3 C3          31.2792  35.6248  38.2866 C.ar           1 <1>                0.0000
      4 C4          32.1705  35.8432  37.2553 C.ar           1 <1>                0.0000
      5 C5          32.0497  36.9908  36.4618 C.ar           1 <1>                0.0000
      6 C6          32.9943  37.2288  35.3627 C.2            1 <1>                0.0000
      7 O7          33.8564  36.4118  35.1163 O.2            1 <1>                0.0000
      8 C8          31.0257  37.9102  36.7190 C.ar           1 <1>                0.0000
      9 C9          30.1413  37.6843  37.7497 C.ar           1 <1>                0.0000
     10 C10         30.2585  36.5430  38.5330 C.ar           1 <1>                0.0000
     11 O11         29.3835  36.3259  39.5478 O.3            1 <1>                0.0000
     12 C12         28.1975  37.1228  39.5635 C.3            1 <1>                0.0000
     13 C13         26.9697  36.2109  39.5256 C.3            1 <1>                0.0000
     14 F14         25.8267  36.9543  39.8390 F              1 <1>                0.0000
     15 F15         26.8339  35.6645  38.2449 F              1 <1>                0.0000
     16 N16         30.8942  39.1248  35.8834 N.pl3          1 <1>                0.0000
     17 O17         31.0111  39.0473  34.6735 O.2            1 <1>                0.0000
     18 O18         30.6689  40.2019  36.4056 O.2            1 <1>                0.0000
     19 H19         32.9480  33.5605  38.0859 H              1 <1>                0.0000
     20 H20         31.9750  32.5317  39.1643 H              1 <1>                0.0000
     21 H21         31.3132  33.0540  37.5967 H              1 <1>                0.0000
     22 H22         32.9589  35.1311  37.0612 H              1 <1>                0.0000
     23 H23         32.9213  38.1312  34.7739 H              1 <1>                0.0000
     24 H24         29.3519  38.3944  37.9473 H              1 <1>                0.0000
     25 H25         28.1757  37.7240  40.4724 H              1 <1>                0.0000
     26 H26         28.1894  37.7794  38.6934 H              1 <1>                0.0000
     27 H27         27.0910  35.4075  40.2523 H              1 <1>                0.0000
@<TRIPOS>BOND
    1    1    2 1     
    2    1   19 1     
    3    1   20 1     
    4    1   21 1     
    5    2    3 1     
    6    3    4 ar    
    7    3   10 ar    
    8    4    5 ar    
    9    4   22 1     
   10    5    6 1     
   11    5    8 ar    
   12    6    7 2     
   13    6   23 1     
   14    8    9 ar    
   15    8   16 1     
   16    9   10 ar    
   17    9   24 1     
   18   10   11 1     
   19   11   12 1     
   20   12   13 1     
   21   12   25 1     
   22   12   26 1     
   23   13   14 1     
   24   13   15 1     
   25   13   27 1     
   26   16   17 2     
   27   16   18 2     
@<TRIPOS>SUBSTRUCTURE
      1 ****           1
@<TRIPOS>COMMENT
> <Gold.Version>
2022.2.0

> <Gold.Id.Protein>
1qkm|1qkm_protein|mol2

> <Gold.Protein.RotatedTorsions>
[  496  491  490  487 ] final  -79.76 input  -89.99 | X-H torsion

> <Gold.Protein.ActiveResidues>
 MET295  LEU298  THR299  LEU301  ALA302  GLU305  TRP335  MET336  LEU339  MET340 
 GLY342  LEU343  ARG346  PHE356  ILE373  ILE376  PHE377  LEU380  LYS471  GLY472 
 MET473  HIS475  LEU476  LEU477  ASN478  MET479  VAL484  VAL487 

> <Gold.Protein.RotatedAtoms>
   36.6638   34.7072   41.2084 H   0  0  0  0  0  0  0  0  0  0  0  0  # atno 496  bound_to 491 

> <Gold.Score>
     Score     S(PLP)   S(hbond)     S(cho)   S(metal)  DE(clash)   DE(tors)     intcor
     50.10     -51.82       0.00       0.00       0.00       1.18       1.71       2.89

> <Gold.PLP.Fitness>
50.1040

> <Gold.PLP.PLP>
-51.8242

> <Gold.PLP.part.hbond>
0.0000

> <Gold.PLP.part.metal>
0.0000

> <Gold.PLP.part.buried>
-6.9105

> <Gold.PLP.part.nonpolar>
-46.2830

> <Gold.PLP.part.repulsive>
0.5818

> <Gold.PLP.ligand.clash>
1.1828

> <Gold.PLP.ligand.torsion>
1.7121

> <Gold.PLP.Chemscore.Hbond>
0.0000

> <Gold.PLP.Chemscore.CHOScore>
0.0000

> <Gold.PLP.Chemscore.Metal>
0.0000

> <Gold.PLP.Chemscore.Internal.Correction>
2.8868

