#       Name:                EN300-77042_i001
#       Creating user name   aseyller
#       Creation time:       Fri Apr 21 19:21:03 2023


#       File generated by GOLD software.
#

@<TRIPOS>MOLECULE
EN300-77042_i001|benzaldehydes|mol2|798|dock8
    27    27     1
SMALL
USER_CHARGES


@<TRIPOS>ATOM
      1 C1          32.1103  34.2920  38.1167 C.3            1 <1>                0.0000
      2 O2          30.7301  34.5732  38.3581 O.3            1 <1>                0.0000
      3 C3          30.2682  35.7878  37.9571 C.ar           1 <1>                0.0000
      4 C4          30.8675  36.4384  36.8974 C.ar           1 <1>                0.0000
      5 C5          30.3886  37.6889  36.4871 C.ar           1 <1>                0.0000
      6 C6          31.0215  38.3861  35.3601 C.2            1 <1>                0.0000
      7 O7          31.8859  37.8333  34.7131 O.2            1 <1>                0.0000
      8 C8          29.3046  38.2720  37.1541 C.ar           1 <1>                0.0000
      9 C9          28.7130  37.6159  38.2100 C.ar           1 <1>                0.0000
     10 C10         29.1852  36.3732  38.6130 C.ar           1 <1>                0.0000
     11 O11         28.5978  35.7312  39.6548 O.3            1 <1>                0.0000
     12 C12         27.9110  36.5405  40.6116 C.3            1 <1>                0.0000
     13 C13         26.4024  36.3297  40.4688 C.3            1 <1>                0.0000
     14 F14         25.7380  37.0003  41.5013 F              1 <1>                0.0000
     15 F15         25.9758  36.8335  39.2354 F              1 <1>                0.0000
     16 N16         28.7951  39.5937  36.7246 N.pl3          1 <1>                0.0000
     17 O17         27.5954  39.7994  36.6822 O.2            1 <1>                0.0000
     18 O18         29.5755  40.4755  36.4134 O.2            1 <1>                0.0000
     19 H19         32.7269  35.0259  38.6358 H              1 <1>                0.0000
     20 H20         32.3474  33.2935  38.4839 H              1 <1>                0.0000
     21 H21         32.3095  34.3423  37.0462 H              1 <1>                0.0000
     22 H22         31.7037  35.9845  36.3863 H              1 <1>                0.0000
     23 H23         30.7171  39.3911  35.1074 H              1 <1>                0.0000
     24 H24         27.8770  38.0669  38.7241 H              1 <1>                0.0000
     25 H25         28.2237  36.2588  41.6170 H              1 <1>                0.0000
     26 H26         28.1493  37.5899  40.4376 H              1 <1>                0.0000
     27 H27         26.1774  35.2645  40.5236 H              1 <1>                0.0000
@<TRIPOS>BOND
    1    1    2 1     
    2    1   19 1     
    3    1   20 1     
    4    1   21 1     
    5    2    3 1     
    6    3    4 ar    
    7    3   10 ar    
    8    4    5 ar    
    9    4   22 1     
   10    5    6 1     
   11    5    8 ar    
   12    6    7 2     
   13    6   23 1     
   14    8    9 ar    
   15    8   16 1     
   16    9   10 ar    
   17    9   24 1     
   18   10   11 1     
   19   11   12 1     
   20   12   13 1     
   21   12   25 1     
   22   12   26 1     
   23   13   14 1     
   24   13   15 1     
   25   13   27 1     
   26   16   17 2     
   27   16   18 2     
@<TRIPOS>SUBSTRUCTURE
      1 ****           1
@<TRIPOS>COMMENT
> <Gold.Version>
2022.2.0

> <Gold.Id.Protein>
1qkm|1qkm_protein|mol2

> <Gold.Protein.RotatedTorsions>
[  496  491  490  487 ] final  -65.98 input  -89.99 | X-H torsion

> <Gold.Protein.ActiveResidues>
 MET295  LEU298  THR299  LEU301  ALA302  GLU305  TRP335  MET336  LEU339  MET340 
 GLY342  LEU343  ARG346  PHE356  ILE373  ILE376  PHE377  LEU380  LYS471  GLY472 
 MET473  HIS475  LEU476  LEU477  ASN478  MET479  VAL484  VAL487 

> <Gold.Protein.RotatedAtoms>
   36.5447   34.7357   41.3986 H   0  0  0  0  0  0  0  0  0  0  0  0  # atno 496  bound_to 491 

> <Gold.Score>
     Score     S(PLP)   S(hbond)     S(cho)   S(metal)  DE(clash)   DE(tors)     intcor
     47.65     -48.27       0.00       0.00       0.00       0.00       1.74       2.87

> <Gold.PLP.Fitness>
47.6543

> <Gold.PLP.PLP>
-48.2657

> <Gold.PLP.part.hbond>
0.0000

> <Gold.PLP.part.metal>
0.0000

> <Gold.PLP.part.buried>
-1.7306

> <Gold.PLP.part.nonpolar>
-47.1189

> <Gold.PLP.part.repulsive>
0.2129

> <Gold.PLP.ligand.clash>
0.0000

> <Gold.PLP.ligand.torsion>
1.7388

> <Gold.PLP.Chemscore.Hbond>
0.0000

> <Gold.PLP.Chemscore.CHOScore>
0.0000

> <Gold.PLP.Chemscore.Metal>
0.0000

> <Gold.PLP.Chemscore.Internal.Correction>
2.8661

