#       Name:                EN300-77042_i001
#       Creating user name   aseyller
#       Creation time:       Fri Apr 21 19:21:20 2023


#       File generated by GOLD software.
#

@<TRIPOS>MOLECULE
EN300-77042_i001|benzaldehydes|mol2|798|dock19
    27    27     1
SMALL
USER_CHARGES


@<TRIPOS>ATOM
      1 C1          29.0850  39.6010  35.7553 C.3            1 <1>                0.0000
      2 O2          29.7432  38.4323  36.2485 O.3            1 <1>                0.0000
      3 C3          29.2361  37.8681  37.3772 C.ar           1 <1>                0.0000
      4 C4          27.8876  37.9705  37.6539 C.ar           1 <1>                0.0000
      5 C5          27.3692  37.3878  38.8170 C.ar           1 <1>                0.0000
      6 C6          25.9353  37.4926  39.1170 C.2            1 <1>                0.0000
      7 O7          25.5292  37.2430  40.2324 O.2            1 <1>                0.0000
      8 C8          28.2216  36.7046  39.6927 C.ar           1 <1>                0.0000
      9 C9          29.5652  36.6075  39.4087 C.ar           1 <1>                0.0000
     10 C10         30.0778  37.1812  38.2521 C.ar           1 <1>                0.0000
     11 O11         31.4035  37.0821  37.9775 O.3            1 <1>                0.0000
     12 C12         32.0811  35.9206  38.4611 C.3            1 <1>                0.0000
     13 C13         31.7622  34.7298  37.5550 C.3            1 <1>                0.0000
     14 F14         32.4963  34.8365  36.3690 F              1 <1>                0.0000
     15 F15         32.1036  33.5414  38.2094 F              1 <1>                0.0000
     16 N16         27.6785  36.0874  40.9235 N.pl3          1 <1>                0.0000
     17 O17         26.8465  35.2014  40.8445 O.2            1 <1>                0.0000
     18 O18         28.0635  36.4655  42.0155 O.2            1 <1>                0.0000
     19 H19         29.1170  40.3834  36.5137 H              1 <1>                0.0000
     20 H20         29.5888  39.9485  34.8534 H              1 <1>                0.0000
     21 H21         28.0471  39.3627  35.5228 H              1 <1>                0.0000
     22 H22         27.2343  38.4989  36.9754 H              1 <1>                0.0000
     23 H23         25.2425  37.7920  38.3445 H              1 <1>                0.0000
     24 H24         30.2219  36.0805  40.0851 H              1 <1>                0.0000
     25 H25         33.1561  36.1003  38.4602 H              1 <1>                0.0000
     26 H26         31.7500  35.7033  39.4767 H              1 <1>                0.0000
     27 H27         30.6970  34.7242  37.3237 H              1 <1>                0.0000
@<TRIPOS>BOND
    1    1    2 1     
    2    1   19 1     
    3    1   20 1     
    4    1   21 1     
    5    2    3 1     
    6    3    4 ar    
    7    3   10 ar    
    8    4    5 ar    
    9    4   22 1     
   10    5    6 1     
   11    5    8 ar    
   12    6    7 2     
   13    6   23 1     
   14    8    9 ar    
   15    8   16 1     
   16    9   10 ar    
   17    9   24 1     
   18   10   11 1     
   19   11   12 1     
   20   12   13 1     
   21   12   25 1     
   22   12   26 1     
   23   13   14 1     
   24   13   15 1     
   25   13   27 1     
   26   16   17 2     
   27   16   18 2     
@<TRIPOS>SUBSTRUCTURE
      1 ****           1
@<TRIPOS>COMMENT
> <Gold.Version>
2022.2.0

> <Gold.Id.Protein>
1qkm|1qkm_protein|mol2

> <Gold.Protein.RotatedTorsions>
[  496  491  490  487 ] final  109.76 input  -89.99 | X-H torsion

> <Gold.Protein.ActiveResidues>
 MET295  LEU298  THR299  LEU301  ALA302  GLU305  TRP335  MET336  LEU339  MET340 
 GLY342  LEU343  ARG346  PHE356  ILE373  ILE376  PHE377  LEU380  LYS471  GLY472 
 MET473  HIS475  LEU476  LEU477  ASN478  MET479  VAL484  VAL487 

> <Gold.Protein.RotatedAtoms>
   36.9972   32.9429   41.7651 H   0  0  0  0  0  0  0  0  0  0  0  0  # atno 496  bound_to 491 

> <Gold.Score>
     Score     S(PLP)   S(hbond)     S(cho)   S(metal)  DE(clash)   DE(tors)     intcor
     47.73     -49.24       0.00       0.00       0.00       0.00       2.17       2.83

> <Gold.PLP.Fitness>
47.7269

> <Gold.PLP.PLP>
-49.2446

> <Gold.PLP.part.hbond>
0.0000

> <Gold.PLP.part.metal>
0.0000

> <Gold.PLP.part.buried>
-4.2750

> <Gold.PLP.part.nonpolar>
-45.9951

> <Gold.PLP.part.repulsive>
0.6118

> <Gold.PLP.ligand.clash>
0.0000

> <Gold.PLP.ligand.torsion>
2.1736

> <Gold.PLP.Chemscore.Hbond>
0.0000

> <Gold.PLP.Chemscore.CHOScore>
0.0000

> <Gold.PLP.Chemscore.Metal>
0.0000

> <Gold.PLP.Chemscore.Internal.Correction>
2.8294

