#       Name:                EN300-77042_i001
#       Creating user name   aseyller
#       Creation time:       Fri Apr 21 19:20:53 2023


#       File generated by GOLD software.
#

@<TRIPOS>MOLECULE
EN300-77042_i001|benzaldehydes|mol2|798|dock1
    27    27     1
SMALL
USER_CHARGES


@<TRIPOS>ATOM
      1 C1          31.9415  33.4470  38.2100 C.3            1 <1>                0.0000
      2 O2          31.4035  34.4342  39.0922 O.3            1 <1>                0.0000
      3 C3          31.0401  35.6228  38.5404 C.ar           1 <1>                0.0000
      4 C4          31.7023  36.0975  37.4261 C.ar           1 <1>                0.0000
      5 C5          31.3249  37.3218  36.8606 C.ar           1 <1>                0.0000
      6 C6          32.0250  37.8321  35.6747 C.2            1 <1>                0.0000
      7 O7          32.9275  37.1901  35.1801 O.2            1 <1>                0.0000
      8 C8          30.2780  38.0576  37.4287 C.ar           1 <1>                0.0000
      9 C9          29.6232  37.5765  38.5401 C.ar           1 <1>                0.0000
     10 C10         29.9947  36.3595  39.0974 C.ar           1 <1>                0.0000
     11 O11         29.3452  35.8904  40.1932 O.3            1 <1>                0.0000
     12 C12         28.2911  36.6997  40.7184 C.3            1 <1>                0.0000
     13 C13         26.9426  36.1421  40.2585 C.3            1 <1>                0.0000
     14 F14         25.9085  36.8623  40.8661 F              1 <1>                0.0000
     15 F15         26.8388  36.2601  38.8684 F              1 <1>                0.0000
     16 N16         29.8757  39.3524  36.8349 N.pl3          1 <1>                0.0000
     17 O17         28.6955  39.6362  36.7355 O.2            1 <1>                0.0000
     18 O18         30.7249  40.1340  36.4458 O.2            1 <1>                0.0000
     19 H19         32.8417  33.8365  37.7345 H              1 <1>                0.0000
     20 H20         32.1894  32.5496  38.7768 H              1 <1>                0.0000
     21 H21         31.2039  33.2019  37.4458 H              1 <1>                0.0000
     22 H22         32.5095  35.5262  36.9918 H              1 <1>                0.0000
     23 H23         31.7361  38.7790  35.2430 H              1 <1>                0.0000
     24 H24         28.8160  38.1452  38.9777 H              1 <1>                0.0000
     25 H25         28.3351  36.6920  41.8074 H              1 <1>                0.0000
     26 H26         28.4036  37.7221  40.3575 H              1 <1>                0.0000
     27 H27         26.8683  35.0918  40.5406 H              1 <1>                0.0000
@<TRIPOS>BOND
    1    1    2 1     
    2    1   19 1     
    3    1   20 1     
    4    1   21 1     
    5    2    3 1     
    6    3    4 ar    
    7    3   10 ar    
    8    4    5 ar    
    9    4   22 1     
   10    5    6 1     
   11    5    8 ar    
   12    6    7 2     
   13    6   23 1     
   14    8    9 ar    
   15    8   16 1     
   16    9   10 ar    
   17    9   24 1     
   18   10   11 1     
   19   11   12 1     
   20   12   13 1     
   21   12   25 1     
   22   12   26 1     
   23   13   14 1     
   24   13   15 1     
   25   13   27 1     
   26   16   17 2     
   27   16   18 2     
@<TRIPOS>SUBSTRUCTURE
      1 ****           1
@<TRIPOS>COMMENT
> <Gold.Version>
2022.2.0

> <Gold.Id.Protein>
1qkm|1qkm_protein|mol2

> <Gold.Protein.RotatedTorsions>
[  496  491  490  487 ] final  147.08 input  -89.99 | X-H torsion

> <Gold.Protein.ActiveResidues>
 MET295  LEU298  THR299  LEU301  ALA302  GLU305  TRP335  MET336  LEU339  MET340 
 GLY342  LEU343  ARG346  PHE356  ILE373  ILE376  PHE377  LEU380  LYS471  GLY472 
 MET473  HIS475  LEU476  LEU477  ASN478  MET479  VAL484  VAL487 

> <Gold.Protein.RotatedAtoms>
   37.2500   33.0787   41.2341 H   0  0  0  0  0  0  0  0  0  0  0  0  # atno 496  bound_to 491 

> <Gold.Score>
     Score     S(PLP)   S(hbond)     S(cho)   S(metal)  DE(clash)   DE(tors)     intcor
     55.41     -56.88       0.00       0.00       0.00       1.81       1.33       3.00

> <Gold.PLP.Fitness>
55.4132

> <Gold.PLP.PLP>
-56.8766

> <Gold.PLP.part.hbond>
0.0000

> <Gold.PLP.part.metal>
0.0000

> <Gold.PLP.part.buried>
-7.6090

> <Gold.PLP.part.nonpolar>
-50.5027

> <Gold.PLP.part.repulsive>
0.6928

> <Gold.PLP.ligand.clash>
1.8123

> <Gold.PLP.ligand.torsion>
1.3276

> <Gold.PLP.Chemscore.Hbond>
0.0000

> <Gold.PLP.Chemscore.CHOScore>
0.0000

> <Gold.PLP.Chemscore.Metal>
0.0000

> <Gold.PLP.Chemscore.Internal.Correction>
3.0043

