#       Name:                EN300-77042_i001
#       Creating user name   aseyller
#       Creation time:       Fri Apr 21 19:21:08 2023


#       File generated by GOLD software.
#

@<TRIPOS>MOLECULE
EN300-77042_i001|benzaldehydes|mol2|798|dock11
    27    27     1
SMALL
USER_CHARGES


@<TRIPOS>ATOM
      1 C1          32.1075  33.5710  37.9198 C.3            1 <1>                0.0000
      2 O2          31.6184  34.6012  38.7809 O.3            1 <1>                0.0000
      3 C3          31.2371  35.7672  38.1939 C.ar           1 <1>                0.0000
      4 C4          31.8488  36.1858  37.0294 C.ar           1 <1>                0.0000
      5 C5          31.4532  37.3868  36.4277 C.ar           1 <1>                0.0000
      6 C6          32.0996  37.8375  35.1884 C.2            1 <1>                0.0000
      7 O7          32.8330  37.0875  34.5795 O.2            1 <1>                0.0000
      8 C8          30.4392  38.1564  37.0107 C.ar           1 <1>                0.0000
      9 C9          29.8346  37.7312  38.1722 C.ar           1 <1>                0.0000
     10 C10         30.2240  36.5370  38.7656 C.ar           1 <1>                0.0000
     11 O11         29.6242  36.1231  39.9108 O.3            1 <1>                0.0000
     12 C12         28.3000  36.5998  40.1585 C.3            1 <1>                0.0000
     13 C13         28.0072  36.5359  41.6588 C.3            1 <1>                0.0000
     14 F14         27.7540  35.2107  42.0286 F              1 <1>                0.0000
     15 F15         29.1120  37.0156  42.3704 F              1 <1>                0.0000
     16 N16         30.0177  39.4268  36.3788 N.pl3          1 <1>                0.0000
     17 O17         28.8346  39.7056  36.3020 O.2            1 <1>                0.0000
     18 O18         30.8540  40.1934  35.9356 O.2            1 <1>                0.0000
     19 H19         32.9867  33.9310  37.3854 H              1 <1>                0.0000
     20 H20         32.3761  32.6977  38.5142 H              1 <1>                0.0000
     21 H21         31.3329  33.2984  37.2030 H              1 <1>                0.0000
     22 H22         32.6308  35.5887  36.5838 H              1 <1>                0.0000
     23 H23         31.9220  38.8369  34.8194 H              1 <1>                0.0000
     24 H24         29.0528  38.3258  38.6213 H              1 <1>                0.0000
     25 H25         28.2149  37.6308  39.8152 H              1 <1>                0.0000
     26 H26         27.5836  35.9778  39.6217 H              1 <1>                0.0000
     27 H27         27.1350  37.1493  41.8853 H              1 <1>                0.0000
@<TRIPOS>BOND
    1    1    2 1     
    2    1   19 1     
    3    1   20 1     
    4    1   21 1     
    5    2    3 1     
    6    3    4 ar    
    7    3   10 ar    
    8    4    5 ar    
    9    4   22 1     
   10    5    6 1     
   11    5    8 ar    
   12    6    7 2     
   13    6   23 1     
   14    8    9 ar    
   15    8   16 1     
   16    9   10 ar    
   17    9   24 1     
   18   10   11 1     
   19   11   12 1     
   20   12   13 1     
   21   12   25 1     
   22   12   26 1     
   23   13   14 1     
   24   13   15 1     
   25   13   27 1     
   26   16   17 2     
   27   16   18 2     
@<TRIPOS>SUBSTRUCTURE
      1 ****           1
@<TRIPOS>COMMENT
> <Gold.Version>
2022.2.0

> <Gold.Id.Protein>
1qkm|1qkm_protein|mol2

> <Gold.Protein.RotatedTorsions>
[  496  491  490  487 ] final   83.87 input  -89.99 | X-H torsion

> <Gold.Protein.ActiveResidues>
 MET295  LEU298  THR299  LEU301  ALA302  GLU305  TRP335  MET336  LEU339  MET340 
 GLY342  LEU343  ARG346  PHE356  ILE373  ILE376  PHE377  LEU380  LYS471  GLY472 
 MET473  HIS475  LEU476  LEU477  ASN478  MET479  VAL484  VAL487 

> <Gold.Protein.RotatedAtoms>
   36.7636   33.0668   42.0946 H   0  0  0  0  0  0  0  0  0  0  0  0  # atno 496  bound_to 491 

> <Gold.Score>
     Score     S(PLP)   S(hbond)     S(cho)   S(metal)  DE(clash)   DE(tors)     intcor
     48.11     -48.61       0.00       0.00       0.00       0.00       1.68       2.87

> <Gold.PLP.Fitness>
48.1120

> <Gold.PLP.PLP>
-48.6101

> <Gold.PLP.part.hbond>
0.0000

> <Gold.PLP.part.metal>
0.0000

> <Gold.PLP.part.buried>
-1.1139

> <Gold.PLP.part.nonpolar>
-48.2021

> <Gold.PLP.part.repulsive>
0.3517

> <Gold.PLP.ligand.clash>
0.0000

> <Gold.PLP.ligand.torsion>
1.6821

> <Gold.PLP.Chemscore.Hbond>
0.0000

> <Gold.PLP.Chemscore.CHOScore>
0.0000

> <Gold.PLP.Chemscore.Metal>
0.0000

> <Gold.PLP.Chemscore.Internal.Correction>
2.8661

