#       Name:                EN300-77042_i001
#       Creating user name   aseyller
#       Creation time:       Fri Apr 21 19:21:21 2023


#       File generated by GOLD software.
#

@<TRIPOS>MOLECULE
EN300-77042_i001|benzaldehydes|mol2|798|dock20
    27    27     1
SMALL
USER_CHARGES


@<TRIPOS>ATOM
      1 C1          29.6107  39.6845  36.3100 C.3            1 <1>                0.0000
      2 O2          29.6994  39.1029  37.6124 O.3            1 <1>                0.0000
      3 C3          30.2576  37.8659  37.6994 C.ar           1 <1>                0.0000
      4 C4          31.1532  37.4437  36.7375 C.ar           1 <1>                0.0000
      5 C5          31.7262  36.1693  36.8309 C.ar           1 <1>                0.0000
      6 C6          32.6802  35.7144  35.8112 C.2            1 <1>                0.0000
      7 O7          32.9915  36.4519  34.8999 O.2            1 <1>                0.0000
      8 C8          31.3874  35.3305  37.8994 C.ar           1 <1>                0.0000
      9 C9          30.4932  35.7598  38.8542 C.ar           1 <1>                0.0000
     10 C10         29.9293  37.0261  38.7637 C.ar           1 <1>                0.0000
     11 O11         29.0482  37.4437  39.7082 O.3            1 <1>                0.0000
     12 C12         28.3385  36.4321  40.4257 C.3            1 <1>                0.0000
     13 C13         27.0262  36.1201  39.7037 C.3            1 <1>                0.0000
     14 F14         26.2973  37.3015  39.5297 F              1 <1>                0.0000
     15 F15         27.3042  35.5555  38.4543 F              1 <1>                0.0000
     16 N16         31.9900  33.9825  38.0022 N.pl3          1 <1>                0.0000
     17 O17         33.1748  33.8255  37.7673 O.2            1 <1>                0.0000
     18 O18         31.3012  33.0302  38.3220 O.2            1 <1>                0.0000
     19 H19         29.0067  39.0446  35.6667 H              1 <1>                0.0000
     20 H20         29.1473  40.6683  36.3822 H              1 <1>                0.0000
     21 H21         30.6107  39.7840  35.8877 H              1 <1>                0.0000
     22 H22         31.4110  38.0945  35.9150 H              1 <1>                0.0000
     23 H23         33.1044  34.7231  35.8727 H              1 <1>                0.0000
     24 H24         30.2324  35.1117  39.6778 H              1 <1>                0.0000
     25 H25         28.9473  35.5296  40.4791 H              1 <1>                0.0000
     26 H26         28.1231  36.7852  41.4342 H              1 <1>                0.0000
     27 H27         26.4424  35.4173  40.2982 H              1 <1>                0.0000
@<TRIPOS>BOND
    1    1    2 1     
    2    1   19 1     
    3    1   20 1     
    4    1   21 1     
    5    2    3 1     
    6    3    4 ar    
    7    3   10 ar    
    8    4    5 ar    
    9    4   22 1     
   10    5    6 1     
   11    5    8 ar    
   12    6    7 2     
   13    6   23 1     
   14    8    9 ar    
   15    8   16 1     
   16    9   10 ar    
   17    9   24 1     
   18   10   11 1     
   19   11   12 1     
   20   12   13 1     
   21   12   25 1     
   22   12   26 1     
   23   13   14 1     
   24   13   15 1     
   25   13   27 1     
   26   16   17 2     
   27   16   18 2     
@<TRIPOS>SUBSTRUCTURE
      1 ****           1
@<TRIPOS>COMMENT
> <Gold.Version>
2022.2.0

> <Gold.Id.Protein>
1qkm|1qkm_protein|mol2

> <Gold.Protein.RotatedTorsions>
[  496  491  490  487 ] final  -83.52 input  -89.99 | X-H torsion

> <Gold.Protein.ActiveResidues>
 MET295  LEU298  THR299  LEU301  ALA302  GLU305  TRP335  MET336  LEU339  MET340 
 GLY342  LEU343  ARG346  PHE356  ILE373  ILE376  PHE377  LEU380  LYS471  GLY472 
 MET473  HIS475  LEU476  LEU477  ASN478  MET479  VAL484  VAL487 

> <Gold.Protein.RotatedAtoms>
   36.6978   34.6905   41.1595 H   0  0  0  0  0  0  0  0  0  0  0  0  # atno 496  bound_to 491 

> <Gold.Score>
     Score     S(PLP)   S(hbond)     S(cho)   S(metal)  DE(clash)   DE(tors)     intcor
     44.68     -45.02       0.00       0.00       0.00       0.00       1.59       2.83

> <Gold.PLP.Fitness>
44.6756

> <Gold.PLP.PLP>
-45.0194

> <Gold.PLP.part.hbond>
0.0000

> <Gold.PLP.part.metal>
0.0000

> <Gold.PLP.part.buried>
2.4101

> <Gold.PLP.part.nonpolar>
-47.8129

> <Gold.PLP.part.repulsive>
0.2324

> <Gold.PLP.ligand.clash>
0.0000

> <Gold.PLP.ligand.torsion>
1.5867

> <Gold.PLP.Chemscore.Hbond>
0.0000

> <Gold.PLP.Chemscore.CHOScore>
0.0000

> <Gold.PLP.Chemscore.Metal>
0.0000

> <Gold.PLP.Chemscore.Internal.Correction>
2.8294

