#       Name:                EN300-77042_i001
#       Creating user name   aseyller
#       Creation time:       Fri Apr 21 19:21:12 2023


#       File generated by GOLD software.
#

@<TRIPOS>MOLECULE
EN300-77042_i001|benzaldehydes|mol2|798|dock14
    27    27     1
SMALL
USER_CHARGES


@<TRIPOS>ATOM
      1 C1          31.9144  32.5816  38.4119 C.3            1 <1>                0.0000
      2 O2          31.4157  33.6986  39.1506 O.3            1 <1>                0.0000
      3 C3          31.1695  34.8398  38.4532 C.ar           1 <1>                0.0000
      4 C4          31.9146  35.1362  37.3296 C.ar           1 <1>                0.0000
      5 C5          31.6578  36.3121  36.6138 C.ar           1 <1>                0.0000
      6 C6          32.4466  36.6330  35.4172 C.2            1 <1>                0.0000
      7 O7          32.7133  37.7876  35.1583 O.2            1 <1>                0.0000
      8 C8          30.6467  37.1807  37.0419 C.ar           1 <1>                0.0000
      9 C9          29.9085  36.8771  38.1637 C.ar           1 <1>                0.0000
     10 C10         30.1603  35.7078  38.8702 C.ar           1 <1>                0.0000
     11 O11         29.4291  35.4140  39.9755 O.3            1 <1>                0.0000
     12 C12         28.5738  36.4418  40.4795 C.3            1 <1>                0.0000
     13 C13         27.1131  36.0237  40.2995 C.3            1 <1>                0.0000
     14 F14         26.2907  36.8631  41.0585 F              1 <1>                0.0000
     15 F15         26.7624  36.1240  38.9490 F              1 <1>                0.0000
     16 N16         30.3717  38.4251  36.2890 N.pl3          1 <1>                0.0000
     17 O17         30.3099  39.4907  36.8756 O.2            1 <1>                0.0000
     18 O18         30.2072  38.3834  35.0829 O.2            1 <1>                0.0000
     19 H19         32.8620  32.8492  37.9441 H              1 <1>                0.0000
     20 H20         32.0673  31.7390  39.0862 H              1 <1>                0.0000
     21 H21         31.1945  32.3047  37.6417 H              1 <1>                0.0000
     22 H22         32.6937  34.4630  37.0036 H              1 <1>                0.0000
     23 H23         32.7890  35.8408  34.7679 H              1 <1>                0.0000
     24 H24         29.1289  37.5481  38.4932 H              1 <1>                0.0000
     25 H25         28.7790  36.5985  41.5385 H              1 <1>                0.0000
     26 H26         28.7567  37.3672  39.9332 H              1 <1>                0.0000
     27 H27         26.9864  34.9934  40.6322 H              1 <1>                0.0000
@<TRIPOS>BOND
    1    1    2 1     
    2    1   19 1     
    3    1   20 1     
    4    1   21 1     
    5    2    3 1     
    6    3    4 ar    
    7    3   10 ar    
    8    4    5 ar    
    9    4   22 1     
   10    5    6 1     
   11    5    8 ar    
   12    6    7 2     
   13    6   23 1     
   14    8    9 ar    
   15    8   16 1     
   16    9   10 ar    
   17    9   24 1     
   18   10   11 1     
   19   11   12 1     
   20   12   13 1     
   21   12   25 1     
   22   12   26 1     
   23   13   14 1     
   24   13   15 1     
   25   13   27 1     
   26   16   17 2     
   27   16   18 2     
@<TRIPOS>SUBSTRUCTURE
      1 ****           1
@<TRIPOS>COMMENT
> <Gold.Version>
2022.2.0

> <Gold.Id.Protein>
1qkm|1qkm_protein|mol2

> <Gold.Protein.RotatedTorsions>
[  496  491  490  487 ] final   66.06 input  -89.99 | X-H torsion

> <Gold.Protein.ActiveResidues>
 MET295  LEU298  THR299  LEU301  ALA302  GLU305  TRP335  MET336  LEU339  MET340 
 GLY342  LEU343  ARG346  PHE356  ILE373  ILE376  PHE377  LEU380  LYS471  GLY472 
 MET473  HIS475  LEU476  LEU477  ASN478  MET479  VAL484  VAL487 

> <Gold.Protein.RotatedAtoms>
   36.6029   33.2446   42.2612 H   0  0  0  0  0  0  0  0  0  0  0  0  # atno 496  bound_to 491 

> <Gold.Score>
     Score     S(PLP)   S(hbond)     S(cho)   S(metal)  DE(clash)   DE(tors)     intcor
     47.30     -50.10       0.00       0.00       0.00       1.51       2.06       2.83

> <Gold.PLP.Fitness>
47.3019

> <Gold.PLP.PLP>
-50.0985

> <Gold.PLP.part.hbond>
0.0000

> <Gold.PLP.part.metal>
0.0000

> <Gold.PLP.part.buried>
-5.0694

> <Gold.PLP.part.nonpolar>
-46.9328

> <Gold.PLP.part.repulsive>
0.3350

> <Gold.PLP.ligand.clash>
1.5114

> <Gold.PLP.ligand.torsion>
2.0597

> <Gold.PLP.Chemscore.Hbond>
0.0000

> <Gold.PLP.Chemscore.CHOScore>
0.0000

> <Gold.PLP.Chemscore.Metal>
0.0000

> <Gold.PLP.Chemscore.Internal.Correction>
2.8342

