#       Name:                EN300-77042_i001
#       Creating user name   aseyller
#       Creation time:       Fri Apr 21 19:20:57 2023


#       File generated by GOLD software.
#

@<TRIPOS>MOLECULE
EN300-77042_i001|benzaldehydes|mol2|798|dock4
    27    27     1
SMALL
USER_CHARGES


@<TRIPOS>ATOM
      1 C1          32.1005  33.4022  38.1886 C.3            1 <1>                0.0000
      2 O2          31.3259  34.2664  39.0225 O.3            1 <1>                0.0000
      3 C3          30.9586  35.4655  38.4966 C.ar           1 <1>                0.0000
      4 C4          31.7616  36.0828  37.5588 C.ar           1 <1>                0.0000
      5 C5          31.3798  37.3174  37.0193 C.ar           1 <1>                0.0000
      6 C6          32.2294  37.9791  36.0207 C.2            1 <1>                0.0000
      7 O7          31.7250  38.5337  35.0671 O.2            1 <1>                0.0000
      8 C8          30.1855  37.9187  37.4342 C.ar           1 <1>                0.0000
      9 C9          29.3907  37.2959  38.3701 C.ar           1 <1>                0.0000
     10 C10         29.7676  36.0687  38.9009 C.ar           1 <1>                0.0000
     11 O11         28.9798  35.4596  39.8234 O.3            1 <1>                0.0000
     12 C12         27.5751  35.7093  39.7433 C.3            1 <1>                0.0000
     13 C13         27.1874  36.7764  40.7689 C.3            1 <1>                0.0000
     14 F14         25.8220  36.6734  41.0556 F              1 <1>                0.0000
     15 F15         27.9258  36.5859  41.9418 F              1 <1>                0.0000
     16 N16         29.7777  39.2238  36.8673 N.pl3          1 <1>                0.0000
     17 O17         28.6128  39.4224  36.5725 O.2            1 <1>                0.0000
     18 O18         30.6071  40.0991  36.6956 O.2            1 <1>                0.0000
     19 H19         33.0312  33.8995  37.9150 H              1 <1>                0.0000
     20 H20         32.3252  32.4821  38.7281 H              1 <1>                0.0000
     21 H21         31.5360  33.1659  37.2865 H              1 <1>                0.0000
     22 H22         32.6822  35.6149  37.2422 H              1 <1>                0.0000
     23 H23         33.3033  37.9717  36.1354 H              1 <1>                0.0000
     24 H24         28.4698  37.7610  38.6897 H              1 <1>                0.0000
     25 H25         27.3249  36.0599  38.7420 H              1 <1>                0.0000
     26 H26         27.0299  34.7890  39.9528 H              1 <1>                0.0000
     27 H27         27.3997  37.7653  40.3625 H              1 <1>                0.0000
@<TRIPOS>BOND
    1    1    2 1     
    2    1   19 1     
    3    1   20 1     
    4    1   21 1     
    5    2    3 1     
    6    3    4 ar    
    7    3   10 ar    
    8    4    5 ar    
    9    4   22 1     
   10    5    6 1     
   11    5    8 ar    
   12    6    7 2     
   13    6   23 1     
   14    8    9 ar    
   15    8   16 1     
   16    9   10 ar    
   17    9   24 1     
   18   10   11 1     
   19   11   12 1     
   20   12   13 1     
   21   12   25 1     
   22   12   26 1     
   23   13   14 1     
   24   13   15 1     
   25   13   27 1     
   26   16   17 2     
   27   16   18 2     
@<TRIPOS>SUBSTRUCTURE
      1 ****           1
@<TRIPOS>COMMENT
> <Gold.Version>
2022.2.0

> <Gold.Id.Protein>
1qkm|1qkm_protein|mol2

> <Gold.Protein.RotatedTorsions>
[  496  491  490  487 ] final   86.76 input  -89.99 | X-H torsion

> <Gold.Protein.ActiveResidues>
 MET295  LEU298  THR299  LEU301  ALA302  GLU305  TRP335  MET336  LEU339  MET340 
 GLY342  LEU343  ARG346  PHE356  ILE373  ILE376  PHE377  LEU380  LYS471  GLY472 
 MET473  HIS475  LEU476  LEU477  ASN478  MET479  VAL484  VAL487 

> <Gold.Protein.RotatedAtoms>
   36.7903   33.0445   42.0621 H   0  0  0  0  0  0  0  0  0  0  0  0  # atno 496  bound_to 491 

> <Gold.Score>
     Score     S(PLP)   S(hbond)     S(cho)   S(metal)  DE(clash)   DE(tors)     intcor
     51.34     -52.90       0.00       0.00       0.00       0.00       2.22       2.89

> <Gold.PLP.Fitness>
51.3437

> <Gold.PLP.PLP>
-52.8992

> <Gold.PLP.part.hbond>
0.0000

> <Gold.PLP.part.metal>
0.0000

> <Gold.PLP.part.buried>
-6.4354

> <Gold.PLP.part.nonpolar>
-47.6981

> <Gold.PLP.part.repulsive>
0.2258

> <Gold.PLP.ligand.clash>
0.0000

> <Gold.PLP.ligand.torsion>
2.2212

> <Gold.PLP.Chemscore.Hbond>
0.0000

> <Gold.PLP.Chemscore.CHOScore>
0.0000

> <Gold.PLP.Chemscore.Metal>
0.0000

> <Gold.PLP.Chemscore.Internal.Correction>
2.8868

