#       Name:                EN300-77042_i001
#       Creating user name   aseyller
#       Creation time:       Fri Apr 21 19:21:05 2023


#       File generated by GOLD software.
#

@<TRIPOS>MOLECULE
EN300-77042_i001|benzaldehydes|mol2|798|dock9
    27    27     1
SMALL
USER_CHARGES


@<TRIPOS>ATOM
      1 C1          31.8535  33.3141  38.2516 C.3            1 <1>                0.0000
      2 O2          30.9099  34.1824  38.8824 O.3            1 <1>                0.0000
      3 C3          30.7430  35.4155  38.3338 C.ar           1 <1>                0.0000
      4 C4          31.7795  36.0090  37.6418 C.ar           1 <1>                0.0000
      5 C5          31.6036  37.2787  37.0780 C.ar           1 <1>                0.0000
      6 C6          32.7022  37.9154  36.3399 C.2            1 <1>                0.0000
      7 O7          32.9398  37.5810  35.1984 O.2            1 <1>                0.0000
      8 C8          30.3773  37.9393  37.2195 C.ar           1 <1>                0.0000
      9 C9          29.3490  37.3398  37.9114 C.ar           1 <1>                0.0000
     10 C10         29.5225  36.0780  38.4659 C.ar           1 <1>                0.0000
     11 O11         28.5050  35.4922  39.1471 O.3            1 <1>                0.0000
     12 C12         27.1765  35.8691  38.7794 C.3            1 <1>                0.0000
     13 C13         26.7378  37.0726  39.6159 C.3            1 <1>                0.0000
     14 F14         25.4999  37.5342  39.1557 F              1 <1>                0.0000
     15 F15         26.6241  36.6918  40.9572 F              1 <1>                0.0000
     16 N16         30.1865  39.2816  36.6258 N.pl3          1 <1>                0.0000
     17 O17         29.6282  40.1560  37.2639 O.2            1 <1>                0.0000
     18 O18         30.5879  39.5119  35.4991 O.2            1 <1>                0.0000
     19 H19         32.8401  33.7773  38.2665 H              1 <1>                0.0000
     20 H20         31.8893  32.3656  38.7875 H              1 <1>                0.0000
     21 H21         31.5508  33.1370  37.2195 H              1 <1>                0.0000
     22 H22         32.7237  35.4954  37.5357 H              1 <1>                0.0000
     23 H23         33.2984  38.6812  36.8136 H              1 <1>                0.0000
     24 H24         28.4035  37.8505  38.0203 H              1 <1>                0.0000
     25 H25         27.1532  36.1335  37.7223 H              1 <1>                0.0000
     26 H26         26.4989  35.0346  38.9602 H              1 <1>                0.0000
     27 H27         27.4783  37.8674  39.5255 H              1 <1>                0.0000
@<TRIPOS>BOND
    1    1    2 1     
    2    1   19 1     
    3    1   20 1     
    4    1   21 1     
    5    2    3 1     
    6    3    4 ar    
    7    3   10 ar    
    8    4    5 ar    
    9    4   22 1     
   10    5    6 1     
   11    5    8 ar    
   12    6    7 2     
   13    6   23 1     
   14    8    9 ar    
   15    8   16 1     
   16    9   10 ar    
   17    9   24 1     
   18   10   11 1     
   19   11   12 1     
   20   12   13 1     
   21   12   25 1     
   22   12   26 1     
   23   13   14 1     
   24   13   15 1     
   25   13   27 1     
   26   16   17 2     
   27   16   18 2     
@<TRIPOS>SUBSTRUCTURE
      1 ****           1
@<TRIPOS>COMMENT
> <Gold.Version>
2022.2.0

> <Gold.Id.Protein>
1qkm|1qkm_protein|mol2

> <Gold.Protein.RotatedTorsions>
[  496  491  490  487 ] final  -82.15 input  -89.99 | X-H torsion

> <Gold.Protein.ActiveResidues>
 MET295  LEU298  THR299  LEU301  ALA302  GLU305  TRP335  MET336  LEU339  MET340 
 GLY342  LEU343  ARG346  PHE356  ILE373  ILE376  PHE377  LEU380  LYS471  GLY472 
 MET473  HIS475  LEU476  LEU477  ASN478  MET479  VAL484  VAL487 

> <Gold.Protein.RotatedAtoms>
   36.6853   34.6970   41.1772 H   0  0  0  0  0  0  0  0  0  0  0  0  # atno 496  bound_to 491 

> <Gold.Score>
     Score     S(PLP)   S(hbond)     S(cho)   S(metal)  DE(clash)   DE(tors)     intcor
     49.33     -51.22       0.00       0.00       0.00       0.00       2.38       2.87

> <Gold.PLP.Fitness>
49.3265

> <Gold.PLP.PLP>
-51.2170

> <Gold.PLP.part.hbond>
0.0000

> <Gold.PLP.part.metal>
0.0000

> <Gold.PLP.part.buried>
-3.7325

> <Gold.PLP.part.nonpolar>
-47.8607

> <Gold.PLP.part.repulsive>
0.2271

> <Gold.PLP.ligand.clash>
0.0000

> <Gold.PLP.ligand.torsion>
2.3783

> <Gold.PLP.Chemscore.Hbond>
0.0000

> <Gold.PLP.Chemscore.CHOScore>
0.0000

> <Gold.PLP.Chemscore.Metal>
0.0000

> <Gold.PLP.Chemscore.Internal.Correction>
2.8661

