#       Name:                EN300-77042_i001
#       Creating user name   aseyller
#       Creation time:       Fri Apr 21 19:21:06 2023


#       File generated by GOLD software.
#

@<TRIPOS>MOLECULE
EN300-77042_i001|benzaldehydes|mol2|798|dock10
    27    27     1
SMALL
USER_CHARGES


@<TRIPOS>ATOM
      1 C1          29.0472  40.6876  36.4004 C.3            1 <1>                0.0000
      2 O2          28.6952  39.4390  36.9999 O.3            1 <1>                0.0000
      3 C3          29.6670  38.4899  37.0654 C.ar           1 <1>                0.0000
      4 C4          30.6789  38.4725  36.1267 C.ar           1 <1>                0.0000
      5 C5          31.6780  37.4938  36.1978 C.ar           1 <1>                0.0000
      6 C6          32.7577  37.4701  35.2025 C.2            1 <1>                0.0000
      7 O7          32.6739  38.1485  34.2005 O.2            1 <1>                0.0000
      8 C8          31.6448  36.5383  37.2205 C.ar           1 <1>                0.0000
      9 C9          30.6317  36.5632  38.1525 C.ar           1 <1>                0.0000
     10 C10         29.6439  37.5376  38.0844 C.ar           1 <1>                0.0000
     11 O11         28.6476  37.5569  39.0061 O.3            1 <1>                0.0000
     12 C12         28.3741  36.3332  39.6916 C.3            1 <1>                0.0000
     13 C13         26.8625  36.1018  39.7386 C.3            1 <1>                0.0000
     14 F14         26.2708  37.0534  40.5761 F              1 <1>                0.0000
     15 F15         26.3322  36.2209  38.4495 F              1 <1>                0.0000
     16 N16         32.6983  35.5016  37.2997 N.pl3          1 <1>                0.0000
     17 O17         33.8602  35.7964  37.0842 O.2            1 <1>                0.0000
     18 O18         32.4032  34.3537  37.5803 O.2            1 <1>                0.0000
     19 H19         29.3628  40.5200  35.3705 H              1 <1>                0.0000
     20 H20         28.1836  41.3525  36.4120 H              1 <1>                0.0000
     21 H21         29.8637  41.1425  36.9611 H              1 <1>                0.0000
     22 H22         30.6998  39.2116  35.3395 H              1 <1>                0.0000
     23 H23         33.6264  36.8487  35.3629 H              1 <1>                0.0000
     24 H24         30.6070  35.8254  38.9408 H              1 <1>                0.0000
     25 H25         28.8520  35.5072  39.1650 H              1 <1>                0.0000
     26 H26         28.7646  36.3908  40.7077 H              1 <1>                0.0000
     27 H27         26.6597  35.1024  40.1239 H              1 <1>                0.0000
@<TRIPOS>BOND
    1    1    2 1     
    2    1   19 1     
    3    1   20 1     
    4    1   21 1     
    5    2    3 1     
    6    3    4 ar    
    7    3   10 ar    
    8    4    5 ar    
    9    4   22 1     
   10    5    6 1     
   11    5    8 ar    
   12    6    7 2     
   13    6   23 1     
   14    8    9 ar    
   15    8   16 1     
   16    9   10 ar    
   17    9   24 1     
   18   10   11 1     
   19   11   12 1     
   20   12   13 1     
   21   12   25 1     
   22   12   26 1     
   23   13   14 1     
   24   13   15 1     
   25   13   27 1     
   26   16   17 2     
   27   16   18 2     
@<TRIPOS>SUBSTRUCTURE
      1 ****           1
@<TRIPOS>COMMENT
> <Gold.Version>
2022.2.0

> <Gold.Id.Protein>
1qkm|1qkm_protein|mol2

> <Gold.Protein.RotatedTorsions>
[  496  491  490  487 ] final  -10.71 input  -89.99 | X-H torsion

> <Gold.Protein.ActiveResidues>
 MET295  LEU298  THR299  LEU301  ALA302  GLU305  TRP335  MET336  LEU339  MET340 
 GLY342  LEU343  ARG346  PHE356  ILE373  ILE376  PHE377  LEU380  LYS471  GLY472 
 MET473  HIS475  LEU476  LEU477  ASN478  MET479  VAL484  VAL487 

> <Gold.Protein.RotatedAtoms>
   36.2631   34.3587   42.1363 H   0  0  0  0  0  0  0  0  0  0  0  0  # atno 496  bound_to 491 

> <Gold.Score>
     Score     S(PLP)   S(hbond)     S(cho)   S(metal)  DE(clash)   DE(tors)     intcor
     47.10     -48.01       0.00       0.00       0.00       0.32       1.72       2.87

> <Gold.PLP.Fitness>
47.1034

> <Gold.PLP.PLP>
-48.0118

> <Gold.PLP.part.hbond>
0.0000

> <Gold.PLP.part.metal>
0.0000

> <Gold.PLP.part.buried>
-2.0491

> <Gold.PLP.part.nonpolar>
-45.7364

> <Gold.PLP.part.repulsive>
0.2599

> <Gold.PLP.ligand.clash>
0.3249

> <Gold.PLP.ligand.torsion>
1.7248

> <Gold.PLP.Chemscore.Hbond>
0.0000

> <Gold.PLP.Chemscore.CHOScore>
0.0000

> <Gold.PLP.Chemscore.Metal>
0.0000

> <Gold.PLP.Chemscore.Internal.Correction>
2.8661

