#       Name:                EN300-77042_i001
#       Creating user name   aseyller
#       Creation time:       Fri Apr 21 19:20:55 2023


#       File generated by GOLD software.
#

@<TRIPOS>MOLECULE
EN300-77042_i001|benzaldehydes|mol2|798|dock3
    27    27     1
SMALL
USER_CHARGES


@<TRIPOS>ATOM
      1 C1          29.4340  40.0706  36.6976 C.3            1 <1>                0.0000
      2 O2          28.7844  38.9485  37.2986 O.3            1 <1>                0.0000
      3 C3          29.5260  37.8204  37.4620 C.ar           1 <1>                0.0000
      4 C4          30.5943  37.5696  36.6245 C.ar           1 <1>                0.0000
      5 C5          31.3559  36.4070  36.7962 C.ar           1 <1>                0.0000
      6 C6          32.4940  36.1345  35.9090 C.2            1 <1>                0.0000
      7 O7          32.7808  36.9212  35.0313 O.2            1 <1>                0.0000
      8 C8          31.0295  35.5055  37.8165 C.ar           1 <1>                0.0000
      9 C9          29.9623  35.7638  38.6472 C.ar           1 <1>                0.0000
     10 C10         29.2105  36.9199  38.4795 C.ar           1 <1>                0.0000
     11 O11         28.1595  37.1690  39.3016 O.3            1 <1>                0.0000
     12 C12         27.4681  36.0364  39.8319 C.3            1 <1>                0.0000
     13 C13         26.0041  36.4038  40.0822 C.3            1 <1>                0.0000
     14 F14         25.8815  36.9983  41.3427 F              1 <1>                0.0000
     15 F15         25.5740  37.3016  39.0994 F              1 <1>                0.0000
     16 N16         31.8311  34.2751  38.0018 N.pl3          1 <1>                0.0000
     17 O17         31.2774  33.2192  38.2504 O.2            1 <1>                0.0000
     18 O18         33.0445  34.3186  37.9056 O.2            1 <1>                0.0000
     19 H19         29.7785  39.7995  35.6996 H              1 <1>                0.0000
     20 H20         28.7322  40.9015  36.6264 H              1 <1>                0.0000
     21 H21         30.2868  40.3667  37.3084 H              1 <1>                0.0000
     22 H22         30.8418  38.2679  35.8387 H              1 <1>                0.0000
     23 H23         33.0756  35.2336  36.0379 H              1 <1>                0.0000
     24 H24         29.7112  35.0675  39.4337 H              1 <1>                0.0000
     25 H25         27.5193  35.2131  39.1194 H              1 <1>                0.0000
     26 H26         27.9324  35.7340  40.7706 H              1 <1>                0.0000
     27 H27         25.3917  35.5028  40.0444 H              1 <1>                0.0000
@<TRIPOS>BOND
    1    1    2 1     
    2    1   19 1     
    3    1   20 1     
    4    1   21 1     
    5    2    3 1     
    6    3    4 ar    
    7    3   10 ar    
    8    4    5 ar    
    9    4   22 1     
   10    5    6 1     
   11    5    8 ar    
   12    6    7 2     
   13    6   23 1     
   14    8    9 ar    
   15    8   16 1     
   16    9   10 ar    
   17    9   24 1     
   18   10   11 1     
   19   11   12 1     
   20   12   13 1     
   21   12   25 1     
   22   12   26 1     
   23   13   14 1     
   24   13   15 1     
   25   13   27 1     
   26   16   17 2     
   27   16   18 2     
@<TRIPOS>SUBSTRUCTURE
      1 ****           1
@<TRIPOS>COMMENT
> <Gold.Version>
2022.2.0

> <Gold.Id.Protein>
1qkm|1qkm_protein|mol2

> <Gold.Protein.RotatedTorsions>
[  496  491  490  487 ] final   85.02 input  -89.99 | X-H torsion

> <Gold.Protein.ActiveResidues>
 MET295  LEU298  THR299  LEU301  ALA302  GLU305  TRP335  MET336  LEU339  MET340 
 GLY342  LEU343  ARG346  PHE356  ILE373  ILE376  PHE377  LEU380  LYS471  GLY472 
 MET473  HIS475  LEU476  LEU477  ASN478  MET479  VAL484  VAL487 

> <Gold.Protein.RotatedAtoms>
   36.7742   33.0577   42.0818 H   0  0  0  0  0  0  0  0  0  0  0  0  # atno 496  bound_to 491 

> <Gold.Score>
     Score     S(PLP)   S(hbond)     S(cho)   S(metal)  DE(clash)   DE(tors)     intcor
     49.86     -50.69       0.00       0.00       0.00       0.00       1.86       2.89

> <Gold.PLP.Fitness>
49.8594

> <Gold.PLP.PLP>
-50.6891

> <Gold.PLP.part.hbond>
0.0000

> <Gold.PLP.part.metal>
0.0000

> <Gold.PLP.part.buried>
-0.6327

> <Gold.PLP.part.nonpolar>
-50.5282

> <Gold.PLP.part.repulsive>
0.2007

> <Gold.PLP.ligand.clash>
0.0000

> <Gold.PLP.ligand.torsion>
1.8583

> <Gold.PLP.Chemscore.Hbond>
0.0000

> <Gold.PLP.Chemscore.CHOScore>
0.0000

> <Gold.PLP.Chemscore.Metal>
0.0000

> <Gold.PLP.Chemscore.Internal.Correction>
2.8868

