#       Name:                EN300-77042_i001
#       Creating user name   aseyller
#       Creation time:       Fri Apr 21 19:20:54 2023


#       File generated by GOLD software.
#

@<TRIPOS>MOLECULE
EN300-77042_i001|benzaldehydes|mol2|798|dock2
    27    27     1
SMALL
USER_CHARGES


@<TRIPOS>ATOM
      1 C1          32.0040  33.2983  38.3082 C.3            1 <1>                0.0000
      2 O2          31.4064  34.3980  38.9981 O.3            1 <1>                0.0000
      3 C3          31.2424  35.5513  38.2964 C.ar           1 <1>                0.0000
      4 C4          32.1224  35.8735  37.2829 C.ar           1 <1>                0.0000
      5 C5          31.9500  37.0619  36.5623 C.ar           1 <1>                0.0000
      6 C6          32.8824  37.4102  35.4825 C.2            1 <1>                0.0000
      7 O7          33.6112  36.5617  35.0133 O.2            1 <1>                0.0000
      8 C8          30.8858  37.9165  36.8740 C.ar           1 <1>                0.0000
      9 C9          30.0129  37.5872  37.8864 C.ar           1 <1>                0.0000
     10 C10         30.1816  36.4056  38.5973 C.ar           1 <1>                0.0000
     11 O11         29.3176  36.0864  39.5944 O.3            1 <1>                0.0000
     12 C12         27.9761  36.5620  39.4675 C.3            1 <1>                0.0000
     13 C13         27.1753  36.1673  40.7100 C.3            1 <1>                0.0000
     14 F14         27.9438  36.4040  41.8547 F              1 <1>                0.0000
     15 F15         26.0027  36.9279  40.7700 F              1 <1>                0.0000
     16 N16         30.6995  39.1739  36.1156 N.pl3          1 <1>                0.0000
     17 O17         30.3837  40.1956  36.6985 O.2            1 <1>                0.0000
     18 O18         30.8620  39.1869  34.9085 O.2            1 <1>                0.0000
     19 H19         33.0013  33.5800  37.9704 H              1 <1>                0.0000
     20 H20         32.0761  32.4435  38.9806 H              1 <1>                0.0000
     21 H21         31.3903  33.0327  37.4474 H              1 <1>                0.0000
     22 H22         32.9420  35.2110  37.0465 H              1 <1>                0.0000
     23 H23         32.9192  38.4219  35.1063 H              1 <1>                0.0000
     24 H24         29.1925  38.2475  38.1262 H              1 <1>                0.0000
     25 H25         27.9831  37.6475  39.3694 H              1 <1>                0.0000
     26 H26         27.5161  36.1203  38.5834 H              1 <1>                0.0000
     27 H27         26.9196  35.1090  40.6565 H              1 <1>                0.0000
@<TRIPOS>BOND
    1    1    2 1     
    2    1   19 1     
    3    1   20 1     
    4    1   21 1     
    5    2    3 1     
    6    3    4 ar    
    7    3   10 ar    
    8    4    5 ar    
    9    4   22 1     
   10    5    6 1     
   11    5    8 ar    
   12    6    7 2     
   13    6   23 1     
   14    8    9 ar    
   15    8   16 1     
   16    9   10 ar    
   17    9   24 1     
   18   10   11 1     
   19   11   12 1     
   20   12   13 1     
   21   12   25 1     
   22   12   26 1     
   23   13   14 1     
   24   13   15 1     
   25   13   27 1     
   26   16   17 2     
   27   16   18 2     
@<TRIPOS>SUBSTRUCTURE
      1 ****           1
@<TRIPOS>COMMENT
> <Gold.Version>
2022.2.0

> <Gold.Id.Protein>
1qkm|1qkm_protein|mol2

> <Gold.Protein.RotatedTorsions>
[  496  491  490  487 ] final  -75.63 input  -89.99 | X-H torsion

> <Gold.Protein.ActiveResidues>
 MET295  LEU298  THR299  LEU301  ALA302  GLU305  TRP335  MET336  LEU339  MET340 
 GLY342  LEU343  ARG346  PHE356  ILE373  ILE376  PHE377  LEU380  LYS471  GLY472 
 MET473  HIS475  LEU476  LEU477  ASN478  MET479  VAL484  VAL487 

> <Gold.Protein.RotatedAtoms>
   36.6270   34.7211   41.2639 H   0  0  0  0  0  0  0  0  0  0  0  0  # atno 496  bound_to 491 

> <Gold.Score>
     Score     S(PLP)   S(hbond)     S(cho)   S(metal)  DE(clash)   DE(tors)     intcor
     54.40     -54.69       0.00       0.00       0.00       0.00       1.59       2.89

> <Gold.PLP.Fitness>
54.4019

> <Gold.PLP.PLP>
-54.6862

> <Gold.PLP.part.hbond>
0.0000

> <Gold.PLP.part.metal>
0.0000

> <Gold.PLP.part.buried>
-7.1327

> <Gold.PLP.part.nonpolar>
-49.0308

> <Gold.PLP.part.repulsive>
0.3196

> <Gold.PLP.ligand.clash>
0.0000

> <Gold.PLP.ligand.torsion>
1.5860

> <Gold.PLP.Chemscore.Hbond>
0.0000

> <Gold.PLP.Chemscore.CHOScore>
0.0000

> <Gold.PLP.Chemscore.Metal>
0.0000

> <Gold.PLP.Chemscore.Internal.Correction>
2.8878

