#       Name:                EN300-77042_i001
#       Creating user name   aseyller
#       Creation time:       Fri Apr 21 19:21:00 2023


#       File generated by GOLD software.
#

@<TRIPOS>MOLECULE
EN300-77042_i001|benzaldehydes|mol2|798|dock6
    27    27     1
SMALL
USER_CHARGES


@<TRIPOS>ATOM
      1 C1          29.1985  40.5672  36.6348 C.3            1 <1>                0.0000
      2 O2          28.5137  39.3670  36.9993 O.3            1 <1>                0.0000
      3 C3          29.2781  38.2667  37.2327 C.ar           1 <1>                0.0000
      4 C4          30.5272  38.1591  36.6552 C.ar           1 <1>                0.0000
      5 C5          31.3115  37.0246  36.8983 C.ar           1 <1>                0.0000
      6 C6          32.6416  36.9042  36.2874 C.2            1 <1>                0.0000
      7 O7          32.9985  37.7046  35.4487 O.2            1 <1>                0.0000
      8 C8          30.8241  36.0059  37.7259 C.ar           1 <1>                0.0000
      9 C9          29.5771  36.1217  38.2977 C.ar           1 <1>                0.0000
     10 C10         28.8019  37.2497  38.0603 C.ar           1 <1>                0.0000
     11 O11         27.5731  37.3581  38.6268 O.3            1 <1>                0.0000
     12 C12         26.9021  36.1408  38.9585 C.3            1 <1>                0.0000
     13 C13         26.6125  36.1110  40.4605 C.3            1 <1>                0.0000
     14 F14         27.8167  36.1809  41.1692 F              1 <1>                0.0000
     15 F15         25.8066  37.2024  40.8018 F              1 <1>                0.0000
     16 N16         31.6491  34.8047  37.9856 N.pl3          1 <1>                0.0000
     17 O17         32.2844  34.2949  37.0801 O.2            1 <1>                0.0000
     18 O18         31.6928  34.3262  39.1048 O.2            1 <1>                0.0000
     19 H19         29.7601  40.4003  35.7156 H              1 <1>                0.0000
     20 H20         28.4735  41.3658  36.4777 H              1 <1>                0.0000
     21 H21         29.8843  40.8510  37.4332 H              1 <1>                0.0000
     22 H22         30.8985  38.9475  36.0173 H              1 <1>                0.0000
     23 H23         33.3019  36.1030  36.5849 H              1 <1>                0.0000
     24 H24         29.2021  35.3350  38.9356 H              1 <1>                0.0000
     25 H25         25.9643  36.0808  38.4064 H              1 <1>                0.0000
     26 H26         27.5345  35.2935  38.6936 H              1 <1>                0.0000
     27 H27         26.0958  35.1849  40.7127 H              1 <1>                0.0000
@<TRIPOS>BOND
    1    1    2 1     
    2    1   19 1     
    3    1   20 1     
    4    1   21 1     
    5    2    3 1     
    6    3    4 ar    
    7    3   10 ar    
    8    4    5 ar    
    9    4   22 1     
   10    5    6 1     
   11    5    8 ar    
   12    6    7 2     
   13    6   23 1     
   14    8    9 ar    
   15    8   16 1     
   16    9   10 ar    
   17    9   24 1     
   18   10   11 1     
   19   11   12 1     
   20   12   13 1     
   21   12   25 1     
   22   12   26 1     
   23   13   14 1     
   24   13   15 1     
   25   13   27 1     
   26   16   17 2     
   27   16   18 2     
@<TRIPOS>SUBSTRUCTURE
      1 ****           1
@<TRIPOS>COMMENT
> <Gold.Version>
2022.2.0

> <Gold.Id.Protein>
1qkm|1qkm_protein|mol2

> <Gold.Protein.RotatedTorsions>
[  496  491  490  487 ] final -172.39 input  -89.99 | X-H torsion

> <Gold.Protein.ActiveResidues>
 MET295  LEU298  THR299  LEU301  ALA302  GLU305  TRP335  MET336  LEU339  MET340 
 GLY342  LEU343  ARG346  PHE356  ILE373  ILE376  PHE377  LEU380  LYS471  GLY472 
 MET473  HIS475  LEU476  LEU477  ASN478  MET479  VAL484  VAL487 

> <Gold.Protein.RotatedAtoms>
   37.3090   33.5730   40.8109 H   0  0  0  0  0  0  0  0  0  0  0  0  # atno 496  bound_to 491 

> <Gold.Score>
     Score     S(PLP)   S(hbond)     S(cho)   S(metal)  DE(clash)   DE(tors)     intcor
     49.85     -50.45       0.00       0.00       0.00       0.00       1.74       2.89

> <Gold.PLP.Fitness>
49.8540

> <Gold.PLP.PLP>
-50.4545

> <Gold.PLP.part.hbond>
0.0000

> <Gold.PLP.part.metal>
0.0000

> <Gold.PLP.part.buried>
-4.6457

> <Gold.PLP.part.nonpolar>
-46.3467

> <Gold.PLP.part.repulsive>
0.6845

> <Gold.PLP.ligand.clash>
0.0000

> <Gold.PLP.ligand.torsion>
1.7437

> <Gold.PLP.Chemscore.Hbond>
0.0000

> <Gold.PLP.Chemscore.CHOScore>
0.0000

> <Gold.PLP.Chemscore.Metal>
0.0000

> <Gold.PLP.Chemscore.Internal.Correction>
2.8868

