#       Name:                EN300-77042_i001
#       Creating user name   aseyller
#       Creation time:       Fri Apr 21 19:21:09 2023


#       File generated by GOLD software.
#

@<TRIPOS>MOLECULE
EN300-77042_i001|benzaldehydes|mol2|798|dock12
    27    27     1
SMALL
USER_CHARGES


@<TRIPOS>ATOM
      1 C1          32.8941  34.2709  37.7675 C.3            1 <1>                0.0000
      2 O2          31.6142  34.7023  38.2343 O.3            1 <1>                0.0000
      3 C3          31.1878  35.9267  37.8238 C.ar           1 <1>                0.0000
      4 C4          31.6499  36.4556  36.6355 C.ar           1 <1>                0.0000
      5 C5          31.2081  37.7165  36.2159 C.ar           1 <1>                0.0000
      6 C6          31.6954  38.2846  34.9523 C.2            1 <1>                0.0000
      7 O7          32.4871  37.6646  34.2739 O.2            1 <1>                0.0000
      8 C8          30.3003  38.4337  37.0043 C.ar           1 <1>                0.0000
      9 C9          29.8447  37.8984  38.1881 C.ar           1 <1>                0.0000
     10 C10         30.2793  36.6453  38.6010 C.ar           1 <1>                0.0000
     11 O11         29.8266  36.1229  39.7692 O.3            1 <1>                0.0000
     12 C12         28.7901  36.8403  40.4422 C.3            1 <1>                0.0000
     13 C13         27.4965  36.0244  40.4028 C.3            1 <1>                0.0000
     14 F14         27.4306  35.1999  41.5311 F              1 <1>                0.0000
     15 F15         26.3985  36.8911  40.3938 F              1 <1>                0.0000
     16 N16         29.8307  39.7670  36.5654 N.pl3          1 <1>                0.0000
     17 O17         28.6604  40.0757  36.7016 O.2            1 <1>                0.0000
     18 O18         30.6146  40.5555  36.0681 O.2            1 <1>                0.0000
     19 H19         33.6581  34.9738  38.1001 H              1 <1>                0.0000
     20 H20         33.1123  33.2810  38.1679 H              1 <1>                0.0000
     21 H21         32.8884  34.2291  36.6783 H              1 <1>                0.0000
     22 H22         32.3505  35.8985  36.0310 H              1 <1>                0.0000
     23 H23         31.3489  39.2545  34.6272 H              1 <1>                0.0000
     24 H24         29.1446  38.4528  38.7956 H              1 <1>                0.0000
     25 H25         29.0805  37.0113  41.4787 H              1 <1>                0.0000
     26 H26         28.6307  37.7982  39.9469 H              1 <1>                0.0000
     27 H27         27.4817  35.4099  39.5025 H              1 <1>                0.0000
@<TRIPOS>BOND
    1    1    2 1     
    2    1   19 1     
    3    1   20 1     
    4    1   21 1     
    5    2    3 1     
    6    3    4 ar    
    7    3   10 ar    
    8    4    5 ar    
    9    4   22 1     
   10    5    6 1     
   11    5    8 ar    
   12    6    7 2     
   13    6   23 1     
   14    8    9 ar    
   15    8   16 1     
   16    9   10 ar    
   17    9   24 1     
   18   10   11 1     
   19   11   12 1     
   20   12   13 1     
   21   12   25 1     
   22   12   26 1     
   23   13   14 1     
   24   13   15 1     
   25   13   27 1     
   26   16   17 2     
   27   16   18 2     
@<TRIPOS>SUBSTRUCTURE
      1 ****           1
@<TRIPOS>COMMENT
> <Gold.Version>
2022.2.0

> <Gold.Id.Protein>
1qkm|1qkm_protein|mol2

> <Gold.Protein.RotatedTorsions>
[  496  491  490  487 ] final    5.57 input  -89.99 | X-H torsion

> <Gold.Protein.ActiveResidues>
 MET295  LEU298  THR299  LEU301  ALA302  GLU305  TRP335  MET336  LEU339  MET340 
 GLY342  LEU343  ARG346  PHE356  ILE373  ILE376  PHE377  LEU380  LYS471  GLY472 
 MET473  HIS475  LEU476  LEU477  ASN478  MET479  VAL484  VAL487 

> <Gold.Protein.RotatedAtoms>
   36.2653   34.1327   42.2787 H   0  0  0  0  0  0  0  0  0  0  0  0  # atno 496  bound_to 491 

> <Gold.Score>
     Score     S(PLP)   S(hbond)     S(cho)   S(metal)  DE(clash)   DE(tors)     intcor
     43.64     -46.05       0.00       0.00       0.00       1.65       1.80       2.83

> <Gold.PLP.Fitness>
43.6390

> <Gold.PLP.PLP>
-46.0510

> <Gold.PLP.part.hbond>
0.0000

> <Gold.PLP.part.metal>
0.0000

> <Gold.PLP.part.buried>
-0.8595

> <Gold.PLP.part.nonpolar>
-45.2501

> <Gold.PLP.part.repulsive>
0.3232

> <Gold.PLP.ligand.clash>
1.6525

> <Gold.PLP.ligand.torsion>
1.7969

> <Gold.PLP.Chemscore.Hbond>
0.0000

> <Gold.PLP.Chemscore.CHOScore>
0.0000

> <Gold.PLP.Chemscore.Metal>
0.0000

> <Gold.PLP.Chemscore.Internal.Correction>
2.8342

