#       Name:                EN300-77042_i001
#       Creating user name   aseyller
#       Creation time:       Fri Apr 21 19:21:11 2023


#       File generated by GOLD software.
#

@<TRIPOS>MOLECULE
EN300-77042_i001|benzaldehydes|mol2|798|dock13
    27    27     1
SMALL
USER_CHARGES


@<TRIPOS>ATOM
      1 C1          31.8230  33.0856  38.4645 C.3            1 <1>                0.0000
      2 O2          31.0160  34.2042  38.8380 O.3            1 <1>                0.0000
      3 C3          30.9214  35.2236  37.9429 C.ar           1 <1>                0.0000
      4 C4          31.9205  35.4180  37.0105 C.ar           1 <1>                0.0000
      5 C5          31.8194  36.4686  36.0901 C.ar           1 <1>                0.0000
      6 C6          32.8786  36.6806  35.0951 C.2            1 <1>                0.0000
      7 O7          33.0543  37.7836  34.6219 O.2            1 <1>                0.0000
      8 C8          30.7053  37.3160  36.1208 C.ar           1 <1>                0.0000
      9 C9          29.7135  37.1146  37.0543 C.ar           1 <1>                0.0000
     10 C10         29.8121  36.0690  37.9635 C.ar           1 <1>                0.0000
     11 O11         28.8310  35.8756  38.8816 O.3            1 <1>                0.0000
     12 C12         27.5081  36.2676  38.5096 C.3            1 <1>                0.0000
     13 C13         26.6281  36.3423  39.7589 C.3            1 <1>                0.0000
     14 F14         27.4346  36.5260  40.8872 F              1 <1>                0.0000
     15 F15         25.7404  37.4170  39.6404 F              1 <1>                0.0000
     16 N16         30.5939  38.4281  35.1504 N.pl3          1 <1>                0.0000
     17 O17         30.6689  38.2036  33.9557 O.2            1 <1>                0.0000
     18 O18         30.4272  39.5677  35.5466 O.2            1 <1>                0.0000
     19 H19         32.8464  33.4180  38.2900 H              1 <1>                0.0000
     20 H20         31.8128  32.3465  39.2655 H              1 <1>                0.0000
     21 H21         31.4256  32.6391  37.5530 H              1 <1>                0.0000
     22 H22         32.7781  34.7618  36.9911 H              1 <1>                0.0000
     23 H23         33.5011  35.8543  34.7848 H              1 <1>                0.0000
     24 H24         28.8547  37.7691  37.0773 H              1 <1>                0.0000
     25 H25         27.5405  37.2453  38.0290 H              1 <1>                0.0000
     26 H26         27.0936  35.5355  37.8165 H              1 <1>                0.0000
     27 H27         26.0644  35.4151  39.8624 H              1 <1>                0.0000
@<TRIPOS>BOND
    1    1    2 1     
    2    1   19 1     
    3    1   20 1     
    4    1   21 1     
    5    2    3 1     
    6    3    4 ar    
    7    3   10 ar    
    8    4    5 ar    
    9    4   22 1     
   10    5    6 1     
   11    5    8 ar    
   12    6    7 2     
   13    6   23 1     
   14    8    9 ar    
   15    8   16 1     
   16    9   10 ar    
   17    9   24 1     
   18   10   11 1     
   19   11   12 1     
   20   12   13 1     
   21   12   25 1     
   22   12   26 1     
   23   13   14 1     
   24   13   15 1     
   25   13   27 1     
   26   16   17 2     
   27   16   18 2     
@<TRIPOS>SUBSTRUCTURE
      1 ****           1
@<TRIPOS>COMMENT
> <Gold.Version>
2022.2.0

> <Gold.Id.Protein>
1qkm|1qkm_protein|mol2

> <Gold.Protein.RotatedTorsions>
[  496  491  490  487 ] final  111.58 input  -89.99 | X-H torsion

> <Gold.Protein.ActiveResidues>
 MET295  LEU298  THR299  LEU301  ALA302  GLU305  TRP335  MET336  LEU339  MET340 
 GLY342  LEU343  ARG346  PHE356  ILE373  ILE376  PHE377  LEU380  LYS471  GLY472 
 MET473  HIS475  LEU476  LEU477  ASN478  MET479  VAL484  VAL487 

> <Gold.Protein.RotatedAtoms>
   37.0126   32.9408   41.7394 H   0  0  0  0  0  0  0  0  0  0  0  0  # atno 496  bound_to 491 

> <Gold.Score>
     Score     S(PLP)   S(hbond)     S(cho)   S(metal)  DE(clash)   DE(tors)     intcor
     45.91     -47.92       0.00       0.00       0.00       0.00       2.43       2.83

> <Gold.PLP.Fitness>
45.9060

> <Gold.PLP.PLP>
-47.9225

> <Gold.PLP.part.hbond>
0.0000

> <Gold.PLP.part.metal>
0.0000

> <Gold.PLP.part.buried>
-4.9325

> <Gold.PLP.part.nonpolar>
-46.6335

> <Gold.PLP.part.repulsive>
0.5552

> <Gold.PLP.ligand.clash>
0.0000

> <Gold.PLP.ligand.torsion>
2.4254

> <Gold.PLP.Chemscore.Hbond>
0.0000

> <Gold.PLP.Chemscore.CHOScore>
0.0000

> <Gold.PLP.Chemscore.Metal>
0.0000

> <Gold.PLP.Chemscore.Internal.Correction>
2.8342

