#       Name:                EN300-77042_i001
#       Creating user name   aseyller
#       Creation time:       Fri Apr 21 19:21:02 2023


#       File generated by GOLD software.
#

@<TRIPOS>MOLECULE
EN300-77042_i001|benzaldehydes|mol2|798|dock7
    27    27     1
SMALL
USER_CHARGES


@<TRIPOS>ATOM
      1 C1          28.5343  40.2518  36.4667 C.3            1 <1>                0.0000
      2 O2          28.2840  38.9624  37.0297 O.3            1 <1>                0.0000
      3 C3          29.3303  38.0949  37.0752 C.ar           1 <1>                0.0000
      4 C4          30.3259  38.1640  36.1215 C.ar           1 <1>                0.0000
      5 C5          31.4020  37.2692  36.1720 C.ar           1 <1>                0.0000
      6 C6          32.4648  37.3378  35.1607 C.2            1 <1>                0.0000
      7 O7          32.4072  38.1651  34.2755 O.2            1 <1>                0.0000
      8 C8          31.4620  36.3095  37.1895 C.ar           1 <1>                0.0000
      9 C9          30.4645  36.2479  38.1365 C.ar           1 <1>                0.0000
     10 C10         29.4001  37.1392  38.0888 C.ar           1 <1>                0.0000
     11 O11         28.4197  37.0734  39.0254 O.3            1 <1>                0.0000
     12 C12         28.1439  35.7886  39.5866 C.3            1 <1>                0.0000
     13 C13         27.5769  35.9592  40.9973 C.3            1 <1>                0.0000
     14 F14         28.5062  36.6357  41.7948 F              1 <1>                0.0000
     15 F15         26.3898  36.6970  40.9368 F              1 <1>                0.0000
     16 N16         32.5970  35.3612  37.2469 N.pl3          1 <1>                0.0000
     17 O17         33.7281  35.7507  37.0178 O.2            1 <1>                0.0000
     18 O18         32.4001  34.1915  37.5234 O.2            1 <1>                0.0000
     19 H19         28.8667  40.1394  35.4346 H              1 <1>                0.0000
     20 H20         27.6189  40.8430  36.4912 H              1 <1>                0.0000
     21 H21         29.3084  40.7566  37.0447 H              1 <1>                0.0000
     22 H22         30.2749  38.9060  35.3383 H              1 <1>                0.0000
     23 H23         33.2975  36.6515  35.2052 H              1 <1>                0.0000
     24 H24         30.5117  35.5068  38.9209 H              1 <1>                0.0000
     25 H25         27.4167  35.2683  38.9632 H              1 <1>                0.0000
     26 H26         29.0647  35.2070  39.6330 H              1 <1>                0.0000
     27 H27         27.3738  34.9788  41.4284 H              1 <1>                0.0000
@<TRIPOS>BOND
    1    1    2 1     
    2    1   19 1     
    3    1   20 1     
    4    1   21 1     
    5    2    3 1     
    6    3    4 ar    
    7    3   10 ar    
    8    4    5 ar    
    9    4   22 1     
   10    5    6 1     
   11    5    8 ar    
   12    6    7 2     
   13    6   23 1     
   14    8    9 ar    
   15    8   16 1     
   16    9   10 ar    
   17    9   24 1     
   18   10   11 1     
   19   11   12 1     
   20   12   13 1     
   21   12   25 1     
   22   12   26 1     
   23   13   14 1     
   24   13   15 1     
   25   13   27 1     
   26   16   17 2     
   27   16   18 2     
@<TRIPOS>SUBSTRUCTURE
      1 ****           1
@<TRIPOS>COMMENT
> <Gold.Version>
2022.2.0

> <Gold.Id.Protein>
1qkm|1qkm_protein|mol2

> <Gold.Protein.RotatedTorsions>
[  496  491  490  487 ] final  -49.86 input  -89.99 | X-H torsion

> <Gold.Protein.ActiveResidues>
 MET295  LEU298  THR299  LEU301  ALA302  GLU305  TRP335  MET336  LEU339  MET340 
 GLY342  LEU343  ARG346  PHE356  ILE373  ILE376  PHE377  LEU380  LYS471  GLY472 
 MET473  HIS475  LEU476  LEU477  ASN478  MET479  VAL484  VAL487 

> <Gold.Protein.RotatedAtoms>
   36.4237   34.7036   41.6316 H   0  0  0  0  0  0  0  0  0  0  0  0  # atno 496  bound_to 491 

> <Gold.Score>
     Score     S(PLP)   S(hbond)     S(cho)   S(metal)  DE(clash)   DE(tors)     intcor
     48.73     -48.96       0.00       0.00       0.00       0.00       1.55       2.89

> <Gold.PLP.Fitness>
48.7344

> <Gold.PLP.PLP>
-48.9558

> <Gold.PLP.part.hbond>
0.0000

> <Gold.PLP.part.metal>
0.0000

> <Gold.PLP.part.buried>
-5.7015

> <Gold.PLP.part.nonpolar>
-44.3379

> <Gold.PLP.part.repulsive>
0.1636

> <Gold.PLP.ligand.clash>
0.0000

> <Gold.PLP.ligand.torsion>
1.5541

> <Gold.PLP.Chemscore.Hbond>
0.0000

> <Gold.PLP.Chemscore.CHOScore>
0.0000

> <Gold.PLP.Chemscore.Metal>
0.0000

> <Gold.PLP.Chemscore.Internal.Correction>
2.8868

