#       Name:                EN300-77042_i001
#       Creating user name   aseyller
#       Creation time:       Fri Apr 21 19:20:51 2023


#       File generated by GOLD software.
#

@<TRIPOS>MOLECULE
EN300-77042_i001
    27    27     1
SMALL
USER_CHARGES


@<TRIPOS>ATOM
      1 C1          -0.0209   3.5750  -0.0584 C.3            1 <1>                0.0000
      2 O2          -0.7173   2.3274  -0.0313 O.3            1 <1>                0.0000
      3 C3           0.0399   1.1978  -0.0209 C.ar           1 <1>                0.0000
      4 C4           1.4171   1.2901  -0.0365 C.ar           1 <1>                0.0000
      5 C5           2.1934   0.1246  -0.0253 C.ar           1 <1>                0.0000
      6 C6           3.6591   0.2159  -0.0412 C.2            1 <1>                0.0000
      7 O7           4.2002   1.2987   0.0368 O.2            1 <1>                0.0000
      8 C8           1.5682  -1.1278   0.0016 C.ar           1 <1>                0.0000
      9 C9           0.1940  -1.2104   0.0170 C.ar           1 <1>                0.0000
     10 C10         -0.5753  -0.0537   0.0112 C.ar           1 <1>                0.0000
     11 O11         -1.9298  -0.1416   0.0264 O.3            1 <1>                0.0000
     12 C12         -2.4945  -1.4541   0.0480 C.3            1 <1>                0.0000
     13 C13         -4.0210  -1.3524   0.0628 C.3            1 <1>                0.0000
     14 F14         -4.4306  -0.6498   1.2011 F              1 <1>                0.0000
     15 F15         -4.4545  -0.6771  -1.0831 F              1 <1>                0.0000
     16 N16          2.3843  -2.3626   0.0131 N.pl3          1 <1>                0.0000
     17 O17          2.0191  -3.3398  -0.6155 O.2            1 <1>                0.0000
     18 O18          3.4211  -2.4015   0.6511 O.2            1 <1>                0.0000
     19 H19          0.5958   3.6275  -0.9557 H              1 <1>                0.0000
     20 H20         -0.7411   4.3931  -0.0642 H              1 <1>                0.0000
     21 H21          0.6139   3.6560   0.8240 H              1 <1>                0.0000
     22 H22          1.8946   2.2586  -0.0576 H              1 <1>                0.0000
     23 H23          4.2551  -0.6811  -0.1224 H              1 <1>                0.0000
     24 H24         -0.2872  -2.1771   0.0374 H              1 <1>                0.0000
     25 H25         -2.1754  -2.0016  -0.8388 H              1 <1>                0.0000
     26 H26         -2.1568  -1.9803   0.9409 H              1 <1>                0.0000
     27 H27         -4.4518  -2.3536   0.0793 H              1 <1>                0.0000
@<TRIPOS>BOND
    1    1    2 1     
    2    1   19 1     
    3    1   20 1     
    4    1   21 1     
    5    2    3 1     
    6    3    4 ar    
    7    3   10 ar    
    8    4    5 ar    
    9    4   22 1     
   10    5    6 1     
   11    5    8 ar    
   12    6    7 2     
   13    6   23 1     
   14    8    9 ar    
   15    8   16 1     
   16    9   10 ar    
   17    9   24 1     
   18   10   11 1     
   19   11   12 1     
   20   12   13 1     
   21   12   25 1     
   22   12   26 1     
   23   13   14 1     
   24   13   15 1     
   25   13   27 1     
   26   16   17 2     
   27   16   18 2     
@<TRIPOS>SUBSTRUCTURE
      1 ****           1
