#       Name:                EN300-719569_i001
#       Creating user name   fsindt
#       Creation time:       Mon Feb 27 17:08:16 2023


#       File generated by GOLD software.
#

@<TRIPOS>MOLECULE
EN300-719569_i001|acide_3|mol2|26|dock1
    40    40     1
SMALL
USER_CHARGES


@<TRIPOS>ATOM
      1 N1          -2.8211  -9.4949   9.8452 N.am           1 <1>                0.0000
      2 C2          -1.8131 -10.2909  10.2536 C.2            1 <1>                0.0000
      3 O3          -1.0216  -9.8909  11.0809 O.2            1 <1>                0.0000
      4 C4          -1.6694 -11.6780   9.6822 C.3            1 <1>                0.0000
      5 C5          -0.5186 -12.4019  10.3840 C.3            1 <1>                0.0000
      6 C6          -0.1027 -13.6201   9.5569 C.3            1 <1>                0.0000
      7 N7           0.8871 -14.4016  10.3023 N.am           1 <1>                0.0000
      8 C8           0.5956 -14.8560  11.5373 C.2            1 <1>                0.0000
      9 O9          -0.4860 -14.6180  12.0314 O.2            1 <1>                0.0000
     10 C10          1.6139 -15.6599  12.3041 C.3            1 <1>                0.0000
     11 C11          1.0240 -17.0270  12.6564 C.3            1 <1>                0.0000
     12 C12          2.0823 -17.8704  13.3703 C.3            1 <1>                0.0000
     13 C13          1.6281 -19.3063  13.4238 C.ar           1 <1>                0.0000
     14 C14          1.5158 -19.9509  14.6414 C.ar           1 <1>                0.0000
     15 C15          1.0992 -21.2681  14.6905 C.ar           1 <1>                0.0000
     16 C16          0.7944 -21.9405  13.5218 C.ar           1 <1>                0.0000
     17 C17          0.9058 -21.2956  12.3041 C.ar           1 <1>                0.0000
     18 C18          1.3182 -19.9772  12.2555 C.ar           1 <1>                0.0000
     19 C19          0.4981 -13.1609   8.2534 C.2            1 <1>                0.0000
     20 O20          0.6100 -11.9695   8.0199 O.co2          1 <1>                0.0000
     21 O21          0.8723 -13.9808   7.4322 O.co2          1 <1>               -1.0000
     22 H22         -2.5952 -12.2322   9.8366 H              1 <1>                0.0000
     23 H23         -1.4596 -11.6112   8.6147 H              1 <1>                0.0000
     24 H24          0.3293 -11.7244  10.4846 H              1 <1>                0.0000
     25 H25         -0.8429 -12.7274  11.3724 H              1 <1>                0.0000
     26 H26         -0.9774 -14.2386   9.3558 H              1 <1>                0.0000
     27 H27          2.5055 -15.7957  11.6920 H              1 <1>                0.0000
     28 H28          1.8790 -15.1316  13.2200 H              1 <1>                0.0000
     29 H29          0.1632 -16.8934  13.3115 H              1 <1>                0.0000
     30 H30          0.7108 -17.5337  11.7436 H              1 <1>                0.0000
     31 H31          3.0247 -17.8075  12.8264 H              1 <1>                0.0000
     32 H32          2.2222 -17.4956  14.3843 H              1 <1>                0.0000
     33 H33          1.7539 -19.4256  15.5545 H              1 <1>                0.0000
     34 H34          1.0121 -21.7719  15.6417 H              1 <1>                0.0000
     35 H35          0.4695 -22.9698  13.5600 H              1 <1>                0.0000
     36 H36          0.6680 -21.8211  11.3910 H              1 <1>                0.0000
     37 H37          1.4053 -19.4733  11.3041 H              1 <1>                0.0000
     38 H38         -2.9113  -8.6007  10.2101 H              1 <1>                0.0000
     39 H39         -3.4541  -9.8148   9.1835 H              1 <1>                0.0000
     40 H40          1.7523 -14.5919   9.9072 H              1 <1>                0.0000
@<TRIPOS>BOND
    1    1    2 am    
    2    1   38 1     
    3    1   39 1     
    4    2    3 2     
    5    2    4 1     
    6    4    5 1     
    7    4   22 1     
    8    4   23 1     
    9    5    6 1     
   10    5   24 1     
   11    5   25 1     
   12    6    7 1     
   13    6   19 1     
   14    6   26 1     
   15    7    8 am    
   16    7   40 1     
   17    8    9 2     
   18    8   10 1     
   19   10   11 1     
   20   10   27 1     
   21   10   28 1     
   22   11   12 1     
   23   11   29 1     
   24   11   30 1     
   25   12   13 1     
   26   12   31 1     
   27   12   32 1     
   28   13   14 ar    
   29   13   18 ar    
   30   14   15 ar    
   31   14   33 1     
   32   15   16 ar    
   33   15   34 1     
   34   16   17 ar    
   35   16   35 1     
   36   17   18 ar    
   37   17   36 1     
   38   18   37 1     
   39   19   20 ar    
   40   19   21 ar    
@<TRIPOS>SUBSTRUCTURE
      1 ****           1
@<TRIPOS>SET
DONOR_HYDROGENS      STATIC     ATOMS    <user>   **** ""
3 38 39 40
ATOM$RED        STATIC     ATOMS    COLORGROUP SYSTEM
3 38 39 40
@<TRIPOS>COMMENT
> <Gold.Version>
2022.2.0

> <Gold.Id.Protein>
3pbl|protein|mol2

> <Gold.Protein.RotatedTorsions>
[ 1303 1298 1297 1294 ] final   -7.61 input  179.99 | X-H torsion
[ 2461 2456 2455 2452 ] final  -50.08 input   30.03 | X-H torsion
[ 2515 2510 2509 2506 ] final   18.32 input  -89.99 | X-H torsion
[ 3721 3712 3711 3710 ] final   78.48 input -179.91 | X-H torsion
[ 3841 3832 3831 3830 ] final  -40.59 input -179.91 | X-H torsion
[ 3767 3762 3761 3758 ] final  -37.89 input  -89.99 | X-H torsion
[ 2472 2467 2466 2463 ] final -103.70 input  -89.97 | X-H torsion

> <Gold.Protein.ActiveResidues>
 VAL82   VAL86   LEU89   PHE106  VAL107  ASP110  VAL111  MET112  CYS114  THR115 
 CYS181  SER182  ILE183  PHE188  VAL189  ILE190  SER192  SER193  SER196  TRP342 
 PHE345  PHE346  HIS349  VAL350  TYR365  THR369  GLY372  TYR373 

> <Gold.Protein.RotatedAtoms>
    3.3537   -9.7693    3.9847 H   0  0  0  0  0  0  0  0  0  0  0  0  # atno 1303 bound_to 1298
    0.4300   -8.4423    7.2711 H   0  0  0  0  0  0  0  0  0  0  0  0  # atno 2461 bound_to 2456
   -4.2419   -5.3986    9.3879 H   0  0  0  0  0  0  0  0  0  0  0  0  # atno 2472 bound_to 2467
    2.4133   -7.4764    4.8326 H   0  0  0  0  0  0  0  0  0  0  0  0  # atno 2515 bound_to 2510
   -2.7029  -17.7431   13.1895 H   0  0  0  0  0  0  0  0  0  0  0  0  # atno 3721 bound_to 3712
   -5.5106  -22.2646   10.5150 H   0  0  0  0  0  0  0  0  0  0  0  0  # atno 3767 bound_to 3762
    1.5615  -20.0091    9.2394 H   0  0  0  0  0  0  0  0  0  0  0  0  # atno 3841 bound_to 3832
    4.3361   -8.4775    4.1655 LP  0  0  0  0  0  0  0  0  0  0  0  0  # atno 4297 bound_to 1298
    4.6727   -9.8744    4.9415 LP  0  0  0  0  0  0  0  0  0  0  0  0  # atno 4298 bound_to 1298
    1.2940   -9.2604    8.3898 LP  0  0  0  0  0  0  0  0  0  0  0  0  # atno 4299 bound_to 2456
    2.0135   -8.1054    7.4871 LP  0  0  0  0  0  0  0  0  0  0  0  0  # atno 4300 bound_to 2456
    2.7909   -9.0626    4.7476 LP  0  0  0  0  0  0  0  0  0  0  0  0  # atno 4301 bound_to 2510
    2.0925   -8.4605    6.0953 LP  0  0  0  0  0  0  0  0  0  0  0  0  # atno 4302 bound_to 2510
   -2.8407  -17.6811   14.7879 LP  0  0  0  0  0  0  0  0  0  0  0  0  # atno 4306 bound_to 3712
   -3.5664  -16.5604   13.8477 LP  0  0  0  0  0  0  0  0  0  0  0  0  # atno 4307 bound_to 3712
    2.7329  -19.9440    8.1440 LP  0  0  0  0  0  0  0  0  0  0  0  0  # atno 4314 bound_to 3832
    2.6927  -21.1478    9.2467 LP  0  0  0  0  0  0  0  0  0  0  0  0  # atno 4315 bound_to 3832
   -4.3346  -22.2747   11.6481 LP  0  0  0  0  0  0  0  0  0  0  0  0  # atno 4318 bound_to 3762
   -4.2825  -23.3357   10.4079 LP  0  0  0  0  0  0  0  0  0  0  0  0  # atno 4319 bound_to 3762
   -5.4976   -5.1690    8.3696 LP  0  0  0  0  0  0  0  0  0  0  0  0  # atno 4320 bound_to 2467
   -3.9774   -4.8259    7.8818 LP  0  0  0  0  0  0  0  0  0  0  0  0  # atno 4321 bound_to 2467

> <Gold.Score>
     Score     S(PLP)   S(hbond)     S(cho)   S(metal)  DE(clash)   DE(tors)     intcor
     54.73     -51.96       1.00       0.00       0.00       0.00       0.18       0.13

> <Gold.PLP.Fitness>
54.7273

> <Gold.PLP.PLP>
-51.9613

> <Gold.PLP.part.hbond>
-1.0000

> <Gold.PLP.part.metal>
0.0000

> <Gold.PLP.part.buried>
-9.1138

> <Gold.PLP.part.nonpolar>
-43.2536

> <Gold.PLP.part.repulsive>
0.3022

> <Gold.PLP.ligand.clash>
0.0000

> <Gold.PLP.ligand.torsion>
0.1839

> <Gold.PLP.Chemscore.Hbond>
1.0000

> <Gold.PLP.Chemscore.CHOScore>
0.0000

> <Gold.PLP.Chemscore.Metal>
0.0000

> <Gold.Chemscore.Hbonds>
donor molecule, donor type, donor heavy atom, donor atom, acceptor molecule, acceptor atom, score
      L1  H     1    38       P1  2398  1.00

> <Gold.PLP.Chemscore.Internal.Correction>
0.1337

