#       Name:                EN300-719569_i001
#       Creating user name   fsindt
#       Creation time:       Mon Feb 27 17:08:41 2023


#       File generated by GOLD software.
#

@<TRIPOS>MOLECULE
EN300-719569_i001|acide_3|mol2|26|dock19
    40    40     1
SMALL
USER_CHARGES


@<TRIPOS>ATOM
      1 N1          -3.0628  -9.4731   9.8938 N.am           1 <1>                0.0000
      2 C2          -1.9886 -10.1723  10.3106 C.2            1 <1>                0.0000
      3 O3          -1.0510  -9.5966  10.8210 O.2            1 <1>                0.0000
      4 C4          -1.9523 -11.6695  10.1424 C.3            1 <1>                0.0000
      5 C5          -0.7071 -12.0630   9.3451 C.3            1 <1>                0.0000
      6 C6          -0.4031 -13.5451   9.5732 C.3            1 <1>                0.0000
      7 N7          -0.2329 -13.7938  11.0068 N.am           1 <1>                0.0000
      8 C8           0.0132 -15.0428  11.4495 C.2            1 <1>                0.0000
      9 O9           0.0940 -15.9607  10.6610 O.2            1 <1>                0.0000
     10 C10          0.1882 -15.2986  12.9243 C.3            1 <1>                0.0000
     11 C11          0.8890 -16.6432  13.1290 C.3            1 <1>                0.0000
     12 C12         -0.0664 -17.7784  12.7553 C.3            1 <1>                0.0000
     13 C13          0.4523 -19.0769  13.3173 C.ar           1 <1>                0.0000
     14 C14          0.7789 -20.1166  12.4670 C.ar           1 <1>                0.0000
     15 C15          1.2546 -21.3078  12.9825 C.ar           1 <1>                0.0000
     16 C16          1.4041 -21.4590  14.3484 C.ar           1 <1>                0.0000
     17 C17          1.0783 -20.4189  15.1987 C.ar           1 <1>                0.0000
     18 C18          0.6067 -19.2263  14.6829 C.ar           1 <1>                0.0000
     19 C19          0.8634 -13.9158   8.8453 C.2            1 <1>                0.0000
     20 O20          1.7997 -14.3993   9.4585 O.co2          1 <1>                0.0000
     21 O21          0.9517 -13.7321   7.6432 O.co2          1 <1>               -1.0000
     22 H22         -1.9211 -12.1446  11.1229 H              1 <1>                0.0000
     23 H23         -2.8443 -11.9967   9.6082 H              1 <1>                0.0000
     24 H24         -0.8845 -11.8876   8.2841 H              1 <1>                0.0000
     25 H25          0.1407 -11.4632   9.6759 H              1 <1>                0.0000
     26 H26         -1.2289 -14.1478   9.1952 H              1 <1>                0.0000
     27 H27          0.7922 -14.5037  13.3618 H              1 <1>                0.0000
     28 H28         -0.7886 -15.3207  13.4076 H              1 <1>                0.0000
     29 H29          1.7753 -16.6911  12.4962 H              1 <1>                0.0000
     30 H30          1.1827 -16.7446  14.1737 H              1 <1>                0.0000
     31 H31         -1.0540 -17.5726  13.1679 H              1 <1>                0.0000
     32 H32         -0.1344 -17.8536  11.6700 H              1 <1>                0.0000
     33 H33          0.6621 -19.9985  11.3998 H              1 <1>                0.0000
     34 H34          1.5091 -22.1203  12.3183 H              1 <1>                0.0000
     35 H35          1.7751 -22.3898  14.7513 H              1 <1>                0.0000
     36 H36          1.1948 -20.5372  16.2659 H              1 <1>                0.0000
     37 H37          0.3522 -18.4137  15.3472 H              1 <1>                0.0000
     38 H38         -3.0845  -8.5091   9.9986 H              1 <1>                0.0000
     39 H39         -3.8126  -9.9336   9.4855 H              1 <1>                0.0000
     40 H40         -0.2975 -13.0596  11.6374 H              1 <1>                0.0000
@<TRIPOS>BOND
    1    1    2 am    
    2    1   38 1     
    3    1   39 1     
    4    2    3 2     
    5    2    4 1     
    6    4    5 1     
    7    4   22 1     
    8    4   23 1     
    9    5    6 1     
   10    5   24 1     
   11    5   25 1     
   12    6    7 1     
   13    6   19 1     
   14    6   26 1     
   15    7    8 am    
   16    7   40 1     
   17    8    9 2     
   18    8   10 1     
   19   10   11 1     
   20   10   27 1     
   21   10   28 1     
   22   11   12 1     
   23   11   29 1     
   24   11   30 1     
   25   12   13 1     
   26   12   31 1     
   27   12   32 1     
   28   13   14 ar    
   29   13   18 ar    
   30   14   15 ar    
   31   14   33 1     
   32   15   16 ar    
   33   15   34 1     
   34   16   17 ar    
   35   16   35 1     
   36   17   18 ar    
   37   17   36 1     
   38   18   37 1     
   39   19   20 ar    
   40   19   21 ar    
@<TRIPOS>SUBSTRUCTURE
      1 ****           1
@<TRIPOS>SET
DONOR_HYDROGENS      STATIC     ATOMS    <user>   **** ""
3 38 39 40
ATOM$RED        STATIC     ATOMS    COLORGROUP SYSTEM
3 38 39 40
@<TRIPOS>COMMENT
> <Gold.Version>
2022.2.0

> <Gold.Id.Protein>
3pbl|protein|mol2

> <Gold.Protein.RotatedTorsions>
[ 1303 1298 1297 1294 ] final  101.80 input  179.99 | X-H torsion
[ 2461 2456 2455 2452 ] final  -12.66 input   30.03 | X-H torsion
[ 2515 2510 2509 2506 ] final  -30.20 input  -89.99 | X-H torsion
[ 3721 3712 3711 3710 ] final  143.61 input -179.91 | X-H torsion
[ 3841 3832 3831 3830 ] final  110.95 input -179.91 | X-H torsion
[ 3767 3762 3761 3758 ] final  -41.98 input  -89.99 | X-H torsion
[ 2472 2467 2466 2463 ] final -101.10 input  -89.97 | X-H torsion

> <Gold.Protein.ActiveResidues>
 VAL82   VAL86   LEU89   PHE106  VAL107  ASP110  VAL111  MET112  CYS114  THR115 
 CYS181  SER182  ILE183  PHE188  VAL189  ILE190  SER192  SER193  SER196  TRP342 
 PHE345  PHE346  HIS349  VAL350  TYR365  THR369  GLY372  TYR373 

> <Gold.Protein.RotatedAtoms>
    4.5587  -10.0027    4.9127 H   0  0  0  0  0  0  0  0  0  0  0  0  # atno 1303 bound_to 1298
    0.8504   -8.0700    7.0458 H   0  0  0  0  0  0  0  0  0  0  0  0  # atno 2461 bound_to 2456
   -4.2024   -5.3894    9.3743 H   0  0  0  0  0  0  0  0  0  0  0  0  # atno 2472 bound_to 2467
    2.7217   -8.0260    4.3824 H   0  0  0  0  0  0  0  0  0  0  0  0  # atno 2515 bound_to 2510
   -3.1689  -16.9367   13.1455 H   0  0  0  0  0  0  0  0  0  0  0  0  # atno 3721 bound_to 3712
   -5.5107  -22.2218   10.5670 H   0  0  0  0  0  0  0  0  0  0  0  0  # atno 3767 bound_to 3762
    3.0280  -20.8004    9.0398 H   0  0  0  0  0  0  0  0  0  0  0  0  # atno 3841 bound_to 3832
    3.3311   -9.6145    3.9083 LP  0  0  0  0  0  0  0  0  0  0  0  0  # atno 4297 bound_to 1298
    4.4722   -8.5039    4.2704 LP  0  0  0  0  0  0  0  0  0  0  0  0  # atno 4298 bound_to 1298
    0.7287   -9.2433    8.1754 LP  0  0  0  0  0  0  0  0  0  0  0  0  # atno 4299 bound_to 2456
    2.1585   -8.4947    7.9267 LP  0  0  0  0  0  0  0  0  0  0  0  0  # atno 4300 bound_to 2456
    2.5311   -9.2420    5.4551 LP  0  0  0  0  0  0  0  0  0  0  0  0  # atno 4301 bound_to 2510
    2.0438   -7.7312    5.8382 LP  0  0  0  0  0  0  0  0  0  0  0  0  # atno 4302 bound_to 2510
   -2.6097  -18.2163   13.9379 LP  0  0  0  0  0  0  0  0  0  0  0  0  # atno 4306 bound_to 3712
   -3.2595  -16.9564   14.7484 LP  0  0  0  0  0  0  0  0  0  0  0  0  # atno 4307 bound_to 3712
    1.4950  -20.5015    9.4097 LP  0  0  0  0  0  0  0  0  0  0  0  0  # atno 4314 bound_to 3832
    2.2366  -19.6762    8.2116 LP  0  0  0  0  0  0  0  0  0  0  0  0  # atno 4315 bound_to 3832
   -4.2849  -22.3196   11.6416 LP  0  0  0  0  0  0  0  0  0  0  0  0  # atno 4318 bound_to 3762
   -4.3321  -23.3335   10.3624 LP  0  0  0  0  0  0  0  0  0  0  0  0  # atno 4319 bound_to 3762
   -5.5035   -5.1839    8.4093 LP  0  0  0  0  0  0  0  0  0  0  0  0  # atno 4320 bound_to 2467
   -4.0109   -4.8203    7.8558 LP  0  0  0  0  0  0  0  0  0  0  0  0  # atno 4321 bound_to 2467

> <Gold.Score>
     Score     S(PLP)   S(hbond)     S(cho)   S(metal)  DE(clash)   DE(tors)     intcor
     51.73     -49.56       1.00       0.00       0.00       0.00       0.47       0.11

> <Gold.PLP.Fitness>
51.7286

> <Gold.PLP.PLP>
-49.5588

> <Gold.PLP.part.hbond>
-1.0000

> <Gold.PLP.part.metal>
0.0000

> <Gold.PLP.part.buried>
-8.8676

> <Gold.PLP.part.nonpolar>
-41.5232

> <Gold.PLP.part.repulsive>
0.5432

> <Gold.PLP.ligand.clash>
0.0000

> <Gold.PLP.ligand.torsion>
0.4688

> <Gold.PLP.Chemscore.Hbond>
1.0000

> <Gold.PLP.Chemscore.CHOScore>
0.0000

> <Gold.PLP.Chemscore.Metal>
0.0000

> <Gold.Chemscore.Hbonds>
donor molecule, donor type, donor heavy atom, donor atom, acceptor molecule, acceptor atom, score
      L1  H     1    38       P1  2398  1.00

> <Gold.PLP.Chemscore.Internal.Correction>
0.1073

