#       Name:                EN300-719569_i001
#       Creating user name   fsindt
#       Creation time:       Mon Feb 27 17:08:23 2023


#       File generated by GOLD software.
#

@<TRIPOS>MOLECULE
EN300-719569_i001|acide_3|mol2|26|dock6
    40    40     1
SMALL
USER_CHARGES


@<TRIPOS>ATOM
      1 N1          -2.1992  -9.3051  10.0760 N.am           1 <1>                0.0000
      2 C2          -1.3034 -10.2167  10.5038 C.2            1 <1>                0.0000
      3 O3          -0.4514  -9.8993  11.3065 O.2            1 <1>                0.0000
      4 C4          -1.3602 -11.6303   9.9847 C.3            1 <1>                0.0000
      5 C5          -0.1527 -11.8911   9.0820 C.3            1 <1>                0.0000
      6 C6          -0.0033 -13.3964   8.8524 C.3            1 <1>                0.0000
      7 N7           1.0352 -13.9250   9.7402 N.am           1 <1>                0.0000
      8 C8           0.6911 -14.6523  10.8216 C.2            1 <1>                0.0000
      9 O9          -0.4781 -14.8691  11.0596 O.2            1 <1>                0.0000
     10 C10          1.7595 -15.1961  11.7348 C.3            1 <1>                0.0000
     11 C11          1.1660 -16.2988  12.6139 C.3            1 <1>                0.0000
     12 C12          2.2819 -16.9598  13.4257 C.3            1 <1>                0.0000
     13 C13          1.9205 -18.3971  13.6988 C.ar           1 <1>                0.0000
     14 C14          1.7162 -19.2703  12.6469 C.ar           1 <1>                0.0000
     15 C15          1.3846 -20.5887  12.8975 C.ar           1 <1>                0.0000
     16 C16          1.2579 -21.0340  14.1999 C.ar           1 <1>                0.0000
     17 C17          1.4632 -20.1609  15.2519 C.ar           1 <1>                0.0000
     18 C18          1.7989 -18.8436  15.0014 C.ar           1 <1>                0.0000
     19 C19          0.3849 -13.6497   7.4185 C.2            1 <1>                0.0000
     20 O20         -0.3157 -14.3551   6.7127 O.co2          1 <1>                0.0000
     21 O21          1.3998 -13.1495   6.9642 O.co2          1 <1>               -1.0000
     22 H22         -1.3438 -12.3262  10.8234 H              1 <1>                0.0000
     23 H23         -2.2780 -11.7710   9.4137 H              1 <1>                0.0000
     24 H24         -0.2997 -11.3904   8.1250 H              1 <1>                0.0000
     25 H25          0.7479 -11.5052   9.5594 H              1 <1>                0.0000
     26 H26         -0.9504 -13.8922   9.0654 H              1 <1>                0.0000
     27 H27          2.5738 -15.6063  11.1375 H              1 <1>                0.0000
     28 H28          2.1406 -14.3935  12.3664 H              1 <1>                0.0000
     29 H29          0.4305 -15.8663  13.2923 H              1 <1>                0.0000
     30 H30          0.6838 -17.0459  11.9836 H              1 <1>                0.0000
     31 H31          3.2137 -16.9203  12.8616 H              1 <1>                0.0000
     32 H32          2.4063 -16.4305  14.3705 H              1 <1>                0.0000
     33 H33          1.8152 -18.9225  11.6293 H              1 <1>                0.0000
     34 H34          1.2244 -21.2708  12.0757 H              1 <1>                0.0000
     35 H35          0.9983 -22.0639  14.3958 H              1 <1>                0.0000
     36 H36          1.3638 -20.5087  16.2696 H              1 <1>                0.0000
     37 H37          1.9593 -18.1615  15.8233 H              1 <1>                0.0000
     38 H38         -2.1602  -8.3942  10.4072 H              1 <1>                0.0000
     39 H39         -2.8806  -9.5589   9.4340 H              1 <1>                0.0000
     40 H40          1.9704 -13.7516   9.5498 H              1 <1>                0.0000
@<TRIPOS>BOND
    1    1    2 am    
    2    1   38 1     
    3    1   39 1     
    4    2    3 2     
    5    2    4 1     
    6    4    5 1     
    7    4   22 1     
    8    4   23 1     
    9    5    6 1     
   10    5   24 1     
   11    5   25 1     
   12    6    7 1     
   13    6   19 1     
   14    6   26 1     
   15    7    8 am    
   16    7   40 1     
   17    8    9 2     
   18    8   10 1     
   19   10   11 1     
   20   10   27 1     
   21   10   28 1     
   22   11   12 1     
   23   11   29 1     
   24   11   30 1     
   25   12   13 1     
   26   12   31 1     
   27   12   32 1     
   28   13   14 ar    
   29   13   18 ar    
   30   14   15 ar    
   31   14   33 1     
   32   15   16 ar    
   33   15   34 1     
   34   16   17 ar    
   35   16   35 1     
   36   17   18 ar    
   37   17   36 1     
   38   18   37 1     
   39   19   20 ar    
   40   19   21 ar    
@<TRIPOS>SUBSTRUCTURE
      1 ****           1
@<TRIPOS>SET
DONOR_HYDROGENS      STATIC     ATOMS    <user>   **** ""
3 38 39 40
ATOM$RED        STATIC     ATOMS    COLORGROUP SYSTEM
3 38 39 40
@<TRIPOS>COMMENT
> <Gold.Version>
2022.2.0

> <Gold.Id.Protein>
3pbl|protein|mol2

> <Gold.Protein.RotatedTorsions>
[ 1303 1298 1297 1294 ] final    9.34 input  179.99 | X-H torsion
[ 2461 2456 2455 2452 ] final -111.34 input   30.03 | X-H torsion
[ 2515 2510 2509 2506 ] final   38.13 input  -89.99 | X-H torsion
[ 3721 3712 3711 3710 ] final -146.15 input -179.91 | X-H torsion
[ 3841 3832 3831 3830 ] final  156.84 input -179.91 | X-H torsion
[ 3767 3762 3761 3758 ] final -115.04 input  -89.99 | X-H torsion
[ 2472 2467 2466 2463 ] final   52.70 input  -89.97 | X-H torsion

> <Gold.Protein.ActiveResidues>
 VAL82   VAL86   LEU89   PHE106  VAL107  ASP110  VAL111  MET112  CYS114  THR115 
 CYS181  SER182  ILE183  PHE188  VAL189  ILE190  SER192  SER193  SER196  TRP342 
 PHE345  PHE346  HIS349  VAL350  TYR365  THR369  GLY372  TYR373 

> <Gold.Protein.RotatedAtoms>
    3.4436   -9.9871    4.1318 H   0  0  0  0  0  0  0  0  0  0  0  0  # atno 1303 bound_to 1298
    0.4893   -9.1105    7.9592 H   0  0  0  0  0  0  0  0  0  0  0  0  # atno 2461 bound_to 2456
   -4.5237   -4.8077    7.6621 H   0  0  0  0  0  0  0  0  0  0  0  0  # atno 2472 bound_to 2467
    2.2778   -7.4094    5.1194 H   0  0  0  0  0  0  0  0  0  0  0  0  # atno 2515 bound_to 2510
   -3.3182  -16.5364   14.0459 H   0  0  0  0  0  0  0  0  0  0  0  0  # atno 3721 bound_to 3712
   -4.9164  -21.9473   11.4790 H   0  0  0  0  0  0  0  0  0  0  0  0  # atno 3767 bound_to 3762
    3.1033  -20.3246    8.5671 H   0  0  0  0  0  0  0  0  0  0  0  0  # atno 3841 bound_to 3832
    4.1048   -8.4988    4.0130 LP  0  0  0  0  0  0  0  0  0  0  0  0  # atno 4297 bound_to 1298
    4.8140   -9.6352    4.9469 LP  0  0  0  0  0  0  0  0  0  0  0  0  # atno 4298 bound_to 1298
    2.0705   -8.7483    8.1493 LP  0  0  0  0  0  0  0  0  0  0  0  0  # atno 4299 bound_to 2456
    1.1777   -7.9495    7.0397 LP  0  0  0  0  0  0  0  0  0  0  0  0  # atno 4300 bound_to 2456
    2.8324   -8.8268    4.5287 LP  0  0  0  0  0  0  0  0  0  0  0  0  # atno 4301 bound_to 2510
    2.1866   -8.7634    6.0272 LP  0  0  0  0  0  0  0  0  0  0  0  0  # atno 4302 bound_to 2510
   -2.9732  -17.7239   13.0219 LP  0  0  0  0  0  0  0  0  0  0  0  0  # atno 4306 bound_to 3712
   -2.7236  -17.9108   14.6249 LP  0  0  0  0  0  0  0  0  0  0  0  0  # atno 4307 bound_to 3712
    2.0251  -21.0112    9.5378 LP  0  0  0  0  0  0  0  0  0  0  0  0  # atno 4314 bound_to 3832
    1.6194  -19.7162    8.6295 LP  0  0  0  0  0  0  0  0  0  0  0  0  # atno 4315 bound_to 3832
   -3.9345  -23.1498   10.9725 LP  0  0  0  0  0  0  0  0  0  0  0  0  # atno 4318 bound_to 3762
   -5.2765  -22.7777   10.1198 LP  0  0  0  0  0  0  0  0  0  0  0  0  # atno 4319 bound_to 3762
   -3.7855   -5.2283    9.0566 LP  0  0  0  0  0  0  0  0  0  0  0  0  # atno 4320 bound_to 2467
   -5.4077   -5.3575    8.9202 LP  0  0  0  0  0  0  0  0  0  0  0  0  # atno 4321 bound_to 2467

> <Gold.Score>
     Score     S(PLP)   S(hbond)     S(cho)   S(metal)  DE(clash)   DE(tors)     intcor
     52.79     -52.28       1.00       0.00       0.00       0.00       1.29       0.11

> <Gold.PLP.Fitness>
52.7950

> <Gold.PLP.PLP>
-52.2762

> <Gold.PLP.part.hbond>
-1.0000

> <Gold.PLP.part.metal>
0.0000

> <Gold.PLP.part.buried>
-5.8837

> <Gold.PLP.part.nonpolar>
-46.4146

> <Gold.PLP.part.repulsive>
0.3640

> <Gold.PLP.ligand.clash>
0.0000

> <Gold.PLP.ligand.torsion>
1.2943

> <Gold.PLP.Chemscore.Hbond>
1.0000

> <Gold.PLP.Chemscore.CHOScore>
0.0000

> <Gold.PLP.Chemscore.Metal>
0.0000

> <Gold.Chemscore.Hbonds>
donor molecule, donor type, donor heavy atom, donor atom, acceptor molecule, acceptor atom, score
      L1  H     1    38       P1  2398  1.00

> <Gold.PLP.Chemscore.Internal.Correction>
0.1073

