#       Name:                EN300-719569_i001
#       Creating user name   fsindt
#       Creation time:       Mon Feb 27 17:08:28 2023


#       File generated by GOLD software.
#

@<TRIPOS>MOLECULE
EN300-719569_i001|acide_3|mol2|26|dock10
    40    40     1
SMALL
USER_CHARGES


@<TRIPOS>ATOM
      1 N1          -2.2164 -10.0418   9.5760 N.am           1 <1>                0.0000
      2 C2          -1.1996 -10.8547   9.9250 C.2            1 <1>                0.0000
      3 O3          -0.4399 -10.5288  10.8125 O.2            1 <1>                0.0000
      4 C4          -1.0065 -12.1685   9.2125 C.3            1 <1>                0.0000
      5 C5           0.1664 -12.9226   9.8423 C.3            1 <1>                0.0000
      6 C6           0.2017 -14.3536   9.3018 C.3            1 <1>                0.0000
      7 N7           1.0480 -15.1809  10.1651 N.am           1 <1>                0.0000
      8 C8           0.7834 -15.2686  11.4838 C.2            1 <1>                0.0000
      9 O9          -0.1552 -14.6626  11.9556 O.2            1 <1>                0.0000
     10 C10          1.6540 -16.1197  12.3720 C.3            1 <1>                0.0000
     11 C11          1.1664 -16.0121  13.8182 C.3            1 <1>                0.0000
     12 C12         -0.0426 -16.9282  14.0183 C.3            1 <1>                0.0000
     13 C13          0.4115 -18.3651  14.0244 C.ar           1 <1>                0.0000
     14 C14         -0.0404 -19.2369  13.0515 C.ar           1 <1>                0.0000
     15 C15          0.3760 -20.5550  13.0572 C.ar           1 <1>                0.0000
     16 C16          1.2448 -21.0011  14.0355 C.ar           1 <1>                0.0000
     17 C17          1.6974 -20.1291  15.0079 C.ar           1 <1>                0.0000
     18 C18          1.2844 -18.8100  14.9997 C.ar           1 <1>                0.0000
     19 C19          0.7637 -14.3486   7.9034 C.2            1 <1>                0.0000
     20 O20          0.8452 -15.3904   7.2754 O.co2          1 <1>                0.0000
     21 O21          1.1370 -13.3027   7.4001 O.co2          1 <1>               -1.0000
     22 H22         -1.9131 -12.7669   9.3018 H              1 <1>                0.0000
     23 H23         -0.7958 -11.9830   8.1593 H              1 <1>                0.0000
     24 H24          1.0993 -12.4170   9.5931 H              1 <1>                0.0000
     25 H25          0.0438 -12.9462  10.9251 H              1 <1>                0.0000
     26 H26         -0.8091 -14.7609   9.2855 H              1 <1>                0.0000
     27 H27          1.5994 -17.1586  12.0465 H              1 <1>                0.0000
     28 H28          2.6855 -15.7731  12.3095 H              1 <1>                0.0000
     29 H29          1.9663 -16.3132  14.4947 H              1 <1>                0.0000
     30 H30          0.8805 -14.9817  14.0295 H              1 <1>                0.0000
     31 H31         -0.5220 -16.6946  14.9689 H              1 <1>                0.0000
     32 H32         -0.7529 -16.7750  13.2058 H              1 <1>                0.0000
     33 H33         -0.7192 -18.8884  12.2872 H              1 <1>                0.0000
     34 H34          0.0225 -21.2363  12.2975 H              1 <1>                0.0000
     35 H35          1.5697 -22.0312  14.0403 H              1 <1>                0.0000
     36 H36          2.3759 -20.4778  15.7724 H              1 <1>                0.0000
     37 H37          1.6380 -18.1286  15.7594 H              1 <1>                0.0000
     38 H38         -2.3384  -9.1945  10.0320 H              1 <1>                0.0000
     39 H39         -2.8239 -10.3025   8.8661 H              1 <1>                0.0000
     40 H40          1.7987 -15.6656   9.7878 H              1 <1>                0.0000
@<TRIPOS>BOND
    1    1    2 am    
    2    1   38 1     
    3    1   39 1     
    4    2    3 2     
    5    2    4 1     
    6    4    5 1     
    7    4   22 1     
    8    4   23 1     
    9    5    6 1     
   10    5   24 1     
   11    5   25 1     
   12    6    7 1     
   13    6   19 1     
   14    6   26 1     
   15    7    8 am    
   16    7   40 1     
   17    8    9 2     
   18    8   10 1     
   19   10   11 1     
   20   10   27 1     
   21   10   28 1     
   22   11   12 1     
   23   11   29 1     
   24   11   30 1     
   25   12   13 1     
   26   12   31 1     
   27   12   32 1     
   28   13   14 ar    
   29   13   18 ar    
   30   14   15 ar    
   31   14   33 1     
   32   15   16 ar    
   33   15   34 1     
   34   16   17 ar    
   35   16   35 1     
   36   17   18 ar    
   37   17   36 1     
   38   18   37 1     
   39   19   20 ar    
   40   19   21 ar    
@<TRIPOS>SUBSTRUCTURE
      1 ****           1
@<TRIPOS>SET
DONOR_HYDROGENS      STATIC     ATOMS    <user>   **** ""
3 38 39 40
ATOM$RED        STATIC     ATOMS    COLORGROUP SYSTEM
3 38 39 40
@<TRIPOS>COMMENT
> <Gold.Version>
2022.2.0

> <Gold.Id.Protein>
3pbl|protein|mol2

> <Gold.Protein.RotatedTorsions>
[ 1303 1298 1297 1294 ] final  109.46 input  179.99 | X-H torsion
[ 2461 2456 2455 2452 ] final  -39.78 input   30.03 | X-H torsion
[ 2515 2510 2509 2506 ] final   77.91 input  -89.99 | X-H torsion
[ 3721 3712 3711 3710 ] final  152.67 input -179.91 | X-H torsion
[ 3841 3832 3831 3830 ] final  137.70 input -179.91 | X-H torsion
[ 3767 3762 3761 3758 ] final -144.90 input  -89.99 | X-H torsion
[ 2472 2467 2466 2463 ] final   -0.84 input  -89.97 | X-H torsion

> <Gold.Protein.ActiveResidues>
 VAL82   VAL86   LEU89   PHE106  VAL107  ASP110  VAL111  MET112  CYS114  THR115 
 CYS181  SER182  ILE183  PHE188  VAL189  ILE190  SER192  SER193  SER196  TRP342 
 PHE345  PHE346  HIS349  VAL350  TYR365  THR369  GLY372  TYR373 

> <Gold.Protein.RotatedAtoms>
    4.6425   -9.9117    4.9356 H   0  0  0  0  0  0  0  0  0  0  0  0  # atno 1303 bound_to 1298
    0.5174   -8.3257    7.1850 H   0  0  0  0  0  0  0  0  0  0  0  0  # atno 2461 bound_to 2456
   -3.7901   -4.8791    8.0843 H   0  0  0  0  0  0  0  0  0  0  0  0  # atno 2472 bound_to 2467
    2.0751   -7.5998    5.6972 H   0  0  0  0  0  0  0  0  0  0  0  0  # atno 2515 bound_to 2510
   -3.2199  -16.8357   13.2226 H   0  0  0  0  0  0  0  0  0  0  0  0  # atno 3721 bound_to 3712
   -4.5030  -22.1442   11.6416 H   0  0  0  0  0  0  0  0  0  0  0  0  # atno 3767 bound_to 3762
    3.1320  -20.5465    8.7480 H   0  0  0  0  0  0  0  0  0  0  0  0  # atno 3841 bound_to 3832
    3.3448   -9.7276    3.9618 LP  0  0  0  0  0  0  0  0  0  0  0  0  # atno 4297 bound_to 1298
    4.3747   -8.4818    4.1940 LP  0  0  0  0  0  0  0  0  0  0  0  0  # atno 4298 bound_to 1298
    1.1299   -9.2846    8.3567 LP  0  0  0  0  0  0  0  0  0  0  0  0  # atno 4299 bound_to 2456
    2.0902   -8.1978    7.6062 LP  0  0  0  0  0  0  0  0  0  0  0  0  # atno 4300 bound_to 2456
    2.7734   -8.2122    4.3545 LP  0  0  0  0  0  0  0  0  0  0  0  0  # atno 4301 bound_to 2510
    2.4484   -9.1875    5.6233 LP  0  0  0  0  0  0  0  0  0  0  0  0  # atno 4302 bound_to 2510
   -2.6236  -18.2154   13.7872 LP  0  0  0  0  0  0  0  0  0  0  0  0  # atno 4306 bound_to 3712
   -3.1867  -17.0738   14.8101 LP  0  0  0  0  0  0  0  0  0  0  0  0  # atno 4307 bound_to 3712
    1.7636  -20.8299    9.5374 LP  0  0  0  0  0  0  0  0  0  0  0  0  # atno 4314 bound_to 3832
    1.8478  -19.6411    8.4209 LP  0  0  0  0  0  0  0  0  0  0  0  0  # atno 4315 bound_to 3832
   -4.1408  -23.3188   10.5664 LP  0  0  0  0  0  0  0  0  0  0  0  0  # atno 4318 bound_to 3762
   -5.4835  -22.4119   10.3634 LP  0  0  0  0  0  0  0  0  0  0  0  0  # atno 4319 bound_to 3762
   -4.5152   -5.4444    9.4337 LP  0  0  0  0  0  0  0  0  0  0  0  0  # atno 4320 bound_to 2467
   -5.4114   -5.0699    8.1210 LP  0  0  0  0  0  0  0  0  0  0  0  0  # atno 4321 bound_to 2467

> <Gold.Score>
     Score     S(PLP)   S(hbond)     S(cho)   S(metal)  DE(clash)   DE(tors)     intcor
     52.02     -49.86       0.90       0.00       0.00       0.00       0.33       0.11

> <Gold.PLP.Fitness>
52.0173

> <Gold.PLP.PLP>
-49.8570

> <Gold.PLP.part.hbond>
-1.0000

> <Gold.PLP.part.metal>
0.0000

> <Gold.PLP.part.buried>
-8.3703

> <Gold.PLP.part.nonpolar>
-41.5119

> <Gold.PLP.part.repulsive>
0.4061

> <Gold.PLP.ligand.clash>
0.0000

> <Gold.PLP.ligand.torsion>
0.3295

> <Gold.PLP.Chemscore.Hbond>
0.9040

> <Gold.PLP.Chemscore.CHOScore>
0.0000

> <Gold.PLP.Chemscore.Metal>
0.0000

> <Gold.Chemscore.Hbonds>
donor molecule, donor type, donor heavy atom, donor atom, acceptor molecule, acceptor atom, score
      L1  H     7    40       P1  1227  0.90

> <Gold.PLP.Chemscore.Internal.Correction>
0.1073

