#       Name:                EN300-719569_i001
#       Creating user name   fsindt
#       Creation time:       Mon Feb 27 17:08:24 2023


#       File generated by GOLD software.
#

@<TRIPOS>MOLECULE
EN300-719569_i001|acide_3|mol2|26|dock7
    40    40     1
SMALL
USER_CHARGES


@<TRIPOS>ATOM
      1 N1          -1.6899  -9.3019  10.3656 N.am           1 <1>                0.0000
      2 C2          -2.4995 -10.3063   9.9754 C.2            1 <1>                0.0000
      3 O3          -3.6374 -10.0684   9.6295 O.2            1 <1>                0.0000
      4 C4          -1.9910 -11.7249   9.9688 C.3            1 <1>                0.0000
      5 C5          -0.9737 -11.8968   8.8391 C.3            1 <1>                0.0000
      6 C6          -0.4575 -13.3371   8.8326 C.3            1 <1>                0.0000
      7 N7           0.2295 -13.6154  10.0961 N.am           1 <1>                0.0000
      8 C8           0.5130 -14.8866  10.4433 C.2            1 <1>                0.0000
      9 O9           0.1995 -15.7999   9.7095 O.2            1 <1>                0.0000
     10 C10          1.2198 -15.1728  11.7431 C.3            1 <1>                0.0000
     11 C11          0.6941 -16.4837  12.3314 C.3            1 <1>                0.0000
     12 C12          1.6198 -16.9439  13.4594 C.3            1 <1>                0.0000
     13 C13          1.3875 -18.4073  13.7344 C.ar           1 <1>                0.0000
     14 C14          0.9529 -18.8158  14.9814 C.ar           1 <1>                0.0000
     15 C15          0.7399 -20.1581  15.2336 C.ar           1 <1>                0.0000
     16 C16          0.9610 -21.0919  14.2386 C.ar           1 <1>                0.0000
     17 C17          1.3947 -20.6833  12.9913 C.ar           1 <1>                0.0000
     18 C18          1.6035 -19.3406  12.7378 C.ar           1 <1>                0.0000
     19 C19          0.5041 -13.5209   7.6869 C.2            1 <1>                0.0000
     20 O20          1.0183 -14.6089   7.4911 O.co2          1 <1>                0.0000
     21 O21          0.7680 -12.5815   6.9558 O.co2          1 <1>               -1.0000
     22 H22         -1.5139 -11.9442  10.9240 H              1 <1>                0.0000
     23 H23         -2.8253 -12.4091   9.8139 H              1 <1>                0.0000
     24 H24         -1.4508 -11.6775   7.8840 H              1 <1>                0.0000
     25 H25         -0.1395 -11.2126   8.9941 H              1 <1>                0.0000
     26 H26         -1.2965 -14.0232   8.7162 H              1 <1>                0.0000
     27 H27          2.2913 -15.2593  11.5628 H              1 <1>                0.0000
     28 H28          1.0339 -14.3594  12.4445 H              1 <1>                0.0000
     29 H29         -0.3100 -16.3281  12.7261 H              1 <1>                0.0000
     30 H30          0.6643 -17.2455  11.5524 H              1 <1>                0.0000
     31 H31          2.6574 -16.7901  13.1634 H              1 <1>                0.0000
     32 H32          1.4095 -16.3671  14.3601 H              1 <1>                0.0000
     33 H33          0.7802 -18.0863  15.7588 H              1 <1>                0.0000
     34 H34          0.4010 -20.4774  16.2081 H              1 <1>                0.0000
     35 H35          0.7952 -22.1408  14.4358 H              1 <1>                0.0000
     36 H36          1.5677 -21.4130  12.2140 H              1 <1>                0.0000
     37 H37          1.9424 -19.0214  11.7633 H              1 <1>                0.0000
     38 H38         -2.0184  -8.3893  10.3735 H              1 <1>                0.0000
     39 H39         -0.7799  -9.4923  10.6423 H              1 <1>                0.0000
     40 H40          0.4803 -12.8849  10.6830 H              1 <1>                0.0000
@<TRIPOS>BOND
    1    1    2 am    
    2    1   38 1     
    3    1   39 1     
    4    2    3 2     
    5    2    4 1     
    6    4    5 1     
    7    4   22 1     
    8    4   23 1     
    9    5    6 1     
   10    5   24 1     
   11    5   25 1     
   12    6    7 1     
   13    6   19 1     
   14    6   26 1     
   15    7    8 am    
   16    7   40 1     
   17    8    9 2     
   18    8   10 1     
   19   10   11 1     
   20   10   27 1     
   21   10   28 1     
   22   11   12 1     
   23   11   29 1     
   24   11   30 1     
   25   12   13 1     
   26   12   31 1     
   27   12   32 1     
   28   13   14 ar    
   29   13   18 ar    
   30   14   15 ar    
   31   14   33 1     
   32   15   16 ar    
   33   15   34 1     
   34   16   17 ar    
   35   16   35 1     
   36   17   18 ar    
   37   17   36 1     
   38   18   37 1     
   39   19   20 ar    
   40   19   21 ar    
@<TRIPOS>SUBSTRUCTURE
      1 ****           1
@<TRIPOS>SET
DONOR_HYDROGENS      STATIC     ATOMS    <user>   **** ""
3 38 39 40
ATOM$RED        STATIC     ATOMS    COLORGROUP SYSTEM
3 38 39 40
@<TRIPOS>COMMENT
> <Gold.Version>
2022.2.0

> <Gold.Id.Protein>
3pbl|protein|mol2

> <Gold.Protein.RotatedTorsions>
[ 1303 1298 1297 1294 ] final   11.16 input  179.99 | X-H torsion
[ 2461 2456 2455 2452 ] final    8.94 input   30.03 | X-H torsion
[ 2515 2510 2509 2506 ] final   92.55 input  -89.99 | X-H torsion
[ 3721 3712 3711 3710 ] final  -70.32 input -179.91 | X-H torsion
[ 3841 3832 3831 3830 ] final  -24.01 input -179.91 | X-H torsion
[ 3767 3762 3761 3758 ] final  111.74 input  -89.99 | X-H torsion
[ 2472 2467 2466 2463 ] final  105.53 input  -89.97 | X-H torsion

> <Gold.Protein.ActiveResidues>
 VAL82   VAL86   LEU89   PHE106  VAL107  ASP110  VAL111  MET112  CYS114  THR115 
 CYS181  SER182  ILE183  PHE188  VAL189  ILE190  SER192  SER193  SER196  TRP342 
 PHE345  PHE346  HIS349  VAL350  TYR365  THR369  GLY372  TYR373 

> <Gold.Protein.RotatedAtoms>
    3.4570  -10.0076    4.1490 H   0  0  0  0  0  0  0  0  0  0  0  0  # atno 1303 bound_to 1298
    1.1821   -7.9483    7.0400 H   0  0  0  0  0  0  0  0  0  0  0  0  # atno 2461 bound_to 2456
   -5.2892   -4.9954    7.9493 H   0  0  0  0  0  0  0  0  0  0  0  0  # atno 2472 bound_to 2467
    2.0392   -7.7659    5.8670 H   0  0  0  0  0  0  0  0  0  0  0  0  # atno 2515 bound_to 2510
   -2.8773  -17.1957   14.7560 H   0  0  0  0  0  0  0  0  0  0  0  0  # atno 3721 bound_to 3712
   -4.0020  -23.2452   10.7894 H   0  0  0  0  0  0  0  0  0  0  0  0  # atno 3767 bound_to 3762
    1.5881  -20.2021    9.3957 H   0  0  0  0  0  0  0  0  0  0  0  0  # atno 3841 bound_to 3832
    4.0797   -8.5057    3.9983 LP  0  0  0  0  0  0  0  0  0  0  0  0  # atno 4297 bound_to 1298
    4.8258   -9.6078    4.9444 LP  0  0  0  0  0  0  0  0  0  0  0  0  # atno 4298 bound_to 1298
    0.4871   -9.1081    7.9560 LP  0  0  0  0  0  0  0  0  0  0  0  0  # atno 4299 bound_to 2456
    2.0686   -8.7516    8.1519 LP  0  0  0  0  0  0  0  0  0  0  0  0  # atno 4300 bound_to 2456
    2.7078   -7.9844    4.3936 LP  0  0  0  0  0  0  0  0  0  0  0  0  # atno 4301 bound_to 2510
    2.5499   -9.2492    5.4144 LP  0  0  0  0  0  0  0  0  0  0  0  0  # atno 4302 bound_to 2510
   -3.5117  -16.7324   13.3557 LP  0  0  0  0  0  0  0  0  0  0  0  0  # atno 4306 bound_to 3712
   -2.6941  -18.1412   13.4714 LP  0  0  0  0  0  0  0  0  0  0  0  0  # atno 4307 bound_to 3712
    2.5051  -19.7878    8.1452 LP  0  0  0  0  0  0  0  0  0  0  0  0  # atno 4314 bound_to 3832
    2.8897  -21.0811    9.0650 LP  0  0  0  0  0  0  0  0  0  0  0  0  # atno 4315 bound_to 3832
   -5.3911  -22.6151   10.2062 LP  0  0  0  0  0  0  0  0  0  0  0  0  # atno 4318 bound_to 3762
   -4.7340  -22.0150   11.5754 LP  0  0  0  0  0  0  0  0  0  0  0  0  # atno 4319 bound_to 3762
   -3.6904   -4.9364    8.2760 LP  0  0  0  0  0  0  0  0  0  0  0  0  # atno 4320 bound_to 2467
   -4.7375   -5.4617    9.4137 LP  0  0  0  0  0  0  0  0  0  0  0  0  # atno 4321 bound_to 2467

> <Gold.Score>
     Score     S(PLP)   S(hbond)     S(cho)   S(metal)  DE(clash)   DE(tors)     intcor
     52.12     -50.52       1.00       0.00       0.00       0.00       0.76       0.11

> <Gold.PLP.Fitness>
52.1194

> <Gold.PLP.PLP>
-50.5228

> <Gold.PLP.part.hbond>
-1.0000

> <Gold.PLP.part.metal>
0.0000

> <Gold.PLP.part.buried>
-9.0082

> <Gold.PLP.part.nonpolar>
-42.7497

> <Gold.PLP.part.repulsive>
1.3535

> <Gold.PLP.ligand.clash>
0.0000

> <Gold.PLP.ligand.torsion>
0.7554

> <Gold.PLP.Chemscore.Hbond>
1.0000

> <Gold.PLP.Chemscore.CHOScore>
0.0000

> <Gold.PLP.Chemscore.Metal>
0.0000

> <Gold.Chemscore.Hbonds>
donor molecule, donor type, donor heavy atom, donor atom, acceptor molecule, acceptor atom, score
      L1  H     1    38       P1  2398  1.00

> <Gold.PLP.Chemscore.Internal.Correction>
0.1073

