#       Name:                EN300-719569_i001
#       Creating user name   fsindt
#       Creation time:       Mon Feb 27 17:08:40 2023


#       File generated by GOLD software.
#

@<TRIPOS>MOLECULE
EN300-719569_i001|acide_3|mol2|26|dock18
    40    40     1
SMALL
USER_CHARGES


@<TRIPOS>ATOM
      1 N1          -0.0797 -10.5007  10.7917 N.am           1 <1>                0.0000
      2 C2          -1.1135 -11.3577  10.6763 C.2            1 <1>                0.0000
      3 O3          -2.2108 -11.0429  11.0859 O.2            1 <1>                0.0000
      4 C4          -0.9059 -12.7072  10.0385 C.3            1 <1>                0.0000
      5 C5          -0.0298 -13.5716  10.9474 C.3            1 <1>                0.0000
      6 C6           0.1808 -14.9417  10.2998 C.3            1 <1>                0.0000
      7 N7           1.2000 -15.6832  11.0463 N.am           1 <1>                0.0000
      8 C8           0.9712 -16.0411  12.3255 C.2            1 <1>                0.0000
      9 O9          -0.0785 -15.7493  12.8584 O.2            1 <1>                0.0000
     10 C10          2.0196 -16.8040  13.0935 C.3            1 <1>                0.0000
     11 C11          1.4578 -18.1651  13.5090 C.3            1 <1>                0.0000
     12 C12          1.4726 -19.1114  12.3067 C.3            1 <1>                0.0000
     13 C13          0.9646 -20.4663  12.7277 C.ar           1 <1>                0.0000
     14 C14          0.0175 -21.1183  11.9605 C.ar           1 <1>                0.0000
     15 C15         -0.4486 -22.3611  12.3467 C.ar           1 <1>                0.0000
     16 C16          0.0329 -22.9521  13.4998 C.ar           1 <1>                0.0000
     17 C17          0.9808 -22.3005  14.2665 C.ar           1 <1>                0.0000
     18 C18          1.4499 -21.0597  13.8781 C.ar           1 <1>                0.0000
     19 C19          0.6357 -14.7590   8.8746 C.2            1 <1>                0.0000
     20 O20          1.6727 -14.1634   8.6373 O.co2          1 <1>                0.0000
     21 O21         -0.0334 -15.2069   7.9590 O.co2          1 <1>               -1.0000
     22 H22         -1.8709 -13.1933   9.8947 H              1 <1>                0.0000
     23 H23         -0.4152 -12.5813   9.0734 H              1 <1>                0.0000
     24 H24          0.9351 -13.0854  11.0912 H              1 <1>                0.0000
     25 H25         -0.5207 -13.6975  11.9124 H              1 <1>                0.0000
     26 H26         -0.7564 -15.4980  10.3134 H              1 <1>                0.0000
     27 H27          2.8971 -16.9500  12.4636 H              1 <1>                0.0000
     28 H28          2.3006 -16.2400  13.9830 H              1 <1>                0.0000
     29 H29          2.0708 -18.5828  14.3077 H              1 <1>                0.0000
     30 H30          0.4341 -18.0431  13.8626 H              1 <1>                0.0000
     31 H31          0.8317 -18.7110  11.5214 H              1 <1>                0.0000
     32 H32          2.4916 -19.2060  11.9313 H              1 <1>                0.0000
     33 H33         -0.3588 -20.6566  11.0595 H              1 <1>                0.0000
     34 H34         -1.1890 -22.8703  11.7477 H              1 <1>                0.0000
     35 H35         -0.3316 -23.9229  13.8019 H              1 <1>                0.0000
     36 H36          1.3567 -22.7621  15.1677 H              1 <1>                0.0000
     37 H37          2.1905 -20.5505  14.4771 H              1 <1>                0.0000
     38 H38         -0.2125  -9.6336  11.2058 H              1 <1>                0.0000
     39 H39          0.7979 -10.7525  10.4642 H              1 <1>                0.0000
     40 H40          2.0395 -15.9167  10.6202 H              1 <1>                0.0000
@<TRIPOS>BOND
    1    1    2 am    
    2    1   38 1     
    3    1   39 1     
    4    2    3 2     
    5    2    4 1     
    6    4    5 1     
    7    4   22 1     
    8    4   23 1     
    9    5    6 1     
   10    5   24 1     
   11    5   25 1     
   12    6    7 1     
   13    6   19 1     
   14    6   26 1     
   15    7    8 am    
   16    7   40 1     
   17    8    9 2     
   18    8   10 1     
   19   10   11 1     
   20   10   27 1     
   21   10   28 1     
   22   11   12 1     
   23   11   29 1     
   24   11   30 1     
   25   12   13 1     
   26   12   31 1     
   27   12   32 1     
   28   13   14 ar    
   29   13   18 ar    
   30   14   15 ar    
   31   14   33 1     
   32   15   16 ar    
   33   15   34 1     
   34   16   17 ar    
   35   16   35 1     
   36   17   18 ar    
   37   17   36 1     
   38   18   37 1     
   39   19   20 ar    
   40   19   21 ar    
@<TRIPOS>SUBSTRUCTURE
      1 ****           1
@<TRIPOS>SET
DONOR_HYDROGENS      STATIC     ATOMS    <user>   **** ""
3 38 39 40
ATOM$RED        STATIC     ATOMS    COLORGROUP SYSTEM
3 38 39 40
@<TRIPOS>COMMENT
> <Gold.Version>
2022.2.0

> <Gold.Id.Protein>
3pbl|protein|mol2

> <Gold.Protein.RotatedTorsions>
[ 1303 1298 1297 1294 ] final   52.46 input  179.99 | X-H torsion
[ 2461 2456 2455 2452 ] final -105.21 input   30.03 | X-H torsion
[ 2515 2510 2509 2506 ] final   62.39 input  -89.99 | X-H torsion
[ 3721 3712 3711 3710 ] final  132.44 input -179.91 | X-H torsion
[ 3841 3832 3831 3830 ] final   68.35 input -179.91 | X-H torsion
[ 3767 3762 3761 3758 ] final -167.86 input  -89.99 | X-H torsion
[ 2472 2467 2466 2463 ] final    9.09 input  -89.97 | X-H torsion

> <Gold.Protein.ActiveResidues>
 VAL82   VAL86   LEU89   PHE106  VAL107  ASP110  VAL111  MET112  CYS114  THR115 
 CYS181  SER182  ILE183  PHE188  VAL189  ILE190  SER192  SER193  SER196  TRP342 
 PHE345  PHE346  HIS349  VAL350  TYR365  THR369  GLY372  TYR373 

> <Gold.Protein.RotatedAtoms>
    3.9063  -10.2698    4.5630 H   0  0  0  0  0  0  0  0  0  0  0  0  # atno 1303 bound_to 1298
    0.4386   -9.0584    7.8894 H   0  0  0  0  0  0  0  0  0  0  0  0  # atno 2461 bound_to 2456
   -3.8911   -4.8456    7.9605 H   0  0  0  0  0  0  0  0  0  0  0  0  # atno 2472 bound_to 2467
    2.1383   -7.4759    5.4841 H   0  0  0  0  0  0  0  0  0  0  0  0  # atno 2515 bound_to 2510
   -3.0971  -17.0726   13.0765 H   0  0  0  0  0  0  0  0  0  0  0  0  # atno 3721 bound_to 3712
   -4.2168  -22.3865   11.6251 H   0  0  0  0  0  0  0  0  0  0  0  0  # atno 3767 bound_to 3762
    2.5822  -20.9561    9.4553 H   0  0  0  0  0  0  0  0  0  0  0  0  # atno 3841 bound_to 3832
    3.5683   -8.8741    3.7859 LP  0  0  0  0  0  0  0  0  0  0  0  0  # atno 4297 bound_to 1298
    4.8876   -8.9771    4.7426 LP  0  0  0  0  0  0  0  0  0  0  0  0  # atno 4298 bound_to 1298
    2.0234   -8.8190    8.2035 LP  0  0  0  0  0  0  0  0  0  0  0  0  # atno 4299 bound_to 2456
    1.2755   -7.9309    7.0552 LP  0  0  0  0  0  0  0  0  0  0  0  0  # atno 4300 bound_to 2456
    2.8187   -8.4619    4.3748 LP  0  0  0  0  0  0  0  0  0  0  0  0  # atno 4301 bound_to 2510
    2.3399   -9.0617    5.8162 LP  0  0  0  0  0  0  0  0  0  0  0  0  # atno 4302 bound_to 2510
   -2.6089  -18.1889   14.1221 LP  0  0  0  0  0  0  0  0  0  0  0  0  # atno 4306 bound_to 3712
   -3.3430  -16.8268   14.6439 LP  0  0  0  0  0  0  0  0  0  0  0  0  # atno 4307 bound_to 3712
    1.4157  -19.9630    8.9766 LP  0  0  0  0  0  0  0  0  0  0  0  0  # atno 4314 bound_to 3832
    2.8307  -20.0348    8.1647 LP  0  0  0  0  0  0  0  0  0  0  0  0  # atno 4315 bound_to 3832
   -4.4065  -23.3240   10.3015 LP  0  0  0  0  0  0  0  0  0  0  0  0  # atno 4318 bound_to 3762
   -5.5038  -22.1644   10.6448 LP  0  0  0  0  0  0  0  0  0  0  0  0  # atno 4319 bound_to 3762
   -4.3547   -5.4207    9.4168 LP  0  0  0  0  0  0  0  0  0  0  0  0  # atno 4320 bound_to 2467
   -5.4711   -5.1272    8.2617 LP  0  0  0  0  0  0  0  0  0  0  0  0  # atno 4321 bound_to 2467

> <Gold.Score>
     Score     S(PLP)   S(hbond)     S(cho)   S(metal)  DE(clash)   DE(tors)     intcor
     51.39     -49.93       0.69       0.00       0.00       0.00       0.36       0.11

> <Gold.PLP.Fitness>
51.3918

> <Gold.PLP.PLP>
-49.9329

> <Gold.PLP.part.hbond>
-1.0000

> <Gold.PLP.part.metal>
0.0000

> <Gold.PLP.part.buried>
-8.5046

> <Gold.PLP.part.nonpolar>
-41.3726

> <Gold.PLP.part.repulsive>
0.3294

> <Gold.PLP.ligand.clash>
0.0000

> <Gold.PLP.ligand.torsion>
0.3562

> <Gold.PLP.Chemscore.Hbond>
0.6880

> <Gold.PLP.Chemscore.CHOScore>
0.0000

> <Gold.PLP.Chemscore.Metal>
0.0000

> <Gold.Chemscore.Hbonds>
donor molecule, donor type, donor heavy atom, donor atom, acceptor molecule, acceptor atom, score
      L1  H     7    40       P1  1227  0.69

> <Gold.PLP.Chemscore.Internal.Correction>
0.1073

