#       Name:                EN300-719569_i001
#       Creating user name   fsindt
#       Creation time:       Mon Feb 27 17:08:38 2023


#       File generated by GOLD software.
#

@<TRIPOS>MOLECULE
EN300-719569_i001|acide_3|mol2|26|dock17
    40    40     1
SMALL
USER_CHARGES


@<TRIPOS>ATOM
      1 N1          -0.0382 -19.1405  10.7745 N.am           1 <1>                0.0000
      2 C2           0.7110 -19.8327  11.6554 C.2            1 <1>                0.0000
      3 O3           1.1387 -20.9281  11.3586 O.2            1 <1>                0.0000
      4 C4           1.0171 -19.2457  13.0092 C.3            1 <1>                0.0000
      5 C5           1.6713 -17.8738  12.8342 C.3            1 <1>                0.0000
      6 C6           0.5901 -16.8226  12.5751 C.3            1 <1>                0.0000
      7 N7           1.1920 -15.6504  11.9350 N.am           1 <1>                0.0000
      8 C8           0.7336 -15.2248  10.7411 C.2            1 <1>                0.0000
      9 O9          -0.1773 -15.8122  10.1969 O.2            1 <1>                0.0000
     10 C10          1.3528 -14.0190  10.0826 C.3            1 <1>                0.0000
     11 C11          0.2485 -13.0604   9.6326 C.3            1 <1>                0.0000
     12 C12         -0.5561 -12.6015  10.8505 C.3            1 <1>                0.0000
     13 C13         -1.6438 -11.6573  10.4072 C.ar           1 <1>                0.0000
     14 C14         -1.3144 -10.4546   9.8109 C.ar           1 <1>                0.0000
     15 C15         -2.3121  -9.5885   9.4044 C.ar           1 <1>                0.0000
     16 C16         -3.6393  -9.9254   9.5937 C.ar           1 <1>                0.0000
     17 C17         -3.9688 -11.1287  10.1892 C.ar           1 <1>                0.0000
     18 C18         -2.9711 -11.9966  10.5918 C.ar           1 <1>                0.0000
     19 C19         -0.0369 -16.4141  13.8832 C.2            1 <1>                0.0000
     20 O20          0.0507 -15.2602  14.2672 O.co2          1 <1>                0.0000
     21 O21         -0.6318 -17.2374  14.5575 O.co2          1 <1>               -1.0000
     22 H22          0.0922 -19.1376  13.5758 H              1 <1>                0.0000
     23 H23          1.6971 -19.9068  13.5464 H              1 <1>                0.0000
     24 H24          2.2203 -17.6148  13.7395 H              1 <1>                0.0000
     25 H25          2.3585 -17.9041  11.9887 H              1 <1>                0.0000
     26 H26         -0.1745 -17.2414  11.9209 H              1 <1>                0.0000
     27 H27          2.0063 -13.5126  10.7929 H              1 <1>                0.0000
     28 H28          1.9338 -14.3362   9.2166 H              1 <1>                0.0000
     29 H29          0.6957 -12.1941   9.1451 H              1 <1>                0.0000
     30 H30         -0.4124 -13.5707   8.9319 H              1 <1>                0.0000
     31 H31         -1.0033 -13.4678  11.3378 H              1 <1>                0.0000
     32 H32          0.1048 -12.0912  11.5512 H              1 <1>                0.0000
     33 H33         -0.2775 -10.1913   9.6630 H              1 <1>                0.0000
     34 H34         -2.0548  -8.6484   8.9392 H              1 <1>                0.0000
     35 H35         -4.4189  -9.2485   9.2767 H              1 <1>                0.0000
     36 H36         -5.0057 -11.3918  10.3374 H              1 <1>                0.0000
     37 H37         -3.2285 -12.9367  11.0570 H              1 <1>                0.0000
     38 H38         -0.2385 -19.5199   9.9045 H              1 <1>                0.0000
     39 H39         -0.3804 -18.2644  11.0119 H              1 <1>                0.0000
     40 H40          1.9205 -15.1806  12.3703 H              1 <1>                0.0000
@<TRIPOS>BOND
    1    1    2 am    
    2    1   38 1     
    3    1   39 1     
    4    2    3 2     
    5    2    4 1     
    6    4    5 1     
    7    4   22 1     
    8    4   23 1     
    9    5    6 1     
   10    5   24 1     
   11    5   25 1     
   12    6    7 1     
   13    6   19 1     
   14    6   26 1     
   15    7    8 am    
   16    7   40 1     
   17    8    9 2     
   18    8   10 1     
   19   10   11 1     
   20   10   27 1     
   21   10   28 1     
   22   11   12 1     
   23   11   29 1     
   24   11   30 1     
   25   12   13 1     
   26   12   31 1     
   27   12   32 1     
   28   13   14 ar    
   29   13   18 ar    
   30   14   15 ar    
   31   14   33 1     
   32   15   16 ar    
   33   15   34 1     
   34   16   17 ar    
   35   16   35 1     
   36   17   18 ar    
   37   17   36 1     
   38   18   37 1     
   39   19   20 ar    
   40   19   21 ar    
@<TRIPOS>SUBSTRUCTURE
      1 ****           1
@<TRIPOS>SET
DONOR_HYDROGENS      STATIC     ATOMS    <user>   **** ""
3 38 39 40
ATOM$RED        STATIC     ATOMS    COLORGROUP SYSTEM
3 38 39 40
@<TRIPOS>COMMENT
> <Gold.Version>
2022.2.0

> <Gold.Id.Protein>
3pbl|protein|mol2

> <Gold.Protein.RotatedTorsions>
[ 1303 1298 1297 1294 ] final  -20.87 input  179.99 | X-H torsion
[ 2461 2456 2455 2452 ] final   71.99 input   30.03 | X-H torsion
[ 2515 2510 2509 2506 ] final    5.55 input  -89.99 | X-H torsion
[ 3721 3712 3711 3710 ] final   -8.64 input -179.91 | X-H torsion
[ 3841 3832 3831 3830 ] final    5.97 input -179.91 | X-H torsion
[ 3767 3762 3761 3758 ] final -171.30 input  -89.99 | X-H torsion
[ 2472 2467 2466 2463 ] final -124.84 input  -89.97 | X-H torsion

> <Gold.Protein.ActiveResidues>
 VAL82   VAL86   LEU89   PHE106  VAL107  ASP110  VAL111  MET112  CYS114  THR115 
 CYS181  SER182  ILE183  PHE188  VAL189  ILE190  SER192  SER193  SER196  TRP342 
 PHE345  PHE346  HIS349  VAL350  TYR365  THR369  GLY372  TYR373 

> <Gold.Protein.RotatedAtoms>
    3.3295   -9.5737    3.8921 H   0  0  0  0  0  0  0  0  0  0  0  0  # atno 1303 bound_to 1298
    2.0312   -8.1226    7.5106 H   0  0  0  0  0  0  0  0  0  0  0  0  # atno 2461 bound_to 2456
   -4.5806   -5.4521    9.4328 H   0  0  0  0  0  0  0  0  0  0  0  0  # atno 2472 bound_to 2467
    2.5028   -7.5744    4.6703 H   0  0  0  0  0  0  0  0  0  0  0  0  # atno 2515 bound_to 2510
   -2.5098  -17.8990   14.3572 H   0  0  0  0  0  0  0  0  0  0  0  0  # atno 3721 bound_to 3712
   -4.1797  -22.4271   11.6118 H   0  0  0  0  0  0  0  0  0  0  0  0  # atno 3767 bound_to 3762
    1.7916  -20.5535    9.5843 H   0  0  0  0  0  0  0  0  0  0  0  0  # atno 3841 bound_to 3832
    4.5051   -8.5154    4.2976 LP  0  0  0  0  0  0  0  0  0  0  0  0  # atno 4297 bound_to 1298
    4.5278  -10.0322    4.9021 LP  0  0  0  0  0  0  0  0  0  0  0  0  # atno 4298 bound_to 1298
    0.4459   -8.4184    7.2526 LP  0  0  0  0  0  0  0  0  0  0  0  0  # atno 4299 bound_to 2456
    1.2609   -9.2670    8.3849 LP  0  0  0  0  0  0  0  0  0  0  0  0  # atno 4300 bound_to 2456
    2.7411   -9.1702    4.9206 LP  0  0  0  0  0  0  0  0  0  0  0  0  # atno 4301 bound_to 2510
    2.0527   -8.2549    6.0846 LP  0  0  0  0  0  0  0  0  0  0  0  0  # atno 4302 bound_to 2510
   -3.4865  -16.6249   14.3311 LP  0  0  0  0  0  0  0  0  0  0  0  0  # atno 4306 bound_to 3712
   -3.1436  -17.4367   12.9563 LP  0  0  0  0  0  0  0  0  0  0  0  0  # atno 4307 bound_to 3712
    2.0556  -19.6400    8.2913 LP  0  0  0  0  0  0  0  0  0  0  0  0  # atno 4314 bound_to 3832
    3.1043  -20.8228    8.7010 LP  0  0  0  0  0  0  0  0  0  0  0  0  # atno 4315 bound_to 3832
   -4.4516  -23.3150   10.2685 LP  0  0  0  0  0  0  0  0  0  0  0  0  # atno 4318 bound_to 3762
   -5.4959  -22.1328   10.6910 LP  0  0  0  0  0  0  0  0  0  0  0  0  # atno 4319 bound_to 3762
   -5.3803   -5.0474    8.0679 LP  0  0  0  0  0  0  0  0  0  0  0  0  # atno 4320 bound_to 2467
   -3.7560   -4.8941    8.1386 LP  0  0  0  0  0  0  0  0  0  0  0  0  # atno 4321 bound_to 2467

> <Gold.Score>
     Score     S(PLP)   S(hbond)     S(cho)   S(metal)  DE(clash)   DE(tors)     intcor
     61.58     -54.35       2.69       0.00       0.00       0.00       0.47       0.11

> <Gold.PLP.Fitness>
61.5849

> <Gold.PLP.PLP>
-54.3479

> <Gold.PLP.part.hbond>
-3.1758

> <Gold.PLP.part.metal>
0.0000

> <Gold.PLP.part.buried>
-3.0144

> <Gold.PLP.part.nonpolar>
-49.8877

> <Gold.PLP.part.repulsive>
0.2676

> <Gold.PLP.ligand.clash>
0.0000

> <Gold.PLP.ligand.torsion>
0.4671

> <Gold.PLP.Chemscore.Hbond>
2.6880

> <Gold.PLP.Chemscore.CHOScore>
0.0000

> <Gold.PLP.Chemscore.Metal>
0.0000

> <Gold.Chemscore.Hbonds>
donor molecule, donor type, donor heavy atom, donor atom, acceptor molecule, acceptor atom, score
      P1  H  2305  2313       L1    20  1.00
      P1  H  3712  3721       L1    21  0.69
      P1  H  3832  3841       L1     3  1.00

> <Gold.PLP.Chemscore.Internal.Correction>
0.1073

