#       Name:                EN300-719569_i001
#       Creating user name   fsindt
#       Creation time:       Mon Feb 27 17:08:32 2023


#       File generated by GOLD software.
#

@<TRIPOS>MOLECULE
EN300-719569_i001|acide_3|mol2|26|dock13
    40    40     1
SMALL
USER_CHARGES


@<TRIPOS>ATOM
      1 N1          -2.3333  -9.4711  10.2040 N.am           1 <1>                0.0000
      2 C2          -1.3044 -10.3248  10.3745 C.2            1 <1>                0.0000
      3 O3          -0.3822 -10.0251  11.1031 O.2            1 <1>                0.0000
      4 C4          -1.2996 -11.6516   9.6599 C.3            1 <1>                0.0000
      5 C5          -0.0465 -12.4373  10.0517 C.3            1 <1>                0.0000
      6 C6          -0.1041 -13.8331   9.4278 C.3            1 <1>                0.0000
      7 N7           0.6529 -14.7715  10.2597 N.am           1 <1>                0.0000
      8 C8           0.2864 -14.9849  11.5391 C.2            1 <1>                0.0000
      9 O9          -0.6701 -14.4000  12.0015 O.2            1 <1>                0.0000
     10 C10          1.0653 -15.9503  12.3950 C.3            1 <1>                0.0000
     11 C11          0.2937 -16.2226  13.6879 C.3            1 <1>                0.0000
     12 C12          0.9943 -17.3313  14.4759 C.3            1 <1>                0.0000
     13 C13          0.6596 -18.6686  13.8673 C.ar           1 <1>                0.0000
     14 C14         -0.1201 -19.5707  14.5667 C.ar           1 <1>                0.0000
     15 C15         -0.4270 -20.7975  14.0084 C.ar           1 <1>                0.0000
     16 C16          0.0453 -21.1219  12.7504 C.ar           1 <1>                0.0000
     17 C17          0.8242 -20.2194  12.0505 C.ar           1 <1>                0.0000
     18 C18          1.1275 -18.9910  12.6071 C.ar           1 <1>                0.0000
     19 C19          0.4953 -13.7907   8.0457 C.2            1 <1>                0.0000
     20 O20          0.9546 -12.7478   7.6122 O.co2          1 <1>                0.0000
     21 O21          0.5209 -14.7992   7.3611 O.co2          1 <1>               -1.0000
     22 H22         -2.1868 -12.2188   9.9411 H              1 <1>                0.0000
     23 H23         -1.3016 -11.4841   8.5829 H              1 <1>                0.0000
     24 H24          0.8384 -11.9138   9.6900 H              1 <1>                0.0000
     25 H25          0.0021 -12.5262  11.1369 H              1 <1>                0.0000
     26 H26         -1.1420 -14.1599   9.3636 H              1 <1>                0.0000
     27 H27          1.2063 -16.8850  11.8522 H              1 <1>                0.0000
     28 H28          2.0373 -15.5197  12.6358 H              1 <1>                0.0000
     29 H29          0.2608 -15.3143  14.2895 H              1 <1>                0.0000
     30 H30         -0.7221 -16.5351  13.4458 H              1 <1>                0.0000
     31 H31          2.0725 -17.1759  14.4413 H              1 <1>                0.0000
     32 H32          0.6570 -17.3091  15.5123 H              1 <1>                0.0000
     33 H33         -0.4891 -19.3172  15.5495 H              1 <1>                0.0000
     34 H34         -1.0356 -21.5025  14.5551 H              1 <1>                0.0000
     35 H35         -0.1940 -22.0806  12.3144 H              1 <1>                0.0000
     36 H36          1.1935 -20.4731  11.0679 H              1 <1>                0.0000
     37 H37          1.7361 -18.2859  12.0603 H              1 <1>                0.0000
     38 H38         -2.3345  -8.6155  10.6609 H              1 <1>                0.0000
     39 H39         -3.0708  -9.7108   9.6212 H              1 <1>                0.0000
     40 H40          1.4180 -15.2393   9.8899 H              1 <1>                0.0000
@<TRIPOS>BOND
    1    1    2 am    
    2    1   38 1     
    3    1   39 1     
    4    2    3 2     
    5    2    4 1     
    6    4    5 1     
    7    4   22 1     
    8    4   23 1     
    9    5    6 1     
   10    5   24 1     
   11    5   25 1     
   12    6    7 1     
   13    6   19 1     
   14    6   26 1     
   15    7    8 am    
   16    7   40 1     
   17    8    9 2     
   18    8   10 1     
   19   10   11 1     
   20   10   27 1     
   21   10   28 1     
   22   11   12 1     
   23   11   29 1     
   24   11   30 1     
   25   12   13 1     
   26   12   31 1     
   27   12   32 1     
   28   13   14 ar    
   29   13   18 ar    
   30   14   15 ar    
   31   14   33 1     
   32   15   16 ar    
   33   15   34 1     
   34   16   17 ar    
   35   16   35 1     
   36   17   18 ar    
   37   17   36 1     
   38   18   37 1     
   39   19   20 ar    
   40   19   21 ar    
@<TRIPOS>SUBSTRUCTURE
      1 ****           1
@<TRIPOS>SET
DONOR_HYDROGENS      STATIC     ATOMS    <user>   **** ""
3 38 39 40
ATOM$RED        STATIC     ATOMS    COLORGROUP SYSTEM
3 38 39 40
@<TRIPOS>COMMENT
> <Gold.Version>
2022.2.0

> <Gold.Id.Protein>
3pbl|protein|mol2

> <Gold.Protein.RotatedTorsions>
[ 1303 1298 1297 1294 ] final  -72.34 input  179.99 | X-H torsion
[ 2461 2456 2455 2452 ] final    1.87 input   30.03 | X-H torsion
[ 2515 2510 2509 2506 ] final  105.45 input  -89.99 | X-H torsion
[ 3721 3712 3711 3710 ] final  105.53 input -179.91 | X-H torsion
[ 3841 3832 3831 3830 ] final   68.96 input -179.91 | X-H torsion
[ 3767 3762 3761 3758 ] final -132.21 input  -89.99 | X-H torsion
[ 2472 2467 2466 2463 ] final   78.73 input  -89.97 | X-H torsion

> <Gold.Protein.ActiveResidues>
 VAL82   VAL86   LEU89   PHE106  VAL107  ASP110  VAL111  MET112  CYS114  THR115 
 CYS181  SER182  ILE183  PHE188  VAL189  ILE190  SER192  SER193  SER196  TRP342 
 PHE345  PHE346  HIS349  VAL350  TYR365  THR369  GLY372  TYR373 

> <Gold.Protein.RotatedAtoms>
    3.6175   -8.8134    3.7971 H   0  0  0  0  0  0  0  0  0  0  0  0  # atno 1303 bound_to 1298
    1.0702   -7.9786    7.0312 H   0  0  0  0  0  0  0  0  0  0  0  0  # atno 2461 bound_to 2456
   -4.9396   -4.8733    7.7172 H   0  0  0  0  0  0  0  0  0  0  0  0  # atno 2472 bound_to 2467
    2.0288   -7.9431    5.9823 H   0  0  0  0  0  0  0  0  0  0  0  0  # atno 2515 bound_to 2510
   -2.9000  -17.4224   13.0398 H   0  0  0  0  0  0  0  0  0  0  0  0  # atno 3721 bound_to 3712
   -4.6783  -22.0409   11.5967 H   0  0  0  0  0  0  0  0  0  0  0  0  # atno 3767 bound_to 3762
    2.5902  -20.9565    9.4506 H   0  0  0  0  0  0  0  0  0  0  0  0  # atno 3841 bound_to 3832
    4.9013   -9.0461    4.7789 LP  0  0  0  0  0  0  0  0  0  0  0  0  # atno 4297 bound_to 1298
    3.8436  -10.2621    4.5158 LP  0  0  0  0  0  0  0  0  0  0  0  0  # atno 4298 bound_to 1298
    0.5558   -9.1613    8.0332 LP  0  0  0  0  0  0  0  0  0  0  0  0  # atno 4299 bound_to 2456
    2.1117   -8.6681    8.0835 LP  0  0  0  0  0  0  0  0  0  0  0  0  # atno 4300 bound_to 2456
    2.6350   -7.8020    4.4729 LP  0  0  0  0  0  0  0  0  0  0  0  0  # atno 4301 bound_to 2510
    2.6331   -9.2542    5.2197 LP  0  0  0  0  0  0  0  0  0  0  0  0  # atno 4302 bound_to 2510
   -2.6802  -18.0026   14.5206 LP  0  0  0  0  0  0  0  0  0  0  0  0  # atno 4306 bound_to 3712
   -3.4993  -16.6093   14.2878 LP  0  0  0  0  0  0  0  0  0  0  0  0  # atno 4307 bound_to 3712
    1.4135  -19.9697    8.9840 LP  0  0  0  0  0  0  0  0  0  0  0  0  # atno 4314 bound_to 3832
    2.8237  -20.0277    8.1627 LP  0  0  0  0  0  0  0  0  0  0  0  0  # atno 4315 bound_to 3832
   -4.0304  -23.2679   10.7356 LP  0  0  0  0  0  0  0  0  0  0  0  0  # atno 4318 bound_to 3762
   -5.4187  -22.5660   10.2391 LP  0  0  0  0  0  0  0  0  0  0  0  0  # atno 4319 bound_to 3762
   -3.6414   -5.0789    8.6862 LP  0  0  0  0  0  0  0  0  0  0  0  0  # atno 4320 bound_to 2467
   -5.1360   -5.4413    9.2355 LP  0  0  0  0  0  0  0  0  0  0  0  0  # atno 4321 bound_to 2467

> <Gold.Score>
     Score     S(PLP)   S(hbond)     S(cho)   S(metal)  DE(clash)   DE(tors)     intcor
     52.34     -50.48       0.99       0.00       0.00       0.00       0.61       0.11

> <Gold.PLP.Fitness>
52.3418

> <Gold.PLP.PLP>
-50.4773

> <Gold.PLP.part.hbond>
-1.0000

> <Gold.PLP.part.metal>
0.0000

> <Gold.PLP.part.buried>
-9.4000

> <Gold.PLP.part.nonpolar>
-40.0578

> <Gold.PLP.part.repulsive>
0.3372

> <Gold.PLP.ligand.clash>
0.0000

> <Gold.PLP.ligand.torsion>
0.6083

> <Gold.PLP.Chemscore.Hbond>
0.9913

> <Gold.PLP.Chemscore.CHOScore>
0.0000

> <Gold.PLP.Chemscore.Metal>
0.0000

> <Gold.Chemscore.Hbonds>
donor molecule, donor type, donor heavy atom, donor atom, acceptor molecule, acceptor atom, score
      L1  H     1    38       P1  2398  0.99

> <Gold.PLP.Chemscore.Internal.Correction>
0.1073

