#       Name:                EN300-719569_i001
#       Creating user name   fsindt
#       Creation time:       Mon Feb 27 17:08:35 2023


#       File generated by GOLD software.
#

@<TRIPOS>MOLECULE
EN300-719569_i001|acide_3|mol2|26|dock15
    40    40     1
SMALL
USER_CHARGES


@<TRIPOS>ATOM
      1 N1          -2.7113  -9.0022  10.1896 N.am           1 <1>                0.0000
      2 C2          -3.3692 -10.1401   9.8918 C.2            1 <1>                0.0000
      3 O3          -4.5614 -10.1112   9.6710 O.2            1 <1>                0.0000
      4 C4          -2.6236 -11.4485   9.8333 C.3            1 <1>                0.0000
      5 C5          -1.3218 -11.2592   9.0520 C.3            1 <1>                0.0000
      6 C6          -0.5833 -12.5960   8.9601 C.3            1 <1>                0.0000
      7 N7          -0.3114 -13.0974  10.3095 N.am           1 <1>                0.0000
      8 C8          -0.0758 -14.4099  10.5058 C.2            1 <1>                0.0000
      9 O9          -0.0887 -15.1756   9.5655 O.2            1 <1>                0.0000
     10 C10          0.2039 -14.9257  11.8939 C.3            1 <1>                0.0000
     11 C11          0.2114 -16.4556  11.8775 C.3            1 <1>                0.0000
     12 C12          0.1507 -16.9813  13.3131 C.3            1 <1>                0.0000
     13 C13          0.5905 -18.4224  13.3393 C.ar           1 <1>                0.0000
     14 C14          0.6088 -19.1609  12.1710 C.ar           1 <1>                0.0000
     15 C15          1.0122 -20.4828  12.1950 C.ar           1 <1>                0.0000
     16 C16          1.3977 -21.0662  13.3874 C.ar           1 <1>                0.0000
     17 C17          1.3803 -20.3275  14.5558 C.ar           1 <1>                0.0000
     18 C18          0.9811 -19.0043  14.5309 C.ar           1 <1>                0.0000
     19 C19          0.7178 -12.4015   8.2249 C.2            1 <1>                0.0000
     20 O20          1.3858 -13.3689   7.9017 O.co2          1 <1>                0.0000
     21 O21          1.1024 -11.2769   7.9533 O.co2          1 <1>               -1.0000
     22 H22         -2.3946 -11.7816  10.8456 H              1 <1>                0.0000
     23 H23         -3.2408 -12.1964   9.3355 H              1 <1>                0.0000
     24 H24         -1.5495 -10.9001   8.0483 H              1 <1>                0.0000
     25 H25         -0.6931 -10.5312   9.5645 H              1 <1>                0.0000
     26 H26         -1.2003 -13.3158   8.4224 H              1 <1>                0.0000
     27 H27          1.1752 -14.5611  12.2282 H              1 <1>                0.0000
     28 H28         -0.5706 -14.5734  12.5753 H              1 <1>                0.0000
     29 H29         -0.6535 -16.8172  11.3213 H              1 <1>                0.0000
     30 H30          1.1247 -16.8094  11.3994 H              1 <1>                0.0000
     31 H31          0.8114 -16.3883  13.9454 H              1 <1>                0.0000
     32 H32         -0.8714 -16.9065  13.6846 H              1 <1>                0.0000
     33 H33          0.3076 -18.7051  11.2393 H              1 <1>                0.0000
     34 H34          1.0258 -21.0600  11.2823 H              1 <1>                0.0000
     35 H35          1.7123 -22.0993  13.4064 H              1 <1>                0.0000
     36 H36          1.6812 -20.7834  15.4874 H              1 <1>                0.0000
     37 H37          0.9674 -18.4272  15.4437 H              1 <1>                0.0000
     38 H38         -3.1919  -8.1607  10.2310 H              1 <1>                0.0000
     39 H39         -1.7577  -9.0254  10.3663 H              1 <1>                0.0000
     40 H40         -0.3011 -12.4849  11.0616 H              1 <1>                0.0000
@<TRIPOS>BOND
    1    1    2 am    
    2    1   38 1     
    3    1   39 1     
    4    2    3 2     
    5    2    4 1     
    6    4    5 1     
    7    4   22 1     
    8    4   23 1     
    9    5    6 1     
   10    5   24 1     
   11    5   25 1     
   12    6    7 1     
   13    6   19 1     
   14    6   26 1     
   15    7    8 am    
   16    7   40 1     
   17    8    9 2     
   18    8   10 1     
   19   10   11 1     
   20   10   27 1     
   21   10   28 1     
   22   11   12 1     
   23   11   29 1     
   24   11   30 1     
   25   12   13 1     
   26   12   31 1     
   27   12   32 1     
   28   13   14 ar    
   29   13   18 ar    
   30   14   15 ar    
   31   14   33 1     
   32   15   16 ar    
   33   15   34 1     
   34   16   17 ar    
   35   16   35 1     
   36   17   18 ar    
   37   17   36 1     
   38   18   37 1     
   39   19   20 ar    
   40   19   21 ar    
@<TRIPOS>SUBSTRUCTURE
      1 ****           1
@<TRIPOS>SET
DONOR_HYDROGENS      STATIC     ATOMS    <user>   **** ""
3 38 39 40
ATOM$RED        STATIC     ATOMS    COLORGROUP SYSTEM
3 38 39 40
@<TRIPOS>COMMENT
> <Gold.Version>
2022.2.0

> <Gold.Id.Protein>
3pbl|protein|mol2

> <Gold.Protein.RotatedTorsions>
[ 1303 1298 1297 1294 ] final  -75.54 input  179.99 | X-H torsion
[ 2461 2456 2455 2452 ] final -153.75 input   30.03 | X-H torsion
[ 2515 2510 2509 2506 ] final   43.71 input  -89.99 | X-H torsion
[ 3721 3712 3711 3710 ] final  -24.78 input -179.91 | X-H torsion
[ 3841 3832 3831 3830 ] final   34.27 input -179.91 | X-H torsion
[ 3767 3762 3761 3758 ] final -109.94 input  -89.99 | X-H torsion
[ 2472 2467 2466 2463 ] final -126.86 input  -89.97 | X-H torsion

> <Gold.Protein.ActiveResidues>
 VAL82   VAL86   LEU89   PHE106  VAL107  ASP110  VAL111  MET112  CYS114  THR115 
 CYS181  SER182  ILE183  PHE188  VAL189  ILE190  SER192  SER193  SER196  TRP342 
 PHE345  PHE346  HIS349  VAL350  TYR365  THR369  GLY372  TYR373 

> <Gold.Protein.RotatedAtoms>
    3.6524   -8.7750    3.8065 H   0  0  0  0  0  0  0  0  0  0  0  0  # atno 1303 bound_to 1298
    1.0351   -9.2888    8.3278 H   0  0  0  0  0  0  0  0  0  0  0  0  # atno 2461 bound_to 2456
   -4.6137   -5.4550    9.4309 H   0  0  0  0  0  0  0  0  0  0  0  0  # atno 2472 bound_to 2467
    2.2423   -7.4102    5.2040 H   0  0  0  0  0  0  0  0  0  0  0  0  # atno 2515 bound_to 2510
   -2.5759  -17.7550   14.5417 H   0  0  0  0  0  0  0  0  0  0  0  0  # atno 3721 bound_to 3712
   -4.9844  -21.9309   11.4328 H   0  0  0  0  0  0  0  0  0  0  0  0  # atno 3767 bound_to 3762
    2.1215  -20.8166    9.6157 H   0  0  0  0  0  0  0  0  0  0  0  0  # atno 3841 bound_to 3832
    4.9074   -9.0933    4.8015 LP  0  0  0  0  0  0  0  0  0  0  0  0  # atno 4297 bound_to 1298
    3.8026  -10.2532    4.4838 LP  0  0  0  0  0  0  0  0  0  0  0  0  # atno 4298 bound_to 1298
    2.1227   -8.2582    7.6779 LP  0  0  0  0  0  0  0  0  0  0  0  0  # atno 4299 bound_to 2456
    0.5799   -8.2614    7.1426 LP  0  0  0  0  0  0  0  0  0  0  0  0  # atno 4300 bound_to 2456
    2.8356   -8.7484    4.4810 LP  0  0  0  0  0  0  0  0  0  0  0  0  # atno 4301 bound_to 2510
    2.2189   -8.8410    5.9902 LP  0  0  0  0  0  0  0  0  0  0  0  0  # atno 4302 bound_to 2510
   -3.5450  -16.5624   14.0763 LP  0  0  0  0  0  0  0  0  0  0  0  0  # atno 4306 bound_to 3712
   -3.0088  -17.6655   12.9982 LP  0  0  0  0  0  0  0  0  0  0  0  0  # atno 4307 bound_to 3712
    1.6792  -19.6862    8.5656 LP  0  0  0  0  0  0  0  0  0  0  0  0  # atno 4314 bound_to 3832
    3.0995  -20.4727    8.3904 LP  0  0  0  0  0  0  0  0  0  0  0  0  # atno 4315 bound_to 3832
   -3.9191  -23.1052   11.0418 LP  0  0  0  0  0  0  0  0  0  0  0  0  # atno 4318 bound_to 3762
   -5.2239  -22.8388   10.0967 LP  0  0  0  0  0  0  0  0  0  0  0  0  # atno 4319 bound_to 3762
   -5.3630   -5.0360    8.0418 LP  0  0  0  0  0  0  0  0  0  0  0  0  # atno 4320 bound_to 2467
   -3.7402   -4.9025    8.1667 LP  0  0  0  0  0  0  0  0  0  0  0  0  # atno 4321 bound_to 2467

> <Gold.Score>
     Score     S(PLP)   S(hbond)     S(cho)   S(metal)  DE(clash)   DE(tors)     intcor
     54.43     -51.59       1.63       0.00       0.00       0.00       1.08       0.11

> <Gold.PLP.Fitness>
54.4298

> <Gold.PLP.PLP>
-51.5884

> <Gold.PLP.part.hbond>
-1.6480

> <Gold.PLP.part.metal>
0.0000

> <Gold.PLP.part.buried>
-7.2329

> <Gold.PLP.part.nonpolar>
-42.5435

> <Gold.PLP.part.repulsive>
0.4098

> <Gold.PLP.ligand.clash>
0.0000

> <Gold.PLP.ligand.torsion>
1.0810

> <Gold.PLP.Chemscore.Hbond>
1.6320

> <Gold.PLP.Chemscore.CHOScore>
0.0000

> <Gold.PLP.Chemscore.Metal>
0.0000

> <Gold.Chemscore.Hbonds>
donor molecule, donor type, donor heavy atom, donor atom, acceptor molecule, acceptor atom, score
      L1  H     1    38       P1  2398  0.72
      P1  H  2456  2461       L1    21  0.91

> <Gold.PLP.Chemscore.Internal.Correction>
0.1073

