#       Name:                EN300-719569_i001
#       Creating user name   fsindt
#       Creation time:       Mon Feb 27 17:08:19 2023


#       File generated by GOLD software.
#

@<TRIPOS>MOLECULE
EN300-719569_i001|acide_3|mol2|26|dock3
    40    40     1
SMALL
USER_CHARGES


@<TRIPOS>ATOM
      1 N1          -1.8830  -9.3654  10.3233 N.am           1 <1>                0.0000
      2 C2          -2.7762 -10.3455  10.0825 C.2            1 <1>                0.0000
      3 O3          -3.9325 -10.2089  10.4218 O.2            1 <1>                0.0000
      4 C4          -2.3381 -11.6112   9.3918 C.3            1 <1>                0.0000
      5 C5          -1.1737 -12.2362  10.1628 C.3            1 <1>                0.0000
      6 C6          -0.3425 -13.1042   9.2158 C.3            1 <1>                0.0000
      7 N7           0.7515 -13.7311   9.9616 N.am           1 <1>                0.0000
      8 C8           0.4791 -14.5396  11.0051 C.2            1 <1>                0.0000
      9 O9          -0.6715 -14.7482  11.3265 O.2            1 <1>                0.0000
     10 C10          1.6046 -15.1845  11.7723 C.3            1 <1>                0.0000
     11 C11          1.0543 -16.3416  12.6085 C.3            1 <1>                0.0000
     12 C12          2.2086 -17.0517  13.3186 C.3            1 <1>                0.0000
     13 C13          1.8576 -18.5034  13.5198 C.ar           1 <1>                0.0000
     14 C14          1.6994 -19.3342  12.4265 C.ar           1 <1>                0.0000
     15 C15          1.3774 -20.6658  12.6110 C.ar           1 <1>                0.0000
     16 C16          1.2141 -21.1666  13.8890 C.ar           1 <1>                0.0000
     17 C17          1.3732 -20.3360  14.9825 C.ar           1 <1>                0.0000
     18 C18          1.6995 -19.0055  14.7981 C.ar           1 <1>                0.0000
     19 C19          0.2267 -12.2450   8.1163 C.2            1 <1>                0.0000
     20 O20          0.1044 -11.0329   8.1646 O.co2          1 <1>                0.0000
     21 O21          0.8095 -12.7620   7.1785 O.co2          1 <1>               -1.0000
     22 H22         -3.1708 -12.3139   9.3588 H              1 <1>                0.0000
     23 H23         -2.0184 -11.3788   8.3761 H              1 <1>                0.0000
     24 H24         -0.5465 -11.4465  10.5765 H              1 <1>                0.0000
     25 H25         -1.5634 -12.8526  10.9728 H              1 <1>                0.0000
     26 H26         -0.9762 -13.8774   8.7814 H              1 <1>                0.0000
     27 H27          2.3503 -15.5637  11.0735 H              1 <1>                0.0000
     28 H28          2.0649 -14.4474  12.4303 H              1 <1>                0.0000
     29 H29          0.3552 -15.9541  13.3495 H              1 <1>                0.0000
     30 H30          0.5391 -17.0477  11.9573 H              1 <1>                0.0000
     31 H31          3.1102 -16.9768  12.7108 H              1 <1>                0.0000
     32 H32          2.3832 -16.5825  14.2869 H              1 <1>                0.0000
     33 H33          1.8270 -18.9429  11.4279 H              1 <1>                0.0000
     34 H34          1.2531 -21.3148  11.7568 H              1 <1>                0.0000
     35 H35          0.9619 -22.2069  14.0333 H              1 <1>                0.0000
     36 H36          1.2453 -20.7273  15.9810 H              1 <1>                0.0000
     37 H37          1.8238 -18.3565  15.6524 H              1 <1>                0.0000
     38 H38         -2.1641  -8.5523  10.7713 H              1 <1>                0.0000
     39 H39         -0.9581  -9.4747  10.0520 H              1 <1>                0.0000
     40 H40          1.6718 -13.5643   9.7046 H              1 <1>                0.0000
@<TRIPOS>BOND
    1    1    2 am    
    2    1   38 1     
    3    1   39 1     
    4    2    3 2     
    5    2    4 1     
    6    4    5 1     
    7    4   22 1     
    8    4   23 1     
    9    5    6 1     
   10    5   24 1     
   11    5   25 1     
   12    6    7 1     
   13    6   19 1     
   14    6   26 1     
   15    7    8 am    
   16    7   40 1     
   17    8    9 2     
   18    8   10 1     
   19   10   11 1     
   20   10   27 1     
   21   10   28 1     
   22   11   12 1     
   23   11   29 1     
   24   11   30 1     
   25   12   13 1     
   26   12   31 1     
   27   12   32 1     
   28   13   14 ar    
   29   13   18 ar    
   30   14   15 ar    
   31   14   33 1     
   32   15   16 ar    
   33   15   34 1     
   34   16   17 ar    
   35   16   35 1     
   36   17   18 ar    
   37   17   36 1     
   38   18   37 1     
   39   19   20 ar    
   40   19   21 ar    
@<TRIPOS>SUBSTRUCTURE
      1 ****           1
@<TRIPOS>SET
DONOR_HYDROGENS      STATIC     ATOMS    <user>   **** ""
3 38 39 40
ATOM$RED        STATIC     ATOMS    COLORGROUP SYSTEM
3 38 39 40
@<TRIPOS>COMMENT
> <Gold.Version>
2022.2.0

> <Gold.Id.Protein>
3pbl|protein|mol2

> <Gold.Protein.RotatedTorsions>
[ 1303 1298 1297 1294 ] final  114.23 input  179.99 | X-H torsion
[ 2461 2456 2455 2452 ] final -119.64 input   30.03 | X-H torsion
[ 2515 2510 2509 2506 ] final  -87.03 input  -89.99 | X-H torsion
[ 3721 3712 3711 3710 ] final   55.01 input -179.91 | X-H torsion
[ 3841 3832 3831 3830 ] final   60.86 input -179.91 | X-H torsion
[ 3767 3762 3761 3758 ] final  135.98 input  -89.99 | X-H torsion
[ 2472 2467 2466 2463 ] final -106.09 input  -89.97 | X-H torsion

> <Gold.Protein.ActiveResidues>
 VAL82   VAL86   LEU89   PHE106  VAL107  ASP110  VAL111  MET112  CYS114  THR115 
 CYS181  SER182  ILE183  PHE188  VAL189  ILE190  SER192  SER193  SER196  TRP342 
 PHE345  PHE346  HIS349  VAL350  TYR365  THR369  GLY372  TYR373 

> <Gold.Protein.RotatedAtoms>
    4.6901   -9.8500    4.9448 H   0  0  0  0  0  0  0  0  0  0  0  0  # atno 1303 bound_to 1298
    0.5717   -9.1718    8.0492 H   0  0  0  0  0  0  0  0  0  0  0  0  # atno 2461 bound_to 2456
   -4.2787   -5.4067    9.3989 H   0  0  0  0  0  0  0  0  0  0  0  0  # atno 2472 bound_to 2467
    2.8261   -8.8949    4.5790 H   0  0  0  0  0  0  0  0  0  0  0  0  # atno 2515 bound_to 2510
   -2.5662  -17.9417   13.4464 H   0  0  0  0  0  0  0  0  0  0  0  0  # atno 3721 bound_to 3712
   -3.9085  -23.0482   11.1200 H   0  0  0  0  0  0  0  0  0  0  0  0  # atno 3767 bound_to 3762
    2.4824  -20.9453    9.5074 H   0  0  0  0  0  0  0  0  0  0  0  0  # atno 3841 bound_to 3832
    3.3604   -9.7950    3.9987 LP  0  0  0  0  0  0  0  0  0  0  0  0  # atno 4297 bound_to 1298
    4.3115   -8.4761    4.1478 LP  0  0  0  0  0  0  0  0  0  0  0  0  # atno 4298 bound_to 1298
    2.1192   -8.6501    8.0682 LP  0  0  0  0  0  0  0  0  0  0  0  0  # atno 4299 bound_to 2456
    1.0466   -7.9865    7.0309 LP  0  0  0  0  0  0  0  0  0  0  0  0  # atno 4300 bound_to 2456
    2.1587   -8.6879    6.0546 LP  0  0  0  0  0  0  0  0  0  0  0  0  # atno 4301 bound_to 2510
    2.3117   -7.4161    5.0419 LP  0  0  0  0  0  0  0  0  0  0  0  0  # atno 4302 bound_to 2510
   -3.0252  -17.3470   14.8654 LP  0  0  0  0  0  0  0  0  0  0  0  0  # atno 4306 bound_to 3712
   -3.5397  -16.6652   13.4736 LP  0  0  0  0  0  0  0  0  0  0  0  0  # atno 4307 bound_to 3712
    1.4505  -19.8850    8.8852 LP  0  0  0  0  0  0  0  0  0  0  0  0  # atno 4314 bound_to 3832
    2.9113  -20.1253    8.1960 LP  0  0  0  0  0  0  0  0  0  0  0  0  # atno 4315 bound_to 3832
   -5.1575  -22.9077   10.0774 LP  0  0  0  0  0  0  0  0  0  0  0  0  # atno 4318 bound_to 3762
   -5.0610  -21.9193   11.3737 LP  0  0  0  0  0  0  0  0  0  0  0  0  # atno 4319 bound_to 3762
   -5.4904   -5.1552    8.3336 LP  0  0  0  0  0  0  0  0  0  0  0  0  # atno 4320 bound_to 2467
   -3.9478   -4.8317    7.9068 LP  0  0  0  0  0  0  0  0  0  0  0  0  # atno 4321 bound_to 2467

> <Gold.Score>
     Score     S(PLP)   S(hbond)     S(cho)   S(metal)  DE(clash)   DE(tors)     intcor
     57.56     -52.84       2.00       0.00       0.00       0.00       0.69       0.11

> <Gold.PLP.Fitness>
57.5615

> <Gold.PLP.PLP>
-52.8431

> <Gold.PLP.part.hbond>
-2.0000

> <Gold.PLP.part.metal>
0.0000

> <Gold.PLP.part.buried>
-6.0952

> <Gold.PLP.part.nonpolar>
-45.9543

> <Gold.PLP.part.repulsive>
0.2819

> <Gold.PLP.ligand.clash>
0.0000

> <Gold.PLP.ligand.torsion>
0.6945

> <Gold.PLP.Chemscore.Hbond>
2.0000

> <Gold.PLP.Chemscore.CHOScore>
0.0000

> <Gold.PLP.Chemscore.Metal>
0.0000

> <Gold.Chemscore.Hbonds>
donor molecule, donor type, donor heavy atom, donor atom, acceptor molecule, acceptor atom, score
      L1  H     1    38       P1  2398  1.00
      P1  H  2456  2461       L1    20  1.00

> <Gold.PLP.Chemscore.Internal.Correction>
0.1073

