#       Name:                EN300-719569_i001
#       Creating user name   fsindt
#       Creation time:       Mon Feb 27 17:08:37 2023


#       File generated by GOLD software.
#

@<TRIPOS>MOLECULE
EN300-719569_i001|acide_3|mol2|26|dock16
    40    40     1
SMALL
USER_CHARGES


@<TRIPOS>ATOM
      1 N1          -2.7368 -10.8412  10.5119 N.am           1 <1>                0.0000
      2 C2          -1.5581 -11.2967  10.9806 C.2            1 <1>                0.0000
      3 O3          -0.7279 -10.5159  11.3954 O.2            1 <1>                0.0000
      4 C4          -1.2716 -12.7762  10.9891 C.3            1 <1>                0.0000
      5 C5           0.0191 -13.0502  10.2145 C.3            1 <1>                0.0000
      6 C6           0.0102 -14.4920   9.7025 C.3            1 <1>                0.0000
      7 N7           0.9741 -15.2875  10.4667 N.am           1 <1>                0.0000
      8 C8           0.8544 -15.3874  11.8055 C.2            1 <1>                0.0000
      9 O9          -0.0513 -14.8188  12.3774 O.2            1 <1>                0.0000
     10 C10          1.8461 -16.2058  12.5916 C.3            1 <1>                0.0000
     11 C11          1.2833 -16.4871  13.9862 C.3            1 <1>                0.0000
     12 C12          2.1150 -17.5798  14.6609 C.3            1 <1>                0.0000
     13 C13          1.6955 -18.9278  14.1340 C.ar           1 <1>                0.0000
     14 C14          1.2157 -19.8906  15.0021 C.ar           1 <1>                0.0000
     15 C15          0.8309 -21.1272  14.5187 C.ar           1 <1>                0.0000
     16 C16          0.9254 -21.4008  13.1671 C.ar           1 <1>                0.0000
     17 C17          1.4043 -20.4377  12.2987 C.ar           1 <1>                0.0000
     18 C18          1.7850 -19.1997  12.7815 C.ar           1 <1>                0.0000
     19 C19          0.3887 -14.5094   8.2439 C.2            1 <1>                0.0000
     20 O20          1.3528 -15.1566   7.8720 O.co2          1 <1>                0.0000
     21 O21         -0.2690 -13.8764   7.4357 O.co2          1 <1>               -1.0000
     22 H22         -1.1576 -13.1183  12.0177 H              1 <1>                0.0000
     23 H23         -2.0979 -13.3089  10.5185 H              1 <1>                0.0000
     24 H24          0.0881 -12.3650   9.3695 H              1 <1>                0.0000
     25 H25          0.8757 -12.9035  10.8722 H              1 <1>                0.0000
     26 H26         -0.9872 -14.9146   9.8240 H              1 <1>                0.0000
     27 H27          2.0285 -17.1488  12.0763 H              1 <1>                0.0000
     28 H28          2.7819 -15.6541  12.6818 H              1 <1>                0.0000
     29 H29          1.3245 -15.5772  14.5850 H              1 <1>                0.0000
     30 H30          0.2486 -16.8189  13.9004 H              1 <1>                0.0000
     31 H31          3.1710 -17.4179  14.4451 H              1 <1>                0.0000
     32 H32          1.9549 -17.5450  15.7386 H              1 <1>                0.0000
     33 H33          1.1419 -19.6768  16.0582 H              1 <1>                0.0000
     34 H34          0.4567 -21.8796  15.1971 H              1 <1>                0.0000
     35 H35          0.6254 -22.3672  12.7894 H              1 <1>                0.0000
     36 H36          1.4785 -20.6516  11.2427 H              1 <1>                0.0000
     37 H37          2.1592 -18.4472  12.1031 H              1 <1>                0.0000
     38 H38         -2.9196  -9.8886  10.5029 H              1 <1>                0.0000
     39 H39         -3.4007 -11.4657  10.1800 H              1 <1>                0.0000
     40 H40          1.6986 -15.7423  10.0092 H              1 <1>                0.0000
@<TRIPOS>BOND
    1    1    2 am    
    2    1   38 1     
    3    1   39 1     
    4    2    3 2     
    5    2    4 1     
    6    4    5 1     
    7    4   22 1     
    8    4   23 1     
    9    5    6 1     
   10    5   24 1     
   11    5   25 1     
   12    6    7 1     
   13    6   19 1     
   14    6   26 1     
   15    7    8 am    
   16    7   40 1     
   17    8    9 2     
   18    8   10 1     
   19   10   11 1     
   20   10   27 1     
   21   10   28 1     
   22   11   12 1     
   23   11   29 1     
   24   11   30 1     
   25   12   13 1     
   26   12   31 1     
   27   12   32 1     
   28   13   14 ar    
   29   13   18 ar    
   30   14   15 ar    
   31   14   33 1     
   32   15   16 ar    
   33   15   34 1     
   34   16   17 ar    
   35   16   35 1     
   36   17   18 ar    
   37   17   36 1     
   38   18   37 1     
   39   19   20 ar    
   40   19   21 ar    
@<TRIPOS>SUBSTRUCTURE
      1 ****           1
@<TRIPOS>SET
DONOR_HYDROGENS      STATIC     ATOMS    <user>   **** ""
3 38 39 40
ATOM$RED        STATIC     ATOMS    COLORGROUP SYSTEM
3 38 39 40
@<TRIPOS>COMMENT
> <Gold.Version>
2022.2.0

> <Gold.Id.Protein>
3pbl|protein|mol2

> <Gold.Protein.RotatedTorsions>
[ 1303 1298 1297 1294 ] final   17.64 input  179.99 | X-H torsion
[ 2461 2456 2455 2452 ] final   47.70 input   30.03 | X-H torsion
[ 2515 2510 2509 2506 ] final -105.06 input  -89.99 | X-H torsion
[ 3721 3712 3711 3710 ] final   -1.98 input -179.91 | X-H torsion
[ 3841 3832 3831 3830 ] final  175.66 input -179.91 | X-H torsion
[ 3767 3762 3761 3758 ] final  107.76 input  -89.99 | X-H torsion
[ 2472 2467 2466 2463 ] final -148.32 input  -89.97 | X-H torsion

> <Gold.Protein.ActiveResidues>
 VAL82   VAL86   LEU89   PHE106  VAL107  ASP110  VAL111  MET112  CYS114  THR115 
 CYS181  SER182  ILE183  PHE188  VAL189  ILE190  SER192  SER193  SER196  TRP342 
 PHE345  PHE346  HIS349  VAL350  TYR365  THR369  GLY372  TYR373 

> <Gold.Protein.RotatedAtoms>
    3.5098  -10.0754    4.2120 H   0  0  0  0  0  0  0  0  0  0  0  0  # atno 1303 bound_to 1298
    1.7680   -7.9635    7.2597 H   0  0  0  0  0  0  0  0  0  0  0  0  # atno 2461 bound_to 2456
   -4.9535   -5.4608    9.3432 H   0  0  0  0  0  0  0  0  0  0  0  0  # atno 2472 bound_to 2467
    2.7794   -9.0945    4.7917 H   0  0  0  0  0  0  0  0  0  0  0  0  # atno 2515 bound_to 2510
   -2.4913  -17.9447   14.2695 H   0  0  0  0  0  0  0  0  0  0  0  0  # atno 3721 bound_to 3712
   -4.0300  -23.2677   10.7348 H   0  0  0  0  0  0  0  0  0  0  0  0  # atno 3767 bound_to 3762
    2.9935  -20.1001    8.4341 H   0  0  0  0  0  0  0  0  0  0  0  0  # atno 3841 bound_to 3832
    3.9907   -8.5373    3.9487 LP  0  0  0  0  0  0  0  0  0  0  0  0  # atno 4297 bound_to 1298
    4.8619   -9.5084    4.9309 LP  0  0  0  0  0  0  0  0  0  0  0  0  # atno 4298 bound_to 1298
    0.3338   -8.7065    7.5013 LP  0  0  0  0  0  0  0  0  0  0  0  0  # atno 4299 bound_to 2456
    1.6362   -9.1380    8.3869 LP  0  0  0  0  0  0  0  0  0  0  0  0  # atno 4300 bound_to 2456
    2.0802   -8.4061    6.0967 LP  0  0  0  0  0  0  0  0  0  0  0  0  # atno 4301 bound_to 2510
    2.4369   -7.4981    4.7871 LP  0  0  0  0  0  0  0  0  0  0  0  0  # atno 4302 bound_to 2510
   -3.4528  -16.6687   14.4277 LP  0  0  0  0  0  0  0  0  0  0  0  0  # atno 4306 bound_to 3712
   -3.1986  -17.3401   12.9610 LP  0  0  0  0  0  0  0  0  0  0  0  0  # atno 4307 bound_to 3712
    2.3078  -21.1233    9.4632 LP  0  0  0  0  0  0  0  0  0  0  0  0  # atno 4314 bound_to 3832
    1.4636  -19.8633    8.8578 LP  0  0  0  0  0  0  0  0  0  0  0  0  # atno 4315 bound_to 3832
   -5.4188  -22.5658   10.2392 LP  0  0  0  0  0  0  0  0  0  0  0  0  # atno 4318 bound_to 3762
   -4.6783  -22.0418   11.5971 LP  0  0  0  0  0  0  0  0  0  0  0  0  # atno 4319 bound_to 3762
   -5.1237   -4.9261    7.8097 LP  0  0  0  0  0  0  0  0  0  0  0  0  # atno 4320 bound_to 2467
   -3.6397   -5.0067    8.4864 LP  0  0  0  0  0  0  0  0  0  0  0  0  # atno 4321 bound_to 2467

> <Gold.Score>
     Score     S(PLP)   S(hbond)     S(cho)   S(metal)  DE(clash)   DE(tors)     intcor
     55.51     -54.95       0.94       0.00       0.00       0.00       1.18       0.11

> <Gold.PLP.Fitness>
55.5117

> <Gold.PLP.PLP>
-54.9514

> <Gold.PLP.part.hbond>
-1.0000

> <Gold.PLP.part.metal>
0.0000

> <Gold.PLP.part.buried>
-9.3768

> <Gold.PLP.part.nonpolar>
-45.6744

> <Gold.PLP.part.repulsive>
0.3511

> <Gold.PLP.ligand.clash>
0.0000

> <Gold.PLP.ligand.torsion>
1.1772

> <Gold.PLP.Chemscore.Hbond>
0.9357

> <Gold.PLP.Chemscore.CHOScore>
0.0000

> <Gold.PLP.Chemscore.Metal>
0.0000

> <Gold.Chemscore.Hbonds>
donor molecule, donor type, donor heavy atom, donor atom, acceptor molecule, acceptor atom, score
      L1  H     7    40       P1  1227  0.94

> <Gold.PLP.Chemscore.Internal.Correction>
0.1073

