#       Name:                EN300-719569_i001
#       Creating user name   fsindt
#       Creation time:       Mon Feb 27 17:08:31 2023


#       File generated by GOLD software.
#

@<TRIPOS>MOLECULE
EN300-719569_i001|acide_3|mol2|26|dock12
    40    40     1
SMALL
USER_CHARGES


@<TRIPOS>ATOM
      1 N1          -3.1571  -9.3688   9.8973 N.am           1 <1>                0.0000
      2 C2          -2.0477 -10.0697  10.2044 C.2            1 <1>                0.0000
      3 O3          -1.1679  -9.5551  10.8618 O.2            1 <1>                0.0000
      4 C4          -1.9002 -11.4928   9.7309 C.3            1 <1>                0.0000
      5 C5          -0.5961 -12.0789  10.2754 C.3            1 <1>                0.0000
      6 C6          -0.1042 -13.1848   9.3396 C.3            1 <1>                0.0000
      7 N7           0.8911 -14.0054  10.0340 N.am           1 <1>                0.0000
      8 C8           0.5819 -14.5891  11.2089 C.2            1 <1>                0.0000
      9 O9          -0.5202 -14.4350  11.6911 O.2            1 <1>                0.0000
     10 C10          1.6057 -15.4332  11.9233 C.3            1 <1>                0.0000
     11 C11          0.9409 -16.1580  13.0953 C.3            1 <1>                0.0000
     12 C12          1.9100 -17.1927  13.6709 C.3            1 <1>                0.0000
     13 C13          1.1474 -18.1788  14.5176 C.ar           1 <1>                0.0000
     14 C14          1.7041 -19.4078  14.8179 C.ar           1 <1>                0.0000
     15 C15          1.0045 -20.3124  15.5945 C.ar           1 <1>                0.0000
     16 C16         -0.2517 -19.9877  16.0712 C.ar           1 <1>                0.0000
     17 C17         -0.8082 -18.7583  15.7716 C.ar           1 <1>                0.0000
     18 C18         -0.1068 -17.8521  14.9987 C.ar           1 <1>                0.0000
     19 C19          0.5206 -12.5661   8.1156 C.2            1 <1>                0.0000
     20 O20          0.6068 -11.3536   8.0219 O.co2          1 <1>                0.0000
     21 O21          0.9397 -13.2782   7.2190 O.co2          1 <1>               -1.0000
     22 H22         -2.7423 -12.0843  10.0903 H              1 <1>                0.0000
     23 H23         -1.8807 -11.5129   8.6413 H              1 <1>                0.0000
     24 H24          0.1573 -11.2935  10.3373 H              1 <1>                0.0000
     25 H25         -0.7707 -12.4939  11.2680 H              1 <1>                0.0000
     26 H26         -0.9461 -13.8095   9.0413 H              1 <1>                0.0000
     27 H27          2.0197 -16.1660  11.2306 H              1 <1>                0.0000
     28 H28          2.4058 -14.7945  12.2977 H              1 <1>                0.0000
     29 H29          0.6797 -15.4353  13.8684 H              1 <1>                0.0000
     30 H30          0.0382 -16.6599  12.7472 H              1 <1>                0.0000
     31 H31          2.4047 -17.7202  12.8554 H              1 <1>                0.0000
     32 H32          2.6574 -16.6889  14.2841 H              1 <1>                0.0000
     33 H33          2.6856 -19.6616  14.4455 H              1 <1>                0.0000
     34 H34          1.4392 -21.2729  15.8286 H              1 <1>                0.0000
     35 H35         -0.7987 -20.6947  16.6774 H              1 <1>                0.0000
     36 H36         -1.7899 -18.5047  16.1438 H              1 <1>                0.0000
     37 H37         -0.5415 -16.8915  14.7646 H              1 <1>                0.0000
     38 H38         -3.2503  -8.4516  10.1987 H              1 <1>                0.0000
     39 H39         -3.8607  -9.7803   9.3714 H              1 <1>                0.0000
     40 H40          1.7725 -14.1286   9.6483 H              1 <1>                0.0000
@<TRIPOS>BOND
    1    1    2 am    
    2    1   38 1     
    3    1   39 1     
    4    2    3 2     
    5    2    4 1     
    6    4    5 1     
    7    4   22 1     
    8    4   23 1     
    9    5    6 1     
   10    5   24 1     
   11    5   25 1     
   12    6    7 1     
   13    6   19 1     
   14    6   26 1     
   15    7    8 am    
   16    7   40 1     
   17    8    9 2     
   18    8   10 1     
   19   10   11 1     
   20   10   27 1     
   21   10   28 1     
   22   11   12 1     
   23   11   29 1     
   24   11   30 1     
   25   12   13 1     
   26   12   31 1     
   27   12   32 1     
   28   13   14 ar    
   29   13   18 ar    
   30   14   15 ar    
   31   14   33 1     
   32   15   16 ar    
   33   15   34 1     
   34   16   17 ar    
   35   16   35 1     
   36   17   18 ar    
   37   17   36 1     
   38   18   37 1     
   39   19   20 ar    
   40   19   21 ar    
@<TRIPOS>SUBSTRUCTURE
      1 ****           1
@<TRIPOS>SET
DONOR_HYDROGENS      STATIC     ATOMS    <user>   **** ""
3 38 39 40
ATOM$RED        STATIC     ATOMS    COLORGROUP SYSTEM
3 38 39 40
@<TRIPOS>COMMENT
> <Gold.Version>
2022.2.0

> <Gold.Id.Protein>
3pbl|protein|mol2

> <Gold.Protein.RotatedTorsions>
[ 1303 1298 1297 1294 ] final  135.18 input  179.99 | X-H torsion
[ 2461 2456 2455 2452 ] final -140.45 input   30.03 | X-H torsion
[ 2515 2510 2509 2506 ] final  -82.51 input  -89.99 | X-H torsion
[ 3721 3712 3711 3710 ] final  -52.82 input -179.91 | X-H torsion
[ 3841 3832 3831 3830 ] final   56.50 input -179.91 | X-H torsion
[ 3767 3762 3761 3758 ] final -177.83 input  -89.99 | X-H torsion
[ 2472 2467 2466 2463 ] final   25.28 input  -89.97 | X-H torsion

> <Gold.Protein.ActiveResidues>
 VAL82   VAL86   LEU89   PHE106  VAL107  ASP110  VAL111  MET112  CYS114  THR115 
 CYS181  SER182  ILE183  PHE188  VAL189  ILE190  SER192  SER193  SER196  TRP342 
 PHE345  PHE346  HIS349  VAL350  TYR365  THR369  GLY372  TYR373 

> <Gold.Protein.RotatedAtoms>
    4.8488   -9.5462    4.9372 H   0  0  0  0  0  0  0  0  0  0  0  0  # atno 1303 bound_to 1298
    0.8357   -9.2708    8.2403 H   0  0  0  0  0  0  0  0  0  0  0  0  # atno 2461 bound_to 2456
   -4.0978   -4.8097    7.7978 H   0  0  0  0  0  0  0  0  0  0  0  0  # atno 2472 bound_to 2467
    2.8318   -8.8352    4.5349 H   0  0  0  0  0  0  0  0  0  0  0  0  # atno 2515 bound_to 2510
   -2.7481  -17.4245   14.7345 H   0  0  0  0  0  0  0  0  0  0  0  0  # atno 3721 bound_to 3712
   -4.1146  -22.5060   11.5792 H   0  0  0  0  0  0  0  0  0  0  0  0  # atno 3767 bound_to 3762
    2.4232  -20.9336    9.5336 H   0  0  0  0  0  0  0  0  0  0  0  0  # atno 3841 bound_to 3832
    3.4889  -10.0510    4.1874 LP  0  0  0  0  0  0  0  0  0  0  0  0  # atno 4297 bound_to 1298
    4.0242   -8.5241    3.9668 LP  0  0  0  0  0  0  0  0  0  0  0  0  # atno 4298 bound_to 1298
    2.1596   -8.4039    7.8364 LP  0  0  0  0  0  0  0  0  0  0  0  0  # atno 4299 bound_to 2456
    0.7423   -8.1337    7.0717 LP  0  0  0  0  0  0  0  0  0  0  0  0  # atno 4300 bound_to 2456
    2.1830   -8.7542    6.0310 LP  0  0  0  0  0  0  0  0  0  0  0  0  # atno 4301 bound_to 2510
    2.2817   -7.4095    5.1097 LP  0  0  0  0  0  0  0  0  0  0  0  0  # atno 4302 bound_to 2510
   -3.5596  -16.6084   13.6150 LP  0  0  0  0  0  0  0  0  0  0  0  0  # atno 4306 bound_to 3712
   -2.7953  -18.0010   13.2368 LP  0  0  0  0  0  0  0  0  0  0  0  0  # atno 4307 bound_to 3712
    1.4772  -19.8435    8.8316 LP  0  0  0  0  0  0  0  0  0  0  0  0  # atno 4314 bound_to 3832
    2.9530  -20.1802    8.2192 LP  0  0  0  0  0  0  0  0  0  0  0  0  # atno 4315 bound_to 3832
   -4.5396  -23.2912   10.2119 LP  0  0  0  0  0  0  0  0  0  0  0  0  # atno 4318 bound_to 3762
   -5.4729  -22.0778   10.7803 LP  0  0  0  0  0  0  0  0  0  0  0  0  # atno 4319 bound_to 3762
   -4.1090   -5.3637    9.3338 LP  0  0  0  0  0  0  0  0  0  0  0  0  # atno 4320 bound_to 2467
   -5.5101   -5.2200    8.5074 LP  0  0  0  0  0  0  0  0  0  0  0  0  # atno 4321 bound_to 2467

> <Gold.Score>
     Score     S(PLP)   S(hbond)     S(cho)   S(metal)  DE(clash)   DE(tors)     intcor
     57.10     -52.58       1.99       0.00       0.00       0.01       0.77       0.11

> <Gold.PLP.Fitness>
57.1035

> <Gold.PLP.PLP>
-52.5768

> <Gold.PLP.part.hbond>
-2.0000

> <Gold.PLP.part.metal>
0.0000

> <Gold.PLP.part.buried>
-8.2303

> <Gold.PLP.part.nonpolar>
-44.4994

> <Gold.PLP.part.repulsive>
0.3147

> <Gold.PLP.ligand.clash>
0.0071

> <Gold.PLP.ligand.torsion>
0.7737

> <Gold.PLP.Chemscore.Hbond>
1.9913

> <Gold.PLP.Chemscore.CHOScore>
0.0000

> <Gold.PLP.Chemscore.Metal>
0.0000

> <Gold.Chemscore.Hbonds>
donor molecule, donor type, donor heavy atom, donor atom, acceptor molecule, acceptor atom, score
      L1  H     1    38       P1  2398  1.00
      P1  H  2456  2461       L1    20  0.99

> <Gold.PLP.Chemscore.Internal.Correction>
0.1073

