#       Name:                EN300-719569_i001
#       Creating user name   fsindt
#       Creation time:       Mon Feb 27 17:08:27 2023


#       File generated by GOLD software.
#

@<TRIPOS>MOLECULE
EN300-719569_i001|acide_3|mol2|26|dock9
    40    40     1
SMALL
USER_CHARGES


@<TRIPOS>ATOM
      1 N1          -2.6736  -9.5023  10.0466 N.am           1 <1>                0.0000
      2 C2          -1.6297 -10.3077  10.3258 C.2            1 <1>                0.0000
      3 O3          -0.8086  -9.9716  11.1527 O.2            1 <1>                0.0000
      4 C4          -1.4825 -11.6259   9.6104 C.3            1 <1>                0.0000
      5 C5          -0.2309 -12.3448  10.1181 C.3            1 <1>                0.0000
      6 C6          -0.1710 -13.7504   9.5169 C.3            1 <1>                0.0000
      7 N7           0.8281 -14.5462  10.2342 N.am           1 <1>                0.0000
      8 C8           0.6187 -14.8902  11.5204 C.2            1 <1>                0.0000
      9 O9          -0.3969 -14.5409  12.0840 O.2            1 <1>                0.0000
     10 C10          1.6465 -15.7088  12.2583 C.3            1 <1>                0.0000
     11 C11          1.1933 -15.9122  13.7055 C.3            1 <1>                0.0000
     12 C12         -0.0998 -16.7299  13.7248 C.3            1 <1>                0.0000
     13 C13          0.1444 -18.0711  13.0826 C.ar           1 <1>                0.0000
     14 C14          1.0866 -18.9311  13.6150 C.ar           1 <1>                0.0000
     15 C15          1.3107 -20.1614  13.0258 C.ar           1 <1>                0.0000
     16 C16          0.5922 -20.5318  11.9045 C.ar           1 <1>                0.0000
     17 C17         -0.3507 -19.6722  11.3726 C.ar           1 <1>                0.0000
     18 C18         -0.5778 -18.4438  11.9643 C.ar           1 <1>                0.0000
     19 C19          0.2103 -13.6585   8.0618 C.2            1 <1>                0.0000
     20 O20         -0.5294 -14.1163   7.2076 O.co2          1 <1>                0.0000
     21 O21          1.2587 -13.1264   7.7388 O.co2          1 <1>               -1.0000
     22 H22         -2.3596 -12.2437   9.8031 H              1 <1>                0.0000
     23 H23         -1.3907 -11.4494   8.5388 H              1 <1>                0.0000
     24 H24          0.6556 -11.7844   9.8211 H              1 <1>                0.0000
     25 H25         -0.2685 -12.4159  11.2051 H              1 <1>                0.0000
     26 H26         -1.1476 -14.2261   9.6071 H              1 <1>                0.0000
     27 H27          1.7561 -16.6783  11.7723 H              1 <1>                0.0000
     28 H28          2.6032 -15.1865  12.2472 H              1 <1>                0.0000
     29 H29          1.9680 -16.4443  14.2575 H              1 <1>                0.0000
     30 H30          1.0168 -14.9424  14.1706 H              1 <1>                0.0000
     31 H31         -0.4230 -16.8742  14.7556 H              1 <1>                0.0000
     32 H32         -0.8743 -16.1980  13.1721 H              1 <1>                0.0000
     33 H33          1.6479 -18.6417  14.4911 H              1 <1>                0.0000
     34 H34          2.0472 -20.8331  13.4414 H              1 <1>                0.0000
     35 H35          0.7677 -21.4928  11.4438 H              1 <1>                0.0000
     36 H36         -0.9117 -19.9615  10.4963 H              1 <1>                0.0000
     37 H37         -1.3144 -17.7721  11.5487 H              1 <1>                0.0000
     38 H38         -2.7662  -8.6521  10.5043 H              1 <1>                0.0000
     39 H39         -3.3302  -9.7711   9.3852 H              1 <1>                0.0000
     40 H40          1.6403 -14.8256   9.7835 H              1 <1>                0.0000
@<TRIPOS>BOND
    1    1    2 am    
    2    1   38 1     
    3    1   39 1     
    4    2    3 2     
    5    2    4 1     
    6    4    5 1     
    7    4   22 1     
    8    4   23 1     
    9    5    6 1     
   10    5   24 1     
   11    5   25 1     
   12    6    7 1     
   13    6   19 1     
   14    6   26 1     
   15    7    8 am    
   16    7   40 1     
   17    8    9 2     
   18    8   10 1     
   19   10   11 1     
   20   10   27 1     
   21   10   28 1     
   22   11   12 1     
   23   11   29 1     
   24   11   30 1     
   25   12   13 1     
   26   12   31 1     
   27   12   32 1     
   28   13   14 ar    
   29   13   18 ar    
   30   14   15 ar    
   31   14   33 1     
   32   15   16 ar    
   33   15   34 1     
   34   16   17 ar    
   35   16   35 1     
   36   17   18 ar    
   37   17   36 1     
   38   18   37 1     
   39   19   20 ar    
   40   19   21 ar    
@<TRIPOS>SUBSTRUCTURE
      1 ****           1
@<TRIPOS>SET
DONOR_HYDROGENS      STATIC     ATOMS    <user>   **** ""
3 38 39 40
ATOM$RED        STATIC     ATOMS    COLORGROUP SYSTEM
3 38 39 40
@<TRIPOS>COMMENT
> <Gold.Version>
2022.2.0

> <Gold.Id.Protein>
3pbl|protein|mol2

> <Gold.Protein.RotatedTorsions>
[ 1303 1298 1297 1294 ] final   -6.45 input  179.99 | X-H torsion
[ 2461 2456 2455 2452 ] final -124.50 input   30.03 | X-H torsion
[ 2515 2510 2509 2506 ] final   -2.11 input  -89.99 | X-H torsion
[ 3721 3712 3711 3710 ] final   47.64 input -179.91 | X-H torsion
[ 3841 3832 3831 3830 ] final  141.10 input -179.91 | X-H torsion
[ 3767 3762 3761 3758 ] final   65.83 input  -89.99 | X-H torsion
[ 2472 2467 2466 2463 ] final  145.68 input  -89.97 | X-H torsion

> <Gold.Protein.ActiveResidues>
 VAL82   VAL86   LEU89   PHE106  VAL107  ASP110  VAL111  MET112  CYS114  THR115 
 CYS181  SER182  ILE183  PHE188  VAL189  ILE190  SER192  SER193  SER196  TRP342 
 PHE345  PHE346  HIS349  VAL350  TYR365  THR369  GLY372  TYR373 

> <Gold.Protein.RotatedAtoms>
    3.3578   -9.7855    3.9939 H   0  0  0  0  0  0  0  0  0  0  0  0  # atno 1303 bound_to 1298
    0.6266   -9.2022    8.0988 H   0  0  0  0  0  0  0  0  0  0  0  0  # atno 2461 bound_to 2456
   -5.5101   -5.2230    8.5135 H   0  0  0  0  0  0  0  0  0  0  0  0  # atno 2472 bound_to 2467
    2.5552   -7.6516    4.5857 H   0  0  0  0  0  0  0  0  0  0  0  0  # atno 2515 bound_to 2510
   -2.5340  -17.9827   13.5449 H   0  0  0  0  0  0  0  0  0  0  0  0  # atno 3721 bound_to 3712
   -4.4896  -23.3053   10.2420 H   0  0  0  0  0  0  0  0  0  0  0  0  # atno 3767 bound_to 3762
    3.1333  -20.5086    8.7134 H   0  0  0  0  0  0  0  0  0  0  0  0  # atno 3841 bound_to 3832
    4.3206   -8.4765    4.1544 LP  0  0  0  0  0  0  0  0  0  0  0  0  # atno 4297 bound_to 1298
    4.6841   -9.8592    4.9435 LP  0  0  0  0  0  0  0  0  0  0  0  0  # atno 4298 bound_to 1298
    2.1393   -8.5919    8.0171 LP  0  0  0  0  0  0  0  0  0  0  0  0  # atno 4299 bound_to 2456
    0.9717   -8.0142    7.0324 LP  0  0  0  0  0  0  0  0  0  0  0  0  # atno 4300 bound_to 2456
    2.7037   -9.2151    5.0322 LP  0  0  0  0  0  0  0  0  0  0  0  0  # atno 4301 bound_to 2510
    2.0377   -8.1327    6.0577 LP  0  0  0  0  0  0  0  0  0  0  0  0  # atno 4302 bound_to 2510
   -3.0869  -17.2408   14.8570 LP  0  0  0  0  0  0  0  0  0  0  0  0  # atno 4306 bound_to 3712
   -3.5152  -16.7242   13.3683 LP  0  0  0  0  0  0  0  0  0  0  0  0  # atno 4307 bound_to 3712
    1.8068  -20.8662    9.5432 LP  0  0  0  0  0  0  0  0  0  0  0  0  # atno 4314 bound_to 3832
    1.8031  -19.6485    8.4552 LP  0  0  0  0  0  0  0  0  0  0  0  0  # atno 4315 bound_to 3832
   -5.4871  -22.1079   10.7299 LP  0  0  0  0  0  0  0  0  0  0  0  0  # atno 4318 bound_to 3762
   -4.1506  -22.4622   11.5989 LP  0  0  0  0  0  0  0  0  0  0  0  0  # atno 4319 bound_to 3762
   -4.1037   -4.8085    7.7947 LP  0  0  0  0  0  0  0  0  0  0  0  0  # atno 4320 bound_to 2467
   -4.1033   -5.3621    9.3310 LP  0  0  0  0  0  0  0  0  0  0  0  0  # atno 4321 bound_to 2467

> <Gold.Score>
     Score     S(PLP)   S(hbond)     S(cho)   S(metal)  DE(clash)   DE(tors)     intcor
     54.29     -51.53       1.00       0.00       0.00       0.00       0.17       0.11

> <Gold.PLP.Fitness>
54.2904

> <Gold.PLP.PLP>
-51.5264

> <Gold.PLP.part.hbond>
-1.0000

> <Gold.PLP.part.metal>
0.0000

> <Gold.PLP.part.buried>
-9.4483

> <Gold.PLP.part.nonpolar>
-42.2199

> <Gold.PLP.part.repulsive>
0.2695

> <Gold.PLP.ligand.clash>
0.0000

> <Gold.PLP.ligand.torsion>
0.1717

> <Gold.PLP.Chemscore.Hbond>
1.0000

> <Gold.PLP.Chemscore.CHOScore>
0.0000

> <Gold.PLP.Chemscore.Metal>
0.0000

> <Gold.Chemscore.Hbonds>
donor molecule, donor type, donor heavy atom, donor atom, acceptor molecule, acceptor atom, score
      L1  H     1    38       P1  2398  1.00

> <Gold.PLP.Chemscore.Internal.Correction>
0.1073

