#       Name:                EN300-719569_i001
#       Creating user name   fsindt
#       Creation time:       Mon Feb 27 17:08:25 2023


#       File generated by GOLD software.
#

@<TRIPOS>MOLECULE
EN300-719569_i001|acide_3|mol2|26|dock8
    40    40     1
SMALL
USER_CHARGES


@<TRIPOS>ATOM
      1 N1          -2.3372  -9.5605  10.6674 N.am           1 <1>                0.0000
      2 C2          -1.7061 -10.3858   9.8089 C.2            1 <1>                0.0000
      3 O3          -1.2320  -9.9461   8.7828 O.2            1 <1>                0.0000
      4 C4          -1.5896 -11.8549  10.1238 C.3            1 <1>                0.0000
      5 C5          -0.1207 -12.2770  10.0519 C.3            1 <1>                0.0000
      6 C6          -0.0319 -13.7438   9.6259 C.3            1 <1>                0.0000
      7 N7           1.0298 -14.4093  10.3847 N.am           1 <1>                0.0000
      8 C8           0.7338 -15.0654  11.5243 C.2            1 <1>                0.0000
      9 O9          -0.4115 -15.1049  11.9214 O.2            1 <1>                0.0000
     10 C10          1.8260 -15.7500  12.3049 C.3            1 <1>                0.0000
     11 C11          1.3737 -15.9419  13.7539 C.3            1 <1>                0.0000
     12 C12          2.2722 -16.9755  14.4360 C.3            1 <1>                0.0000
     13 C13          1.8751 -18.3590  13.9895 C.ar           1 <1>                0.0000
     14 C14          2.0188 -18.7255  12.6645 C.ar           1 <1>                0.0000
     15 C15          1.6545 -19.9945  12.2549 C.ar           1 <1>                0.0000
     16 C16          1.1469 -20.8971  13.1705 C.ar           1 <1>                0.0000
     17 C17          1.0040 -20.5309  14.4958 C.ar           1 <1>                0.0000
     18 C18          1.3724 -19.2634  14.9062 C.ar           1 <1>                0.0000
     19 C19          0.2790 -13.8212   8.1533 C.2            1 <1>                0.0000
     20 O20          0.3405 -14.9056   7.5994 O.co2          1 <1>                0.0000
     21 O21          0.4690 -12.7994   7.5158 O.co2          1 <1>               -1.0000
     22 H22         -1.9730 -12.0430  11.1266 H              1 <1>                0.0000
     23 H23         -2.1684 -12.4285   9.3999 H              1 <1>                0.0000
     24 H24          0.4008 -11.6551   9.3243 H              1 <1>                0.0000
     25 H25          0.3408 -12.1547  11.0317 H              1 <1>                0.0000
     26 H26         -0.9836 -14.2376   9.8226 H              1 <1>                0.0000
     27 H27          2.0373 -16.7217  11.8585 H              1 <1>                0.0000
     28 H28          2.7269 -15.1367  12.2837 H              1 <1>                0.0000
     29 H29          1.4436 -14.9927  14.2851 H              1 <1>                0.0000
     30 H30          0.3414 -16.2915  13.7690 H              1 <1>                0.0000
     31 H31          3.3111 -16.7900  14.1635 H              1 <1>                0.0000
     32 H32          2.1606 -16.8967  15.5175 H              1 <1>                0.0000
     33 H33          2.4154 -18.0203  11.9491 H              1 <1>                0.0000
     34 H34          1.7661 -20.2807  11.2195 H              1 <1>                0.0000
     35 H35          0.8616 -21.8884  12.8504 H              1 <1>                0.0000
     36 H36          0.6070 -21.2361  15.2111 H              1 <1>                0.0000
     37 H37          1.2607 -18.9773  15.9416 H              1 <1>                0.0000
     38 H38         -2.4156  -8.6156  10.4629 H              1 <1>                0.0000
     39 H39         -2.7165  -9.9122  11.4880 H              1 <1>                0.0000
     40 H40          1.9458 -14.3778  10.0671 H              1 <1>                0.0000
@<TRIPOS>BOND
    1    1    2 am    
    2    1   38 1     
    3    1   39 1     
    4    2    3 2     
    5    2    4 1     
    6    4    5 1     
    7    4   22 1     
    8    4   23 1     
    9    5    6 1     
   10    5   24 1     
   11    5   25 1     
   12    6    7 1     
   13    6   19 1     
   14    6   26 1     
   15    7    8 am    
   16    7   40 1     
   17    8    9 2     
   18    8   10 1     
   19   10   11 1     
   20   10   27 1     
   21   10   28 1     
   22   11   12 1     
   23   11   29 1     
   24   11   30 1     
   25   12   13 1     
   26   12   31 1     
   27   12   32 1     
   28   13   14 ar    
   29   13   18 ar    
   30   14   15 ar    
   31   14   33 1     
   32   15   16 ar    
   33   15   34 1     
   34   16   17 ar    
   35   16   35 1     
   36   17   18 ar    
   37   17   36 1     
   38   18   37 1     
   39   19   20 ar    
   40   19   21 ar    
@<TRIPOS>SUBSTRUCTURE
      1 ****           1
@<TRIPOS>SET
DONOR_HYDROGENS      STATIC     ATOMS    <user>   **** ""
3 38 39 40
ATOM$RED        STATIC     ATOMS    COLORGROUP SYSTEM
3 38 39 40
@<TRIPOS>COMMENT
> <Gold.Version>
2022.2.0

> <Gold.Id.Protein>
3pbl|protein|mol2

> <Gold.Protein.RotatedTorsions>
[ 1303 1298 1297 1294 ] final -143.05 input  179.99 | X-H torsion
[ 2461 2456 2455 2452 ] final -110.63 input   30.03 | X-H torsion
[ 2515 2510 2509 2506 ] final  -97.26 input  -89.99 | X-H torsion
[ 3721 3712 3711 3710 ] final  -55.58 input -179.91 | X-H torsion
[ 3841 3832 3831 3830 ] final  162.76 input -179.91 | X-H torsion
[ 3767 3762 3761 3758 ] final  -51.00 input  -89.99 | X-H torsion
[ 2472 2467 2466 2463 ] final -157.60 input  -89.97 | X-H torsion

> <Gold.Protein.ActiveResidues>
 VAL82   VAL86   LEU89   PHE106  VAL107  ASP110  VAL111  MET112  CYS114  THR115 
 CYS181  SER182  ILE183  PHE188  VAL189  ILE190  SER192  SER193  SER196  TRP342 
 PHE345  PHE346  HIS349  VAL350  TYR365  THR369  GLY372  TYR373 

> <Gold.Protein.RotatedAtoms>
    4.5306   -8.5261    4.3202 H   0  0  0  0  0  0  0  0  0  0  0  0  # atno 1303 bound_to 1298
    0.4830   -9.1048    7.9513 H   0  0  0  0  0  0  0  0  0  0  0  0  # atno 2461 bound_to 2456
   -5.0868   -5.4490    9.2697 H   0  0  0  0  0  0  0  0  0  0  0  0  # atno 2472 bound_to 2467
    2.8041   -9.0163    4.6930 H   0  0  0  0  0  0  0  0  0  0  0  0  # atno 2515 bound_to 2510
   -2.7678  -17.3887   14.7432 H   0  0  0  0  0  0  0  0  0  0  0  0  # atno 3721 bound_to 3712
   -5.4965  -22.1349   10.6864 H   0  0  0  0  0  0  0  0  0  0  0  0  # atno 3767 bound_to 3762
    3.0771  -20.2535    8.5197 H   0  0  0  0  0  0  0  0  0  0  0  0  # atno 3841 bound_to 3832
    4.5017  -10.0550    4.8927 LP  0  0  0  0  0  0  0  0  0  0  0  0  # atno 4297 bound_to 1298
    3.3297   -9.5405    3.8787 LP  0  0  0  0  0  0  0  0  0  0  0  0  # atno 4298 bound_to 1298
    2.0655   -8.7566    8.1558 LP  0  0  0  0  0  0  0  0  0  0  0  0  # atno 4299 bound_to 2456
    1.1889   -7.9470    7.0411 LP  0  0  0  0  0  0  0  0  0  0  0  0  # atno 4300 bound_to 2456
    2.1103   -8.5306    6.0889 LP  0  0  0  0  0  0  0  0  0  0  0  0  # atno 4301 bound_to 2510
    2.3821   -7.4519    4.8935 LP  0  0  0  0  0  0  0  0  0  0  0  0  # atno 4302 bound_to 2510
   -3.5549  -16.6234   13.5717 LP  0  0  0  0  0  0  0  0  0  0  0  0  # atno 4306 bound_to 3712
   -2.7773  -18.0273   13.2701 LP  0  0  0  0  0  0  0  0  0  0  0  0  # atno 4307 bound_to 3712
    2.1127  -21.0542    9.5221 LP  0  0  0  0  0  0  0  0  0  0  0  0  # atno 4314 bound_to 3832
    1.5621  -19.7552    8.6999 LP  0  0  0  0  0  0  0  0  0  0  0  0  # atno 4315 bound_to 3832
   -4.1834  -22.4241   11.6134 LP  0  0  0  0  0  0  0  0  0  0  0  0  # atno 4318 bound_to 3762
   -4.4478  -23.3159   10.2712 LP  0  0  0  0  0  0  0  0  0  0  0  0  # atno 4319 bound_to 3762
   -4.9941   -4.8865    7.7395 LP  0  0  0  0  0  0  0  0  0  0  0  0  # atno 4320 bound_to 2467
   -3.6361   -5.0581    8.6300 LP  0  0  0  0  0  0  0  0  0  0  0  0  # atno 4321 bound_to 2467

> <Gold.Score>
     Score     S(PLP)   S(hbond)     S(cho)   S(metal)  DE(clash)   DE(tors)     intcor
     56.59     -53.77       1.98       0.00       0.00       0.00       1.62       0.11

> <Gold.PLP.Fitness>
56.5882

> <Gold.PLP.PLP>
-53.7654

> <Gold.PLP.part.hbond>
-2.0000

> <Gold.PLP.part.metal>
0.0000

> <Gold.PLP.part.buried>
-6.3428

> <Gold.PLP.part.nonpolar>
-47.4758

> <Gold.PLP.part.repulsive>
0.3152

> <Gold.PLP.ligand.clash>
0.0000

> <Gold.PLP.ligand.torsion>
1.6171

> <Gold.PLP.Chemscore.Hbond>
1.9833

> <Gold.PLP.Chemscore.CHOScore>
0.0000

> <Gold.PLP.Chemscore.Metal>
0.0000

> <Gold.Chemscore.Hbonds>
donor molecule, donor type, donor heavy atom, donor atom, acceptor molecule, acceptor atom, score
      L1  H     1    38       P1  2398  0.99
      P1  H  2456  2461       L1     3  0.99

> <Gold.PLP.Chemscore.Internal.Correction>
0.1073

