#       Name:                EN300-719569_i001
#       Creating user name   fsindt
#       Creation time:       Mon Feb 27 17:08:20 2023


#       File generated by GOLD software.
#

@<TRIPOS>MOLECULE
EN300-719569_i001|acide_3|mol2|26|dock4
    40    40     1
SMALL
USER_CHARGES


@<TRIPOS>ATOM
      1 N1          -0.3614 -12.6607   8.8700 N.am           1 <1>                0.0000
      2 C2          -0.3920 -13.1970  10.1061 C.2            1 <1>                0.0000
      3 O3          -1.0630 -12.6808  10.9746 O.2            1 <1>                0.0000
      4 C4           0.4076 -14.4379  10.4093 C.3            1 <1>                0.0000
      5 C5           0.0995 -14.9082  11.8322 C.3            1 <1>                0.0000
      6 C6           1.1988 -15.8626  12.3030 C.3            1 <1>                0.0000
      7 N7           0.9957 -17.1796  11.6944 N.am           1 <1>                0.0000
      8 C8          -0.1787 -17.8215  11.8535 C.2            1 <1>                0.0000
      9 O9          -1.0673 -17.3089  12.5002 O.2            1 <1>                0.0000
     10 C10         -0.3875 -19.1763  11.2274 C.3            1 <1>                0.0000
     11 C11         -0.4721 -20.2381  12.3258 C.3            1 <1>                0.0000
     12 C12         -0.6842 -21.6136  11.6901 C.3            1 <1>                0.0000
     13 C13         -0.4764 -22.6847  12.7296 C.ar           1 <1>                0.0000
     14 C14          0.6722 -22.6880  13.4987 C.ar           1 <1>                0.0000
     15 C15          0.8629 -23.6705  14.4522 C.ar           1 <1>                0.0000
     16 C16         -0.0954 -24.6496  14.6369 C.ar           1 <1>                0.0000
     17 C17         -1.2444 -24.6458  13.8684 C.ar           1 <1>                0.0000
     18 C18         -1.4370 -23.6608  12.9179 C.ar           1 <1>                0.0000
     19 C19          1.1453 -15.9891  13.8038 C.2            1 <1>                0.0000
     20 O20          2.0595 -16.5291  14.4030 O.co2          1 <1>                0.0000
     21 O21          0.1877 -15.5516  14.4187 O.co2          1 <1>               -1.0000
     22 H22          0.1420 -15.2231   9.7015 H              1 <1>                0.0000
     23 H23          1.4710 -14.2150  10.3224 H              1 <1>                0.0000
     24 H24          0.0566 -14.0465  12.4984 H              1 <1>                0.0000
     25 H25         -0.8600 -15.4250  11.8442 H              1 <1>                0.0000
     26 H26          2.1717 -15.4710  12.0060 H              1 <1>                0.0000
     27 H27         -1.3143 -19.1725  10.6535 H              1 <1>                0.0000
     28 H28          0.4485 -19.4036  10.5659 H              1 <1>                0.0000
     29 H29          0.4546 -20.2420  12.8996 H              1 <1>                0.0000
     30 H30         -1.3081 -20.0108  12.9872 H              1 <1>                0.0000
     31 H31         -1.6989 -21.6800  11.2979 H              1 <1>                0.0000
     32 H32          0.0293 -21.7524  10.8778 H              1 <1>                0.0000
     33 H33          1.4209 -21.9230  13.3545 H              1 <1>                0.0000
     34 H34          1.7605 -23.6735  15.0527 H              1 <1>                0.0000
     35 H35          0.0538 -25.4177  15.3814 H              1 <1>                0.0000
     36 H36         -1.9929 -25.4110  14.0124 H              1 <1>                0.0000
     37 H37         -2.3347 -23.6579  12.3175 H              1 <1>                0.0000
     38 H38         -0.8730 -11.8598   8.6760 H              1 <1>                0.0000
     39 H39          0.1754 -13.0735   8.1755 H              1 <1>                0.0000
     40 H40          1.7065 -17.5896  11.1771 H              1 <1>                0.0000
@<TRIPOS>BOND
    1    1    2 am    
    2    1   38 1     
    3    1   39 1     
    4    2    3 2     
    5    2    4 1     
    6    4    5 1     
    7    4   22 1     
    8    4   23 1     
    9    5    6 1     
   10    5   24 1     
   11    5   25 1     
   12    6    7 1     
   13    6   19 1     
   14    6   26 1     
   15    7    8 am    
   16    7   40 1     
   17    8    9 2     
   18    8   10 1     
   19   10   11 1     
   20   10   27 1     
   21   10   28 1     
   22   11   12 1     
   23   11   29 1     
   24   11   30 1     
   25   12   13 1     
   26   12   31 1     
   27   12   32 1     
   28   13   14 ar    
   29   13   18 ar    
   30   14   15 ar    
   31   14   33 1     
   32   15   16 ar    
   33   15   34 1     
   34   16   17 ar    
   35   16   35 1     
   36   17   18 ar    
   37   17   36 1     
   38   18   37 1     
   39   19   20 ar    
   40   19   21 ar    
@<TRIPOS>SUBSTRUCTURE
      1 ****           1
@<TRIPOS>SET
DONOR_HYDROGENS      STATIC     ATOMS    <user>   **** ""
3 38 39 40
ATOM$RED        STATIC     ATOMS    COLORGROUP SYSTEM
3 38 39 40
@<TRIPOS>COMMENT
> <Gold.Version>
2022.2.0

> <Gold.Id.Protein>
3pbl|protein|mol2

> <Gold.Protein.RotatedTorsions>
[ 1303 1298 1297 1294 ] final -133.52 input  179.99 | X-H torsion
[ 2461 2456 2455 2452 ] final  -45.57 input   30.03 | X-H torsion
[ 2515 2510 2509 2506 ] final -125.80 input  -89.99 | X-H torsion
[ 3721 3712 3711 3710 ] final   76.32 input -179.91 | X-H torsion
[ 3841 3832 3831 3830 ] final  -77.46 input -179.91 | X-H torsion
[ 3767 3762 3761 3758 ] final   29.61 input  -89.99 | X-H torsion
[ 2472 2467 2466 2463 ] final  -81.09 input  -89.97 | X-H torsion

> <Gold.Protein.ActiveResidues>
 VAL82   VAL86   LEU89   PHE106  VAL107  ASP110  VAL111  MET112  CYS114  THR115 
 CYS181  SER182  ILE183  PHE188  VAL189  ILE190  SER192  SER193  SER196  TRP342 
 PHE345  PHE346  HIS349  VAL350  TYR365  THR369  GLY372  TYR373 

> <Gold.Protein.RotatedAtoms>
    4.4129   -8.4886    4.2238 H   0  0  0  0  0  0  0  0  0  0  0  0  # atno 1303 bound_to 1298
    0.4652   -8.3904    7.2315 H   0  0  0  0  0  0  0  0  0  0  0  0  # atno 2461 bound_to 2456
   -3.9298   -5.3020    9.2149 H   0  0  0  0  0  0  0  0  0  0  0  0  # atno 2472 bound_to 2467
    2.6840   -9.2307    5.0874 H   0  0  0  0  0  0  0  0  0  0  0  0  # atno 2515 bound_to 2510
   -2.6886  -17.7652   13.2087 H   0  0  0  0  0  0  0  0  0  0  0  0  # atno 3721 bound_to 3712
   -4.9880  -23.0529   10.0643 H   0  0  0  0  0  0  0  0  0  0  0  0  # atno 3767 bound_to 3762
    1.7314  -19.6781    8.8378 H   0  0  0  0  0  0  0  0  0  0  0  0  # atno 3841 bound_to 3832
    4.6113   -9.9486    4.9276 LP  0  0  0  0  0  0  0  0  0  0  0  0  # atno 4297 bound_to 1298
    3.3378   -9.6845    3.9402 LP  0  0  0  0  0  0  0  0  0  0  0  0  # atno 4298 bound_to 1298
    1.2221   -9.2737    8.3780 LP  0  0  0  0  0  0  0  0  0  0  0  0  # atno 4299 bound_to 2456
    2.0503   -8.1440    7.5386 LP  0  0  0  0  0  0  0  0  0  0  0  0  # atno 4300 bound_to 2456
    2.0330   -8.0750    6.0393 LP  0  0  0  0  0  0  0  0  0  0  0  0  # atno 4301 bound_to 2510
    2.5795   -7.6930    4.5487 LP  0  0  0  0  0  0  0  0  0  0  0  0  # atno 4302 bound_to 2510
   -2.8564  -17.6517   14.8014 LP  0  0  0  0  0  0  0  0  0  0  0  0  # atno 4306 bound_to 3712
   -3.5673  -16.5644   13.8119 LP  0  0  0  0  0  0  0  0  0  0  0  0  # atno 4307 bound_to 3712
    3.0754  -20.4022    8.3422 LP  0  0  0  0  0  0  0  0  0  0  0  0  # atno 4314 bound_to 3832
    2.1540  -21.0719    9.5124 LP  0  0  0  0  0  0  0  0  0  0  0  0  # atno 4315 bound_to 3832
   -5.2210  -21.9200   11.2172 LP  0  0  0  0  0  0  0  0  0  0  0  0  # atno 4318 bound_to 3762
   -3.9185  -22.9023   11.2892 LP  0  0  0  0  0  0  0  0  0  0  0  0  # atno 4319 bound_to 3762
   -5.4851   -5.2931    8.7176 LP  0  0  0  0  0  0  0  0  0  0  0  0  # atno 4320 bound_to 2467
   -4.3018   -4.7986    7.7067 LP  0  0  0  0  0  0  0  0  0  0  0  0  # atno 4321 bound_to 2467

> <Gold.Score>
     Score     S(PLP)   S(hbond)     S(cho)   S(metal)  DE(clash)   DE(tors)     intcor
     62.45     -55.35       2.79       0.00       0.00       0.00       0.69       0.11

> <Gold.PLP.Fitness>
62.4511

> <Gold.PLP.PLP>
-55.3507

> <Gold.PLP.part.hbond>
-3.0000

> <Gold.PLP.part.metal>
0.0000

> <Gold.PLP.part.buried>
-9.0260

> <Gold.PLP.part.nonpolar>
-44.5050

> <Gold.PLP.part.repulsive>
0.2036

> <Gold.PLP.ligand.clash>
0.0000

> <Gold.PLP.ligand.torsion>
0.6915

> <Gold.PLP.Chemscore.Hbond>
2.7920

> <Gold.PLP.Chemscore.CHOScore>
0.0000

> <Gold.PLP.Chemscore.Metal>
0.0000

> <Gold.Chemscore.Hbonds>
donor molecule, donor type, donor heavy atom, donor atom, acceptor molecule, acceptor atom, score
      L1  H     7    40       P1  1227  0.93
      P1  H  2305  2313       L1    21  1.00
      P1  H  3712  3721       L1     9  0.86

> <Gold.PLP.Chemscore.Internal.Correction>
0.1073

