#       Name:                EN300-719569_i001
#       Creating user name   fsindt
#       Creation time:       Mon Feb 27 17:08:21 2023


#       File generated by GOLD software.
#

@<TRIPOS>MOLECULE
EN300-719569_i001|acide_3|mol2|26|dock5
    40    40     1
SMALL
USER_CHARGES


@<TRIPOS>ATOM
      1 N1          -2.7803  -9.5411  10.4223 N.am           1 <1>                0.0000
      2 C2          -1.9346 -10.3834   9.7964 C.2            1 <1>                0.0000
      3 O3          -1.1721  -9.9613   8.9529 O.2            1 <1>                0.0000
      4 C4          -1.9365 -11.8497  10.1443 C.3            1 <1>                0.0000
      5 C5          -0.6016 -12.2216  10.7929 C.3            1 <1>                0.0000
      6 C6          -0.4449 -13.7436  10.8003 C.3            1 <1>                0.0000
      7 N7          -0.2119 -14.2038  12.1714 N.am           1 <1>                0.0000
      8 C8          -0.1704 -15.5237  12.4413 C.2            1 <1>                0.0000
      9 O9          -0.3258 -16.3303  11.5490 O.2            1 <1>                0.0000
     10 C10          0.0693 -15.9972  13.8518 C.3            1 <1>                0.0000
     11 C11          1.5733 -16.0275  14.1309 C.3            1 <1>                0.0000
     12 C12          2.2617 -16.9440  13.1173 C.3            1 <1>                0.0000
     13 C13          1.8825 -18.3756  13.3961 C.ar           1 <1>                0.0000
     14 C14          1.7015 -18.8016  14.6986 C.ar           1 <1>                0.0000
     15 C15          1.3538 -20.1148  14.9543 C.ar           1 <1>                0.0000
     16 C16          1.1866 -21.0019  13.9074 C.ar           1 <1>                0.0000
     17 C17          1.3667 -20.5757  12.6048 C.ar           1 <1>                0.0000
     18 C18          1.7102 -19.2614  12.3489 C.ar           1 <1>                0.0000
     19 C19          0.7256 -14.1322   9.9343 C.2            1 <1>                0.0000
     20 O20          0.7096 -13.8845   8.7406 O.co2          1 <1>                0.0000
     21 O21          1.6886 -14.6945  10.4273 O.co2          1 <1>               -1.0000
     22 H22         -2.7490 -12.0567  10.8408 H              1 <1>                0.0000
     23 H23         -2.0765 -12.4380   9.2375 H              1 <1>                0.0000
     24 H24          0.2149 -11.7750  10.2255 H              1 <1>                0.0000
     25 H25         -0.5789 -11.8491  11.8169 H              1 <1>                0.0000
     26 H26         -1.3531 -14.2043  10.4117 H              1 <1>                0.0000
     27 H27         -0.4164 -15.3165  14.5510 H              1 <1>                0.0000
     28 H28         -0.3432 -16.9988  13.9738 H              1 <1>                0.0000
     29 H29          1.9794 -15.0197  14.0439 H              1 <1>                0.0000
     30 H30          1.7483 -16.4040  15.1386 H              1 <1>                0.0000
     31 H31          1.9454 -16.6739  12.1099 H              1 <1>                0.0000
     32 H32          3.3427 -16.8314  13.2013 H              1 <1>                0.0000
     33 H33          1.8321 -18.1086  15.5165 H              1 <1>                0.0000
     34 H34          1.2130 -20.4479  15.9719 H              1 <1>                0.0000
     35 H35          0.9155 -22.0281  14.1072 H              1 <1>                0.0000
     36 H36          1.2364 -21.2689  11.7869 H              1 <1>                0.0000
     37 H37          1.8509 -18.9284  11.3312 H              1 <1>                0.0000
     38 H38         -2.7818  -8.5980  10.1955 H              1 <1>                0.0000
     39 H39         -3.3902  -9.8787  11.0968 H              1 <1>                0.0000
     40 H40         -0.0876 -13.5587  12.8851 H              1 <1>                0.0000
@<TRIPOS>BOND
    1    1    2 am    
    2    1   38 1     
    3    1   39 1     
    4    2    3 2     
    5    2    4 1     
    6    4    5 1     
    7    4   22 1     
    8    4   23 1     
    9    5    6 1     
   10    5   24 1     
   11    5   25 1     
   12    6    7 1     
   13    6   19 1     
   14    6   26 1     
   15    7    8 am    
   16    7   40 1     
   17    8    9 2     
   18    8   10 1     
   19   10   11 1     
   20   10   27 1     
   21   10   28 1     
   22   11   12 1     
   23   11   29 1     
   24   11   30 1     
   25   12   13 1     
   26   12   31 1     
   27   12   32 1     
   28   13   14 ar    
   29   13   18 ar    
   30   14   15 ar    
   31   14   33 1     
   32   15   16 ar    
   33   15   34 1     
   34   16   17 ar    
   35   16   35 1     
   36   17   18 ar    
   37   17   36 1     
   38   18   37 1     
   39   19   20 ar    
   40   19   21 ar    
@<TRIPOS>SUBSTRUCTURE
      1 ****           1
@<TRIPOS>SET
DONOR_HYDROGENS      STATIC     ATOMS    <user>   **** ""
3 38 39 40
ATOM$RED        STATIC     ATOMS    COLORGROUP SYSTEM
3 38 39 40
@<TRIPOS>COMMENT
> <Gold.Version>
2022.2.0

> <Gold.Id.Protein>
3pbl|protein|mol2

> <Gold.Protein.RotatedTorsions>
[ 1303 1298 1297 1294 ] final   -0.75 input  179.99 | X-H torsion
[ 2461 2456 2455 2452 ] final -113.48 input   30.03 | X-H torsion
[ 2515 2510 2509 2506 ] final  160.03 input  -89.99 | X-H torsion
[ 3721 3712 3711 3710 ] final  121.81 input -179.91 | X-H torsion
[ 3841 3832 3831 3830 ] final -179.75 input -179.91 | X-H torsion
[ 3767 3762 3761 3758 ] final -121.79 input  -89.99 | X-H torsion
[ 2472 2467 2466 2463 ] final  -68.33 input  -89.97 | X-H torsion

> <Gold.Protein.ActiveResidues>
 VAL82   VAL86   LEU89   PHE106  VAL107  ASP110  VAL111  MET112  CYS114  THR115 
 CYS181  SER182  ILE183  PHE188  VAL189  ILE190  SER192  SER193  SER196  TRP342 
 PHE345  PHE346  HIS349  VAL350  TYR365  THR369  GLY372  TYR373 

> <Gold.Protein.RotatedAtoms>
    3.3824   -9.8627    4.0409 H   0  0  0  0  0  0  0  0  0  0  0  0  # atno 1303 bound_to 1298
    0.5091   -9.1274    7.9830 H   0  0  0  0  0  0  0  0  0  0  0  0  # atno 2461 bound_to 2456
   -3.7947   -5.2347    9.0694 H   0  0  0  0  0  0  0  0  0  0  0  0  # atno 2472 bound_to 2467
    2.1976   -8.7901    6.0152 H   0  0  0  0  0  0  0  0  0  0  0  0  # atno 2515 bound_to 2510
   -3.0220  -17.2095   13.0394 H   0  0  0  0  0  0  0  0  0  0  0  0  # atno 3721 bound_to 3712
   -4.8238  -21.9772   11.5326 H   0  0  0  0  0  0  0  0  0  0  0  0  # atno 3767 bound_to 3762
    2.9556  -20.0471    8.4102 H   0  0  0  0  0  0  0  0  0  0  0  0  # atno 3841 bound_to 3832
    4.2436   -8.4767    4.1010 LP  0  0  0  0  0  0  0  0  0  0  0  0  # atno 4297 bound_to 1298
    4.7365   -9.7817    4.9498 LP  0  0  0  0  0  0  0  0  0  0  0  0  # atno 4298 bound_to 1298
    2.0848   -8.7232    8.1292 LP  0  0  0  0  0  0  0  0  0  0  0  0  # atno 4299 bound_to 2456
    1.1437   -7.9578    7.0360 LP  0  0  0  0  0  0  0  0  0  0  0  0  # atno 4300 bound_to 2456
    2.2653   -7.4083    5.1481 LP  0  0  0  0  0  0  0  0  0  0  0  0  # atno 4301 bound_to 2510
    2.8340   -8.8005    4.5116 LP  0  0  0  0  0  0  0  0  0  0  0  0  # atno 4302 bound_to 2510
   -2.6251  -18.1346   14.2902 LP  0  0  0  0  0  0  0  0  0  0  0  0  # atno 4306 bound_to 3712
   -3.4136  -16.7230   14.5186 LP  0  0  0  0  0  0  0  0  0  0  0  0  # atno 4307 bound_to 3712
    2.3771  -21.1391    9.4344 LP  0  0  0  0  0  0  0  0  0  0  0  0  # atno 4314 bound_to 3832
    1.4380  -19.9087    8.9142 LP  0  0  0  0  0  0  0  0  0  0  0  0  # atno 4315 bound_to 3832
   -3.9643  -23.2025   10.8794 LP  0  0  0  0  0  0  0  0  0  0  0  0  # atno 4318 bound_to 3762
   -5.3393  -22.6950   10.1593 LP  0  0  0  0  0  0  0  0  0  0  0  0  # atno 4319 bound_to 3762
   -5.4151   -5.3532    8.9058 LP  0  0  0  0  0  0  0  0  0  0  0  0  # atno 4320 bound_to 2467
   -4.5069   -4.8057    7.6640 LP  0  0  0  0  0  0  0  0  0  0  0  0  # atno 4321 bound_to 2467

> <Gold.Score>
     Score     S(PLP)   S(hbond)     S(cho)   S(metal)  DE(clash)   DE(tors)     intcor
     56.50     -53.83       1.92       0.00       0.00       0.00       1.60       0.11

> <Gold.PLP.Fitness>
56.5036

> <Gold.PLP.PLP>
-53.8318

> <Gold.PLP.part.hbond>
-2.0000

> <Gold.PLP.part.metal>
0.0000

> <Gold.PLP.part.buried>
-4.7122

> <Gold.PLP.part.nonpolar>
-49.6308

> <Gold.PLP.part.repulsive>
0.7540

> <Gold.PLP.ligand.clash>
0.0000

> <Gold.PLP.ligand.torsion>
1.5984

> <Gold.PLP.Chemscore.Hbond>
1.9204

> <Gold.PLP.Chemscore.CHOScore>
0.0000

> <Gold.PLP.Chemscore.Metal>
0.0000

> <Gold.Chemscore.Hbonds>
donor molecule, donor type, donor heavy atom, donor atom, acceptor molecule, acceptor atom, score
      L1  H     1    38       P1  2398  1.00
      P1  H  2456  2461       L1     3  0.92

> <Gold.PLP.Chemscore.Internal.Correction>
0.1073

