#       Name:                EN300-719569_i001
#       Creating user name   fsindt
#       Creation time:       Mon Feb 27 17:08:17 2023


#       File generated by GOLD software.
#

@<TRIPOS>MOLECULE
EN300-719569_i001|acide_3|mol2|26|dock2
    40    40     1
SMALL
USER_CHARGES


@<TRIPOS>ATOM
      1 N1           0.0195 -21.7380  11.9277 N.am           1 <1>                0.0000
      2 C2           0.5891 -20.5197  11.8391 C.2            1 <1>                0.0000
      3 O3           0.4511 -19.8576  10.8323 O.2            1 <1>                0.0000
      4 C4           1.3976 -19.9802  12.9908 C.3            1 <1>                0.0000
      5 C5           2.0322 -18.6475  12.5883 C.3            1 <1>                0.0000
      6 C6           1.0407 -17.5116  12.8481 C.3            1 <1>                0.0000
      7 N7           1.1129 -16.5405  11.7536 N.am           1 <1>                0.0000
      8 C8           0.1882 -15.5647  11.6565 C.2            1 <1>                0.0000
      9 O9          -0.7033 -15.4904  12.4753 O.2            1 <1>                0.0000
     10 C10          0.2625 -14.5657  10.5306 C.3            1 <1>                0.0000
     11 C11         -0.6843 -13.3993  10.8205 C.3            1 <1>                0.0000
     12 C12         -0.7722 -12.4957   9.5889 C.3            1 <1>                0.0000
     13 C13         -1.9611 -11.5792   9.7222 C.ar           1 <1>                0.0000
     14 C14         -3.2386 -12.1056   9.7614 C.ar           1 <1>                0.0000
     15 C15         -4.3291 -11.2649   9.8836 C.ar           1 <1>                0.0000
     16 C16         -4.1420  -9.8978   9.9672 C.ar           1 <1>                0.0000
     17 C17         -2.8643  -9.3715   9.9290 C.ar           1 <1>                0.0000
     18 C18         -1.7736 -10.2125   9.8111 C.ar           1 <1>                0.0000
     19 C19          1.3862 -16.8306  14.1474 C.2            1 <1>                0.0000
     20 O20          2.3094 -17.2460  14.8267 O.co2          1 <1>                0.0000
     21 O21          0.7424 -15.8642  14.5192 O.co2          1 <1>               -1.0000
     22 H22          0.7466 -19.8274  13.8515 H              1 <1>                0.0000
     23 H23          2.1811 -20.6924  13.2497 H              1 <1>                0.0000
     24 H24          2.9353 -18.4830  13.1760 H              1 <1>                0.0000
     25 H25          2.2874 -18.6718  11.5289 H              1 <1>                0.0000
     26 H26          0.0308 -17.9173  12.9080 H              1 <1>                0.0000
     27 H27          1.2828 -14.1924  10.4427 H              1 <1>                0.0000
     28 H28         -0.0297 -15.0476   9.5975 H              1 <1>                0.0000
     29 H29         -1.6751 -13.7861  11.0588 H              1 <1>                0.0000
     30 H30         -0.3053 -12.8252  11.6659 H              1 <1>                0.0000
     31 H31          0.1377 -11.9011   9.5088 H              1 <1>                0.0000
     32 H32         -0.8851 -13.1095   8.6952 H              1 <1>                0.0000
     33 H33         -3.3849 -13.1736   9.6961 H              1 <1>                0.0000
     34 H34         -5.3273 -11.6760   9.9135 H              1 <1>                0.0000
     35 H35         -4.9940  -9.2409  10.0620 H              1 <1>                0.0000
     36 H36         -2.7181  -8.3034   9.9939 H              1 <1>                0.0000
     37 H37         -0.7754  -9.8013   9.7812 H              1 <1>                0.0000
     38 H38         -0.4976 -22.0868  11.1849 H              1 <1>                0.0000
     39 H39          0.1300 -22.2676  12.7328 H              1 <1>                0.0000
     40 H40          1.8260 -16.5999  11.0987 H              1 <1>                0.0000
@<TRIPOS>BOND
    1    1    2 am    
    2    1   38 1     
    3    1   39 1     
    4    2    3 2     
    5    2    4 1     
    6    4    5 1     
    7    4   22 1     
    8    4   23 1     
    9    5    6 1     
   10    5   24 1     
   11    5   25 1     
   12    6    7 1     
   13    6   19 1     
   14    6   26 1     
   15    7    8 am    
   16    7   40 1     
   17    8    9 2     
   18    8   10 1     
   19   10   11 1     
   20   10   27 1     
   21   10   28 1     
   22   11   12 1     
   23   11   29 1     
   24   11   30 1     
   25   12   13 1     
   26   12   31 1     
   27   12   32 1     
   28   13   14 ar    
   29   13   18 ar    
   30   14   15 ar    
   31   14   33 1     
   32   15   16 ar    
   33   15   34 1     
   34   16   17 ar    
   35   16   35 1     
   36   17   18 ar    
   37   17   36 1     
   38   18   37 1     
   39   19   20 ar    
   40   19   21 ar    
@<TRIPOS>SUBSTRUCTURE
      1 ****           1
@<TRIPOS>SET
DONOR_HYDROGENS      STATIC     ATOMS    <user>   **** ""
3 38 39 40
ATOM$RED        STATIC     ATOMS    COLORGROUP SYSTEM
3 38 39 40
@<TRIPOS>COMMENT
> <Gold.Version>
2022.2.0

> <Gold.Id.Protein>
3pbl|protein|mol2

> <Gold.Protein.RotatedTorsions>
[ 1303 1298 1297 1294 ] final -115.81 input  179.99 | X-H torsion
[ 2461 2456 2455 2452 ] final -145.40 input   30.03 | X-H torsion
[ 2515 2510 2509 2506 ] final   58.34 input  -89.99 | X-H torsion
[ 3721 3712 3711 3710 ] final -170.89 input -179.91 | X-H torsion
[ 3841 3832 3831 3830 ] final  -13.26 input -179.91 | X-H torsion
[ 3767 3762 3761 3758 ] final -117.27 input  -89.99 | X-H torsion
[ 2472 2467 2466 2463 ] final -140.67 input  -89.97 | X-H torsion

> <Gold.Protein.ActiveResidues>
 VAL82   VAL86   LEU89   PHE106  VAL107  ASP110  VAL111  MET112  CYS114  THR115 
 CYS181  SER182  ILE183  PHE188  VAL189  ILE190  SER192  SER193  SER196  TRP342 
 PHE345  PHE346  HIS349  VAL350  TYR365  THR369  GLY372  TYR373 

> <Gold.Protein.RotatedAtoms>
    4.1755   -8.4841    4.0572 H   0  0  0  0  0  0  0  0  0  0  0  0  # atno 1303 bound_to 1298
    0.9078   -9.2818    8.2764 H   0  0  0  0  0  0  0  0  0  0  0  0  # atno 2461 bound_to 2456
   -4.8360   -5.4641    9.3881 H   0  0  0  0  0  0  0  0  0  0  0  0  # atno 2472 bound_to 2467
    2.1585   -7.4536    5.4246 H   0  0  0  0  0  0  0  0  0  0  0  0  # atno 2515 bound_to 2510
   -3.3356  -16.5633   13.6762 H   0  0  0  0  0  0  0  0  0  0  0  0  # atno 3721 bound_to 3712
   -4.8861  -21.9561   11.4977 H   0  0  0  0  0  0  0  0  0  0  0  0  # atno 3767 bound_to 3762
    1.6395  -20.3311    9.4794 H   0  0  0  0  0  0  0  0  0  0  0  0  # atno 3841 bound_to 3832
    4.7769   -9.7114    4.9507 LP  0  0  0  0  0  0  0  0  0  0  0  0  # atno 4297 bound_to 1298
    3.4097   -9.9261    4.0839 LP  0  0  0  0  0  0  0  0  0  0  0  0  # atno 4298 bound_to 1298
    2.1516   -8.3480    7.7777 LP  0  0  0  0  0  0  0  0  0  0  0  0  # atno 4299 bound_to 2456
    0.6783   -8.1786    7.0942 LP  0  0  0  0  0  0  0  0  0  0  0  0  # atno 4300 bound_to 2456
    2.8260   -8.5264    4.3905 LP  0  0  0  0  0  0  0  0  0  0  0  0  # atno 4301 bound_to 2510
    2.3124   -9.0196    5.8600 LP  0  0  0  0  0  0  0  0  0  0  0  0  # atno 4302 bound_to 2510
   -2.7884  -18.0111   13.2492 LP  0  0  0  0  0  0  0  0  0  0  0  0  # atno 4306 bound_to 3712
   -2.8882  -17.5925   14.8244 LP  0  0  0  0  0  0  0  0  0  0  0  0  # atno 4307 bound_to 3712
    2.3452  -19.7129    8.1772 LP  0  0  0  0  0  0  0  0  0  0  0  0  # atno 4314 bound_to 3832
    2.9902  -21.0069    8.9363 LP  0  0  0  0  0  0  0  0  0  0  0  0  # atno 4315 bound_to 3832
   -3.9432  -23.1681   10.9419 LP  0  0  0  0  0  0  0  0  0  0  0  0  # atno 4318 bound_to 3762
   -5.2981  -22.7506   10.1317 LP  0  0  0  0  0  0  0  0  0  0  0  0  # atno 4319 bound_to 3762
   -5.2198   -4.9628    7.8822 LP  0  0  0  0  0  0  0  0  0  0  0  0  # atno 4320 bound_to 2467
   -3.6611   -4.9667    8.3690 LP  0  0  0  0  0  0  0  0  0  0  0  0  # atno 4321 bound_to 2467

> <Gold.Score>
     Score     S(PLP)   S(hbond)     S(cho)   S(metal)  DE(clash)   DE(tors)     intcor
     68.14     -61.22       2.99       0.00       0.00       0.00       1.08       0.11

> <Gold.PLP.Fitness>
68.1418

> <Gold.PLP.PLP>
-61.2183

> <Gold.PLP.part.hbond>
-3.0000

> <Gold.PLP.part.metal>
0.0000

> <Gold.PLP.part.buried>
-4.4955

> <Gold.PLP.part.nonpolar>
-55.2450

> <Gold.PLP.part.repulsive>
0.2955

> <Gold.PLP.ligand.clash>
0.0000

> <Gold.PLP.ligand.torsion>
1.0800

> <Gold.PLP.Chemscore.Hbond>
2.9920

> <Gold.PLP.Chemscore.CHOScore>
0.0000

> <Gold.PLP.Chemscore.Metal>
0.0000

> <Gold.Chemscore.Hbonds>
donor molecule, donor type, donor heavy atom, donor atom, acceptor molecule, acceptor atom, score
      L1  H     7    40       P1  1227  0.99
      P1  H  2305  2313       L1    21  1.00
      P1  H  3832  3841       L1     3  1.00

> <Gold.PLP.Chemscore.Internal.Correction>
0.1073

