#       Name:                EN300-719569_i001
#       Creating user name   fsindt
#       Creation time:       Mon Feb 27 17:08:30 2023


#       File generated by GOLD software.
#

@<TRIPOS>MOLECULE
EN300-719569_i001|acide_3|mol2|26|dock11
    40    40     1
SMALL
USER_CHARGES


@<TRIPOS>ATOM
      1 N1          -3.1755  -9.3332  10.0285 N.am           1 <1>                0.0000
      2 C2          -2.0491 -10.0204  10.3031 C.2            1 <1>                0.0000
      3 O3          -1.2046  -9.5364  11.0266 O.2            1 <1>                0.0000
      4 C4          -1.8389 -11.3902   9.7110 C.3            1 <1>                0.0000
      5 C5          -0.5114 -11.9636  10.2109 C.3            1 <1>                0.0000
      6 C6          -0.0806 -13.1178   9.3036 C.3            1 <1>                0.0000
      7 N7           0.7935 -14.0258  10.0503 N.am           1 <1>                0.0000
      8 C8           0.3670 -14.5735  11.2056 C.2            1 <1>                0.0000
      9 O9          -0.7404 -14.3147  11.6270 O.2            1 <1>                0.0000
     10 C10          1.2662 -15.5076  11.9737 C.3            1 <1>                0.0000
     11 C11          0.7773 -15.6118  13.4198 C.3            1 <1>                0.0000
     12 C12          1.4533 -16.8029  14.1021 C.3            1 <1>                0.0000
     13 C13          1.0808 -18.0726  13.3809 C.ar           1 <1>                0.0000
     14 C14         -0.2195 -18.5390  13.4294 C.ar           1 <1>                0.0000
     15 C15         -0.5612 -19.7038  12.7680 C.ar           1 <1>                0.0000
     16 C16          0.3974 -20.4018  12.0576 C.ar           1 <1>                0.0000
     17 C17          1.6976 -19.9349  12.0083 C.ar           1 <1>                0.0000
     18 C18          2.0383 -18.7679  12.6662 C.ar           1 <1>                0.0000
     19 C19          0.6635 -12.5701   8.1131 C.2            1 <1>                0.0000
     20 O20          0.8460 -11.3692   8.0079 O.co2          1 <1>                0.0000
     21 O21          1.0830 -13.3278   7.2550 O.co2          1 <1>               -1.0000
     22 H22         -2.6550 -12.0461  10.0140 H              1 <1>                0.0000
     23 H23         -1.8165 -11.3164   8.6238 H              1 <1>                0.0000
     24 H24          0.2504 -11.1842  10.1939 H              1 <1>                0.0000
     25 H25         -0.6344 -12.3292  11.2303 H              1 <1>                0.0000
     26 H26         -0.9623 -13.6605   8.9627 H              1 <1>                0.0000
     27 H27          1.2453 -16.4943  11.5111 H              1 <1>                0.0000
     28 H28          2.2857 -15.1221  11.9617 H              1 <1>                0.0000
     29 H29          1.0282 -14.6960  13.9551 H              1 <1>                0.0000
     30 H30         -0.3034 -15.7533  13.4287 H              1 <1>                0.0000
     31 H31          2.5350 -16.6724  14.0728 H              1 <1>                0.0000
     32 H32          1.1224 -16.8634  15.1389 H              1 <1>                0.0000
     33 H33         -0.9685 -17.9937  13.9844 H              1 <1>                0.0000
     34 H34         -1.5769 -20.0686  12.8064 H              1 <1>                0.0000
     35 H35          0.1307 -21.3122  11.5413 H              1 <1>                0.0000
     36 H36          2.4466 -20.4805  11.4536 H              1 <1>                0.0000
     37 H37          3.0541 -18.4031  12.6277 H              1 <1>                0.0000
     38 H38         -3.3091  -8.4499  10.4065 H              1 <1>                0.0000
     39 H39         -3.8509  -9.7203   9.4498 H              1 <1>                0.0000
     40 H40          1.6792 -14.2329   9.7133 H              1 <1>                0.0000
@<TRIPOS>BOND
    1    1    2 am    
    2    1   38 1     
    3    1   39 1     
    4    2    3 2     
    5    2    4 1     
    6    4    5 1     
    7    4   22 1     
    8    4   23 1     
    9    5    6 1     
   10    5   24 1     
   11    5   25 1     
   12    6    7 1     
   13    6   19 1     
   14    6   26 1     
   15    7    8 am    
   16    7   40 1     
   17    8    9 2     
   18    8   10 1     
   19   10   11 1     
   20   10   27 1     
   21   10   28 1     
   22   11   12 1     
   23   11   29 1     
   24   11   30 1     
   25   12   13 1     
   26   12   31 1     
   27   12   32 1     
   28   13   14 ar    
   29   13   18 ar    
   30   14   15 ar    
   31   14   33 1     
   32   15   16 ar    
   33   15   34 1     
   34   16   17 ar    
   35   16   35 1     
   36   17   18 ar    
   37   17   36 1     
   38   18   37 1     
   39   19   20 ar    
   40   19   21 ar    
@<TRIPOS>SUBSTRUCTURE
      1 ****           1
@<TRIPOS>SET
DONOR_HYDROGENS      STATIC     ATOMS    <user>   **** ""
3 38 39 40
ATOM$RED        STATIC     ATOMS    COLORGROUP SYSTEM
3 38 39 40
@<TRIPOS>COMMENT
> <Gold.Version>
2022.2.0

> <Gold.Id.Protein>
3pbl|protein|mol2

> <Gold.Protein.RotatedTorsions>
[ 1303 1298 1297 1294 ] final -167.12 input  179.99 | X-H torsion
[ 2461 2456 2455 2452 ] final -144.76 input   30.03 | X-H torsion
[ 2515 2510 2509 2506 ] final -140.65 input  -89.99 | X-H torsion
[ 3721 3712 3711 3710 ] final   36.18 input -179.91 | X-H torsion
[ 3841 3832 3831 3830 ] final  102.55 input -179.91 | X-H torsion
[ 3767 3762 3761 3758 ] final  169.30 input  -89.99 | X-H torsion
[ 2472 2467 2466 2463 ] final   25.68 input  -89.97 | X-H torsion

> <Gold.Protein.ActiveResidues>
 VAL82   VAL86   LEU89   PHE106  VAL107  ASP110  VAL111  MET112  CYS114  THR115 
 CYS181  SER182  ILE183  PHE188  VAL189  ILE190  SER192  SER193  SER196  TRP342 
 PHE345  PHE346  HIS349  VAL350  TYR365  THR369  GLY372  TYR373 

> <Gold.Protein.RotatedAtoms>
    4.7709   -8.7209    4.5628 H   0  0  0  0  0  0  0  0  0  0  0  0  # atno 1303 bound_to 1298
    0.8984   -9.2806    8.2720 H   0  0  0  0  0  0  0  0  0  0  0  0  # atno 2461 bound_to 2456
   -4.1035   -4.8091    7.7944 H   0  0  0  0  0  0  0  0  0  0  0  0  # atno 2472 bound_to 2467
    2.5948   -9.2573    5.3124 H   0  0  0  0  0  0  0  0  0  0  0  0  # atno 2515 bound_to 2510
   -2.4963  -18.0232   13.7086 H   0  0  0  0  0  0  0  0  0  0  0  0  # atno 3721 bound_to 3712
   -4.0095  -22.6651   11.4880 H   0  0  0  0  0  0  0  0  0  0  0  0  # atno 3767 bound_to 3762
    2.9632  -20.8586    9.1320 H   0  0  0  0  0  0  0  0  0  0  0  0  # atno 3841 bound_to 3832
    4.1856  -10.2347    4.7428 LP  0  0  0  0  0  0  0  0  0  0  0  0  # atno 4297 bound_to 1298
    3.4054   -9.1660    3.7859 LP  0  0  0  0  0  0  0  0  0  0  0  0  # atno 4298 bound_to 1298
    2.1530   -8.3551    7.7853 LP  0  0  0  0  0  0  0  0  0  0  0  0  # atno 4299 bound_to 2456
    0.6863   -8.1726    7.0910 LP  0  0  0  0  0  0  0  0  0  0  0  0  # atno 4300 bound_to 2456
    2.0309   -7.8560    5.9324 LP  0  0  0  0  0  0  0  0  0  0  0  0  # atno 4301 bound_to 2510
    2.6709   -7.8854    4.4304 LP  0  0  0  0  0  0  0  0  0  0  0  0  # atno 4302 bound_to 2510
   -3.1822  -17.0811   14.8131 LP  0  0  0  0  0  0  0  0  0  0  0  0  # atno 4306 bound_to 3712
   -3.4634  -16.8371   13.2231 LP  0  0  0  0  0  0  0  0  0  0  0  0  # atno 4307 bound_to 3712
    1.4426  -20.3901    9.3424 LP  0  0  0  0  0  0  0  0  0  0  0  0  # atno 4314 bound_to 3832
    2.3638  -19.7203    8.1723 LP  0  0  0  0  0  0  0  0  0  0  0  0  # atno 4315 bound_to 3832
   -4.7185  -23.2194   10.1253 LP  0  0  0  0  0  0  0  0  0  0  0  0  # atno 4318 bound_to 3762
   -5.3992  -21.9906   10.9580 LP  0  0  0  0  0  0  0  0  0  0  0  0  # atno 4319 bound_to 3762
   -4.1032   -5.3620    9.3309 LP  0  0  0  0  0  0  0  0  0  0  0  0  # atno 4320 bound_to 2467
   -5.5101   -5.2223    8.5136 LP  0  0  0  0  0  0  0  0  0  0  0  0  # atno 4321 bound_to 2467

> <Gold.Score>
     Score     S(PLP)   S(hbond)     S(cho)   S(metal)  DE(clash)   DE(tors)     intcor
     56.80     -52.26       1.98       0.00       0.00       0.00       0.75       0.11

> <Gold.PLP.Fitness>
56.8036

> <Gold.PLP.PLP>
-52.2562

> <Gold.PLP.part.hbond>
-2.0000

> <Gold.PLP.part.metal>
0.0000

> <Gold.PLP.part.buried>
-6.4924

> <Gold.PLP.part.nonpolar>
-45.1291

> <Gold.PLP.part.repulsive>
0.3355

> <Gold.PLP.ligand.clash>
0.0000

> <Gold.PLP.ligand.torsion>
0.7549

> <Gold.PLP.Chemscore.Hbond>
1.9833

> <Gold.PLP.Chemscore.CHOScore>
0.0000

> <Gold.PLP.Chemscore.Metal>
0.0000

> <Gold.Chemscore.Hbonds>
donor molecule, donor type, donor heavy atom, donor atom, acceptor molecule, acceptor atom, score
      L1  H     1    38       P1  2398  1.00
      P1  H  2456  2461       L1    20  0.98

> <Gold.PLP.Chemscore.Internal.Correction>
0.1073

