#       Name:                EN300-719569_i001
#       Creating user name   fsindt
#       Creation time:       Mon Feb 27 17:08:43 2023


#       File generated by GOLD software.
#

@<TRIPOS>MOLECULE
EN300-719569_i001|acide_3|mol2|26|dock20
    40    40     1
SMALL
USER_CHARGES


@<TRIPOS>ATOM
      1 N1          -2.5560  -9.3555   9.8495 N.am           1 <1>                0.0000
      2 C2          -1.5451 -10.1809  10.1859 C.2            1 <1>                0.0000
      3 O3          -0.7884  -9.8782  11.0841 O.2            1 <1>                0.0000
      4 C4          -1.3548 -11.4799   9.4460 C.3            1 <1>                0.0000
      5 C5          -0.0679 -12.1554   9.9241 C.3            1 <1>                0.0000
      6 C6          -0.0972 -13.6366   9.5419 C.3            1 <1>                0.0000
      7 N7           0.9002 -14.3642  10.3305 N.am           1 <1>                0.0000
      8 C8           0.5674 -14.8734  11.5333 C.2            1 <1>                0.0000
      9 O9          -0.5576 -14.7293  11.9626 O.2            1 <1>                0.0000
     10 C10          1.5935 -15.6219  12.3445 C.3            1 <1>                0.0000
     11 C11          0.9294 -16.8198  13.0264 C.3            1 <1>                0.0000
     12 C12          2.0076 -17.7675  13.5559 C.3            1 <1>                0.0000
     13 C13          1.3535 -18.9474  14.2276 C.ar           1 <1>                0.0000
     14 C14          1.5052 -20.2154  13.6986 C.ar           1 <1>                0.0000
     15 C15          0.9051 -21.2977  14.3146 C.ar           1 <1>                0.0000
     16 C16          0.1538 -21.1119  15.4600 C.ar           1 <1>                0.0000
     17 C17          0.0029 -19.8439  15.9896 C.ar           1 <1>                0.0000
     18 C18          0.6065 -18.7624  15.3759 C.ar           1 <1>                0.0000
     19 C19          0.2175 -13.7833   8.0754 C.2            1 <1>                0.0000
     20 O20          0.2062 -14.8867   7.5569 O.co2          1 <1>                0.0000
     21 O21          0.4835 -12.7985   7.4075 O.co2          1 <1>               -1.0000
     22 H22         -2.2033 -12.1361   9.6399 H              1 <1>                0.0000
     23 H23         -1.2856 -11.2819   8.3764 H              1 <1>                0.0000
     24 H24          0.7905 -11.6757   9.4539 H              1 <1>                0.0000
     25 H25          0.0111 -12.0611  11.0071 H              1 <1>                0.0000
     26 H26         -1.0878 -14.0444   9.7434 H              1 <1>                0.0000
     27 H27          2.3900 -15.9729  11.6883 H              1 <1>                0.0000
     28 H28          2.0121 -14.9589  13.1017 H              1 <1>                0.0000
     29 H29          0.3136 -16.4707  13.8553 H              1 <1>                0.0000
     30 H30          0.3040 -17.3473  12.3061 H              1 <1>                0.0000
     31 H31          2.6233 -18.1166  12.7271 H              1 <1>                0.0000
     32 H32          2.6330 -17.2401  14.2762 H              1 <1>                0.0000
     33 H33          2.0922 -20.3606  12.8037 H              1 <1>                0.0000
     34 H34          1.0230 -22.2883  13.9010 H              1 <1>                0.0000
     35 H35         -0.3155 -21.9574  15.9410 H              1 <1>                0.0000
     36 H36         -0.5844 -19.6988  16.8842 H              1 <1>                0.0000
     37 H37          0.4886 -17.7717  15.7896 H              1 <1>                0.0000
     38 H38         -2.6761  -8.5176  10.3231 H              1 <1>                0.0000
     39 H39         -3.1611  -9.5976   9.1310 H              1 <1>                0.0000
     40 H40          1.8000 -14.4795   9.9871 H              1 <1>                0.0000
@<TRIPOS>BOND
    1    1    2 am    
    2    1   38 1     
    3    1   39 1     
    4    2    3 2     
    5    2    4 1     
    6    4    5 1     
    7    4   22 1     
    8    4   23 1     
    9    5    6 1     
   10    5   24 1     
   11    5   25 1     
   12    6    7 1     
   13    6   19 1     
   14    6   26 1     
   15    7    8 am    
   16    7   40 1     
   17    8    9 2     
   18    8   10 1     
   19   10   11 1     
   20   10   27 1     
   21   10   28 1     
   22   11   12 1     
   23   11   29 1     
   24   11   30 1     
   25   12   13 1     
   26   12   31 1     
   27   12   32 1     
   28   13   14 ar    
   29   13   18 ar    
   30   14   15 ar    
   31   14   33 1     
   32   15   16 ar    
   33   15   34 1     
   34   16   17 ar    
   35   16   35 1     
   36   17   18 ar    
   37   17   36 1     
   38   18   37 1     
   39   19   20 ar    
   40   19   21 ar    
@<TRIPOS>SUBSTRUCTURE
      1 ****           1
@<TRIPOS>SET
DONOR_HYDROGENS      STATIC     ATOMS    <user>   **** ""
3 38 39 40
ATOM$RED        STATIC     ATOMS    COLORGROUP SYSTEM
3 38 39 40
@<TRIPOS>COMMENT
> <Gold.Version>
2022.2.0

> <Gold.Id.Protein>
3pbl|protein|mol2

> <Gold.Protein.RotatedTorsions>
[ 1303 1298 1297 1294 ] final -101.46 input  179.99 | X-H torsion
[ 2461 2456 2455 2452 ] final  -38.76 input   30.03 | X-H torsion
[ 2515 2510 2509 2506 ] final -179.99 input  -89.99 | X-H torsion
[ 3721 3712 3711 3710 ] final -172.74 input -179.91 | X-H torsion
[ 3841 3832 3831 3830 ] final    0.13 input -179.91 | X-H torsion
[ 3767 3762 3761 3758 ] final -147.76 input  -89.99 | X-H torsion
[ 2472 2467 2466 2463 ] final   28.60 input  -89.97 | X-H torsion

> <Gold.Protein.ActiveResidues>
 VAL82   VAL86   LEU89   PHE106  VAL107  ASP110  VAL111  MET112  CYS114  THR115 
 CYS181  SER182  ILE183  PHE188  VAL189  ILE190  SER192  SER193  SER196  TRP342 
 PHE345  PHE346  HIS349  VAL350  TYR365  THR369  GLY372  TYR373 

> <Gold.Protein.RotatedAtoms>
    3.9782   -8.5426    3.9427 H   0  0  0  0  0  0  0  0  0  0  0  0  # atno 1303 bound_to 1298
    0.5275   -8.3145    7.1774 H   0  0  0  0  0  0  0  0  0  0  0  0  # atno 2461 bound_to 2456
   -4.1455   -4.8054    7.7714 H   0  0  0  0  0  0  0  0  0  0  0  0  # atno 2472 bound_to 2467
    2.3239   -9.0371    5.8421 H   0  0  0  0  0  0  0  0  0  0  0  0  # atno 2515 bound_to 2510
   -3.3337  -16.5709   13.6494 H   0  0  0  0  0  0  0  0  0  0  0  0  # atno 3721 bound_to 3712
   -4.4645  -22.1710   11.6464 H   0  0  0  0  0  0  0  0  0  0  0  0  # atno 3767 bound_to 3762
    1.7379  -20.4882    9.5591 H   0  0  0  0  0  0  0  0  0  0  0  0  # atno 3841 bound_to 3832
    4.8661   -9.4945    4.9285 LP  0  0  0  0  0  0  0  0  0  0  0  0  # atno 4297 bound_to 1298
    3.5180  -10.0845    4.2206 LP  0  0  0  0  0  0  0  0  0  0  0  0  # atno 4298 bound_to 1298
    1.1137   -9.2858    8.3523 LP  0  0  0  0  0  0  0  0  0  0  0  0  # atno 4299 bound_to 2456
    2.0964   -8.2077    7.6183 LP  0  0  0  0  0  0  0  0  0  0  0  0  # atno 4300 bound_to 2456
    2.1497   -7.4619    5.4494 LP  0  0  0  0  0  0  0  0  0  0  0  0  # atno 4301 bound_to 2510
    2.8232   -8.4997    4.3835 LP  0  0  0  0  0  0  0  0  0  0  0  0  # atno 4302 bound_to 2510
   -2.7765  -18.0285   13.2717 LP  0  0  0  0  0  0  0  0  0  0  0  0  # atno 4306 bound_to 3712
   -2.9024  -17.5665   14.8329 LP  0  0  0  0  0  0  0  0  0  0  0  0  # atno 4307 bound_to 3712
    2.1426  -19.6535    8.2494 LP  0  0  0  0  0  0  0  0  0  0  0  0  # atno 4314 bound_to 3832
    3.0792  -20.8849    8.7720 LP  0  0  0  0  0  0  0  0  0  0  0  0  # atno 4315 bound_to 3832
   -4.1697  -23.3256   10.5299 LP  0  0  0  0  0  0  0  0  0  0  0  0  # atno 4318 bound_to 3762
   -5.4930  -22.3783   10.3951 LP  0  0  0  0  0  0  0  0  0  0  0  0  # atno 4319 bound_to 3762
   -4.0625   -5.3496    9.3087 LP  0  0  0  0  0  0  0  0  0  0  0  0  # atno 4320 bound_to 2467
   -5.5089   -5.2385    8.5589 LP  0  0  0  0  0  0  0  0  0  0  0  0  # atno 4321 bound_to 2467

> <Gold.Score>
     Score     S(PLP)   S(hbond)     S(cho)   S(metal)  DE(clash)   DE(tors)     intcor
     50.18     -49.09       1.00       0.00       0.00       0.00       1.01       0.11

> <Gold.PLP.Fitness>
50.1796

> <Gold.PLP.PLP>
-49.0866

> <Gold.PLP.part.hbond>
-1.0000

> <Gold.PLP.part.metal>
0.0000

> <Gold.PLP.part.buried>
-8.9095

> <Gold.PLP.part.nonpolar>
-39.9664

> <Gold.PLP.part.repulsive>
0.3153

> <Gold.PLP.ligand.clash>
0.0000

> <Gold.PLP.ligand.torsion>
1.0071

> <Gold.PLP.Chemscore.Hbond>
1.0000

> <Gold.PLP.Chemscore.CHOScore>
0.0000

> <Gold.PLP.Chemscore.Metal>
0.0000

> <Gold.Chemscore.Hbonds>
donor molecule, donor type, donor heavy atom, donor atom, acceptor molecule, acceptor atom, score
      L1  H     1    38       P1  2398  1.00

> <Gold.PLP.Chemscore.Internal.Correction>
0.1073

