#       Name:                EN300-719569_i001
#       Creating user name   fsindt
#       Creation time:       Mon Feb 27 17:08:34 2023


#       File generated by GOLD software.
#

@<TRIPOS>MOLECULE
EN300-719569_i001|acide_3|mol2|26|dock14
    40    40     1
SMALL
USER_CHARGES


@<TRIPOS>ATOM
      1 N1          -1.4570 -10.2179  11.0786 N.am           1 <1>                0.0000
      2 C2          -0.4883 -10.9400  10.4814 C.2            1 <1>                0.0000
      3 O3           0.4908 -10.3848  10.0296 O.2            1 <1>                0.0000
      4 C4          -0.6217 -12.4373  10.3748 C.3            1 <1>                0.0000
      5 C5           0.6216 -13.0129   9.6938 C.3            1 <1>                0.0000
      6 C6           0.3892 -14.4908   9.3730 C.3            1 <1>                0.0000
      7 N7           1.1378 -15.3198  10.3209 N.am           1 <1>                0.0000
      8 C8           0.7902 -15.3355  11.6231 C.2            1 <1>                0.0000
      9 O9          -0.1422 -14.6635  12.0100 O.2            1 <1>                0.0000
     10 C10          1.5603 -16.1883  12.5981 C.3            1 <1>                0.0000
     11 C11          0.8965 -17.5624  12.7087 C.3            1 <1>                0.0000
     12 C12          1.8325 -18.5232  13.4449 C.3            1 <1>                0.0000
     13 C13          1.3087 -19.9305  13.3180 C.ar           1 <1>                0.0000
     14 C14          0.7394 -20.3518  12.1309 C.ar           1 <1>                0.0000
     15 C15          0.2588 -21.6427  12.0146 C.ar           1 <1>                0.0000
     16 C16          0.3481 -22.5125  13.0852 C.ar           1 <1>                0.0000
     17 C17          0.9183 -22.0915  14.2721 C.ar           1 <1>                0.0000
     18 C18          1.4027 -20.8020  14.3870 C.ar           1 <1>                0.0000
     19 C19          0.8602 -14.7807   7.9712 C.2            1 <1>                0.0000
     20 O20          1.3752 -13.8980   7.3063 O.co2          1 <1>                0.0000
     21 O21          0.7261 -15.8979   7.5018 O.co2          1 <1>               -1.0000
     22 H22         -0.7204 -12.8652  11.3725 H              1 <1>                0.0000
     23 H23         -1.5052 -12.6823   9.7854 H              1 <1>                0.0000
     24 H24          0.8157 -12.4670   8.7706 H              1 <1>                0.0000
     25 H25          1.4786 -12.9162  10.3602 H              1 <1>                0.0000
     26 H26         -0.6741 -14.7172   9.4531 H              1 <1>                0.0000
     27 H27          2.5852 -16.3072  12.2464 H              1 <1>                0.0000
     28 H28          1.5653 -15.7074  13.5763 H              1 <1>                0.0000
     29 H29         -0.0384 -17.4708  13.2617 H              1 <1>                0.0000
     30 H30          0.6917 -17.9484  11.7102 H              1 <1>                0.0000
     31 H31          2.8292 -18.4657  13.0076 H              1 <1>                0.0000
     32 H32          1.8812 -18.2472  14.4983 H              1 <1>                0.0000
     33 H33          0.6696 -19.6722  11.2944 H              1 <1>                0.0000
     34 H34         -0.1866 -21.9716  11.0874 H              1 <1>                0.0000
     35 H35         -0.0279 -23.5209  12.9946 H              1 <1>                0.0000
     36 H36          0.9877 -22.7710  15.1087 H              1 <1>                0.0000
     37 H37          1.8482 -20.4731  15.3142 H              1 <1>                0.0000
     38 H38         -1.3729  -9.2538  11.1437 H              1 <1>                0.0000
     39 H39         -2.2401 -10.6620  11.4398 H              1 <1>                0.0000
     40 H40          1.8835 -15.8573  10.0114 H              1 <1>                0.0000
@<TRIPOS>BOND
    1    1    2 am    
    2    1   38 1     
    3    1   39 1     
    4    2    3 2     
    5    2    4 1     
    6    4    5 1     
    7    4   22 1     
    8    4   23 1     
    9    5    6 1     
   10    5   24 1     
   11    5   25 1     
   12    6    7 1     
   13    6   19 1     
   14    6   26 1     
   15    7    8 am    
   16    7   40 1     
   17    8    9 2     
   18    8   10 1     
   19   10   11 1     
   20   10   27 1     
   21   10   28 1     
   22   11   12 1     
   23   11   29 1     
   24   11   30 1     
   25   12   13 1     
   26   12   31 1     
   27   12   32 1     
   28   13   14 ar    
   29   13   18 ar    
   30   14   15 ar    
   31   14   33 1     
   32   15   16 ar    
   33   15   34 1     
   34   16   17 ar    
   35   16   35 1     
   36   17   18 ar    
   37   17   36 1     
   38   18   37 1     
   39   19   20 ar    
   40   19   21 ar    
@<TRIPOS>SUBSTRUCTURE
      1 ****           1
@<TRIPOS>SET
DONOR_HYDROGENS      STATIC     ATOMS    <user>   **** ""
3 38 39 40
ATOM$RED        STATIC     ATOMS    COLORGROUP SYSTEM
3 38 39 40
@<TRIPOS>COMMENT
> <Gold.Version>
2022.2.0

> <Gold.Id.Protein>
3pbl|protein|mol2

> <Gold.Protein.RotatedTorsions>
[ 1303 1298 1297 1294 ] final   30.74 input  179.99 | X-H torsion
[ 2461 2456 2455 2452 ] final -153.42 input   30.03 | X-H torsion
[ 2515 2510 2509 2506 ] final  176.68 input  -89.99 | X-H torsion
[ 3721 3712 3711 3710 ] final   79.80 input -179.91 | X-H torsion
[ 3841 3832 3831 3830 ] final   22.65 input -179.91 | X-H torsion
[ 3767 3762 3761 3758 ] final -106.40 input  -89.99 | X-H torsion
[ 2472 2467 2466 2463 ] final  -99.91 input  -89.97 | X-H torsion

> <Gold.Protein.ActiveResidues>
 VAL82   VAL86   LEU89   PHE106  VAL107  ASP110  VAL111  MET112  CYS114  THR115 
 CYS181  SER182  ILE183  PHE188  VAL189  ILE190  SER192  SER193  SER196  TRP342 
 PHE345  PHE346  HIS349  VAL350  TYR365  THR369  GLY372  TYR373 

> <Gold.Protein.RotatedAtoms>
    3.6397  -10.1842    4.3445 H   0  0  0  0  0  0  0  0  0  0  0  0  # atno 1303 bound_to 1298
    1.0299   -9.2888    8.3260 H   0  0  0  0  0  0  0  0  0  0  0  0  # atno 2461 bound_to 2456
   -4.1845   -5.3849    9.3674 H   0  0  0  0  0  0  0  0  0  0  0  0  # atno 2472 bound_to 2467
    2.3014   -9.0010    5.8769 H   0  0  0  0  0  0  0  0  0  0  0  0  # atno 2515 bound_to 2510
   -2.7118  -17.7293   13.1781 H   0  0  0  0  0  0  0  0  0  0  0  0  # atno 3721 bound_to 3712
   -5.0304  -21.9227   11.3980 H   0  0  0  0  0  0  0  0  0  0  0  0  # atno 3767 bound_to 3762
    1.9745  -20.7215    9.6215 H   0  0  0  0  0  0  0  0  0  0  0  0  # atno 3841 bound_to 3832
    3.8172   -8.6333    3.8654 LP  0  0  0  0  0  0  0  0  0  0  0  0  # atno 4297 bound_to 1298
    4.9055   -9.3036    4.8817 LP  0  0  0  0  0  0  0  0  0  0  0  0  # atno 4298 bound_to 1298
    2.1242   -8.2616    7.6819 LP  0  0  0  0  0  0  0  0  0  0  0  0  # atno 4299 bound_to 2456
    0.5836   -8.2580    7.1404 LP  0  0  0  0  0  0  0  0  0  0  0  0  # atno 4300 bound_to 2456
    2.1670   -7.4453    5.3999 LP  0  0  0  0  0  0  0  0  0  0  0  0  # atno 4301 bound_to 2510
    2.8284   -8.5524    4.3981 LP  0  0  0  0  0  0  0  0  0  0  0  0  # atno 4302 bound_to 2510
   -2.8312  -17.6990   14.7790 LP  0  0  0  0  0  0  0  0  0  0  0  0  # atno 4306 bound_to 3712
   -3.5656  -16.5585   13.8697 LP  0  0  0  0  0  0  0  0  0  0  0  0  # atno 4307 bound_to 3712
    1.8215  -19.6451    8.4407 LP  0  0  0  0  0  0  0  0  0  0  0  0  # atno 4314 bound_to 3832
    3.1270  -20.6238    8.5087 LP  0  0  0  0  0  0  0  0  0  0  0  0  # atno 4315 bound_to 3832
   -3.9121  -23.0719   11.0891 LP  0  0  0  0  0  0  0  0  0  0  0  0  # atno 4318 bound_to 3762
   -5.1850  -22.8802   10.0842 LP  0  0  0  0  0  0  0  0  0  0  0  0  # atno 4319 bound_to 3762
   -5.5057   -5.1908    8.4276 LP  0  0  0  0  0  0  0  0  0  0  0  0  # atno 4320 bound_to 2467
   -4.0267   -4.8179    7.8443 LP  0  0  0  0  0  0  0  0  0  0  0  0  # atno 4321 bound_to 2467

> <Gold.Score>
     Score     S(PLP)   S(hbond)     S(cho)   S(metal)  DE(clash)   DE(tors)     intcor
     52.81     -49.91       1.91       0.00       0.00       0.00       1.47       0.11

> <Gold.PLP.Fitness>
52.8088

> <Gold.PLP.PLP>
-49.9150

> <Gold.PLP.part.hbond>
-2.0000

> <Gold.PLP.part.metal>
0.0000

> <Gold.PLP.part.buried>
-7.5531

> <Gold.PLP.part.nonpolar>
-41.3784

> <Gold.PLP.part.repulsive>
0.4466

> <Gold.PLP.ligand.clash>
0.0000

> <Gold.PLP.ligand.torsion>
1.4748

> <Gold.PLP.Chemscore.Hbond>
1.9120

> <Gold.PLP.Chemscore.CHOScore>
0.0000

> <Gold.PLP.Chemscore.Metal>
0.0000

> <Gold.Chemscore.Hbonds>
donor molecule, donor type, donor heavy atom, donor atom, acceptor molecule, acceptor atom, score
      L1  H     7    40       P1  1227  1.00
      P1  H  2456  2461       L1     3  0.91

> <Gold.PLP.Chemscore.Internal.Correction>
0.1073

