#       Name:                plp ligand
#       Creating user name   fsindt
#       Creation time:       Mon Feb 27 17:08:15 2023


#       File generated by GOLD software.
#

@<TRIPOS>MOLECULE
plp ligand
    40    40     1
SMALL
USER_CHARGES


@<TRIPOS>ATOM
      1 N1           5.8092   2.8933  -0.3067 DONOR          1 <1>                0.0000
      2 C2           5.6272   1.5748  -0.0949 NONPOLAR       1 <1>                0.0000
      3 O3           6.5256   0.9056   0.3699 ACCEPTOR       1 <1>                0.0000
      4 C4           4.3075   0.9319  -0.4357 NONPOLAR       1 <1>                0.0000
      5 C5           4.3654  -0.5599  -0.1009 NONPOLAR       1 <1>                0.0000
      6 C6           3.0255  -1.2125  -0.4469 NONPOLAR       1 <1>                0.0000
      7 N7           1.9771  -0.6622   0.4157 DONOR          1 <1>                0.0000
      8 C8           0.6929  -0.6737   0.0066 NONPOLAR       1 <1>                0.0000
      9 O9           0.4053  -1.1397  -1.0755 ACCEPTOR       1 <1>                0.0000
     10 C10         -0.3856  -0.1076   0.8940 NONPOLAR       1 <1>                0.0000
     11 C11         -1.7416  -0.2431   0.1984 NONPOLAR       1 <1>                0.0000
     12 C12         -2.8366   0.3317   1.0993 NONPOLAR       1 <1>                0.0000
     13 C13         -4.1722   0.1982   0.4142 NONPOLAR       1 <1>                0.0000
     14 C14         -4.9354  -0.9387   0.6032 NONPOLAR       1 <1>                0.0000
     15 C15         -6.1605  -1.0612  -0.0253 NONPOLAR       1 <1>                0.0000
     16 C16         -6.6226  -0.0465  -0.8424 NONPOLAR       1 <1>                0.0000
     17 C17         -5.8598   1.0909  -1.0307 NONPOLAR       1 <1>                0.0000
     18 C18         -4.6367   1.2152  -0.3988 NONPOLAR       1 <1>                0.0000
     19 C19          3.1218  -2.7012  -0.2332 NONPOLAR       1 <1>                0.0000
     20 O20          2.8429  -3.1805   0.8526 ACCEPTOR       1 <1>                0.0000
     21 O21          3.4787  -3.4263  -1.1461 ACCEPTOR       1 <1>               -1.0000
     22 H22          3.5134   1.4036   0.1431                1 <1>                0.0000
     23 H23          4.1059   1.0581  -1.4994                1 <1>                0.0000
     24 H24          5.1595  -1.0316  -0.6797                1 <1>                0.0000
     25 H25          4.5670  -0.6860   0.9628                1 <1>                0.0000
     26 H26          2.7814  -1.0103  -1.4898                1 <1>                0.0000
     27 H27         -0.4046  -0.6543   1.8368                1 <1>                0.0000
     28 H28         -0.1806   0.9452   1.0885                1 <1>                0.0000
     29 H29         -1.7226   0.3036  -0.7444                1 <1>                0.0000
     30 H30         -1.9466  -1.2958   0.0039                1 <1>                0.0000
     31 H31         -2.8556  -0.2150   2.0420                1 <1>                0.0000
     32 H32         -2.6316   1.3845   1.2938                1 <1>                0.0000
     33 H33         -4.5744  -1.7315   1.2416                1 <1>                0.0000
     34 H34         -6.7565  -1.9497   0.1218                1 <1>                0.0000
     35 H35         -7.5795  -0.1424  -1.3340                1 <1>                0.0000
     36 H36         -6.2207   1.8835  -1.6694                1 <1>                0.0000
     37 H37         -4.0407   2.1038  -0.5459                1 <1>                0.0000
     38 H38          6.6599   3.3063  -0.0910                1 <1>                0.0000
     39 H39          5.0907   3.4285  -0.6785                1 <1>                0.0000
     40 H40          2.2071  -0.2895   1.2812                1 <1>                0.0000
@<TRIPOS>BOND
    1    1    2 am    
    2    1   38 1     
    3    1   39 1     
    4    2    3 2     
    5    2    4 1     
    6    4    5 1     
    7    4   22 1     
    8    4   23 1     
    9    5    6 1     
   10    5   24 1     
   11    5   25 1     
   12    6    7 1     
   13    6   19 1     
   14    6   26 1     
   15    7    8 am    
   16    7   40 1     
   17    8    9 2     
   18    8   10 1     
   19   10   11 1     
   20   10   27 1     
   21   10   28 1     
   22   11   12 1     
   23   11   29 1     
   24   11   30 1     
   25   12   13 1     
   26   12   31 1     
   27   12   32 1     
   28   13   14 ar    
   29   13   18 ar    
   30   14   15 ar    
   31   14   33 1     
   32   15   16 ar    
   33   15   34 1     
   34   16   17 ar    
   35   16   35 1     
   36   17   18 ar    
   37   17   36 1     
   38   18   37 1     
   39   19   20 ar    
   40   19   21 ar    
@<TRIPOS>SUBSTRUCTURE
      1 ****           1
@<TRIPOS>SET
DONOR_HYDROGENS      STATIC     ATOMS    <user>   **** ""
3 38 39 40
ATOM$RED        STATIC     ATOMS    COLORGROUP SYSTEM
3 38 39 40
