#       Name:                EN300-650549_i001
#       Creating user name   aseyller
#       Creation time:       Fri Apr 21 12:52:48 2023


#       File generated by GOLD software.
#

@<TRIPOS>MOLECULE
EN300-650549_i001|amine_1|mol2|186|dock10
    19    18     1
SMALL
USER_CHARGES


@<TRIPOS>ATOM
      1 C1          32.3940  34.7845  37.5820 C.3            1 <1>                0.0000
      2 C2          31.7943  36.0996  38.0839 C.3            1 <1>                0.0000
      3 O3          30.4769  35.8494  38.6410 O.3            1 <1>                0.0000
      4 C4          29.6390  36.9017  38.7271 C.2            1 <1>                0.0000
      5 O5          29.9868  37.9908  38.3149 O.2            1 <1>                0.0000
      6 C6          28.3390  36.7364  39.3043 C.1            1 <1>                0.0000
      7 C7          27.2731  36.6008  39.7776 C.1            1 <1>                0.0000
      8 C8          25.9368  36.4309  40.3709 C.3            1 <1>                0.0000
      9 N9          25.9870  36.7761  41.7979 N.4            1 <1>                1.0000
     10 H10         32.4778  34.0833  38.4122 H              1 <1>                0.0000
     11 H11         31.7485  34.3611  36.8125 H              1 <1>                0.0000
     12 H12         33.3829  34.9724  37.1638 H              1 <1>                0.0000
     13 H13         32.4398  36.5230  38.8534 H              1 <1>                0.0000
     14 H14         31.7105  36.8010  37.2537 H              1 <1>                0.0000
     15 H15         25.2280  37.0853  39.8635 H              1 <1>                0.0000
     16 H16         25.6185  35.3944  40.2588 H              1 <1>                0.0000
     17 H17         26.8994  37.1433  42.0232 H              1 <1>                0.0000
     18 H18         25.2849  37.4719  42.0005 H              1 <1>                0.0000
     19 H19         25.8111  35.9501  42.3500 H              1 <1>                0.0000
@<TRIPOS>BOND
    1    1    2 1     
    2    1   10 1     
    3    1   11 1     
    4    1   12 1     
    5    2    3 1     
    6    2   13 1     
    7    2   14 1     
    8    3    4 1     
    9    4    5 2     
   10    4    6 1     
   11    6    7 3     
   12    7    8 1     
   13    8    9 1     
   14    8   15 1     
   15    8   16 1     
   16    9   17 1     
   17    9   18 1     
   18    9   19 1     
@<TRIPOS>SUBSTRUCTURE
      1 ****           1
@<TRIPOS>SET
DONOR_HYDROGENS      STATIC     ATOMS    <user>   **** ""
3 17 18 19
ATOM$RED        STATIC     ATOMS    COLORGROUP SYSTEM
3 17 18 19
@<TRIPOS>COMMENT
> <Gold.Version>
2022.2.0

> <Gold.Id.Protein>
1qkm|1qkm_protein|mol2

> <Gold.Protein.RotatedTorsions>
[  496  491  490  487 ] final   99.27 input  -89.99 | X-H torsion

> <Gold.Protein.ActiveResidues>
 MET295  LEU298  THR299  LEU301  ALA302  GLU305  TRP335  MET336  LEU339  MET340 
 GLY342  LEU343  ARG346  PHE356  ILE373  ILE376  PHE377  LEU380  LYS471  GLY472 
 MET473  HIS475  LEU476  LEU477  ASN478  MET479  VAL484  VAL487 

> <Gold.Protein.RotatedAtoms>
   36.9050   32.9721   41.9078 H   0  0  0  0  0  0  0  0  0  0  0  0  # atno 496  bound_to 491 

> <Gold.Score>
     Score     S(PLP)   S(hbond)     S(cho)   S(metal)  DE(clash)   DE(tors)     intcor
     33.44     -27.66       2.00       0.00       0.00       0.00       0.11       0.00

> <Gold.PLP.Fitness>
33.4448

> <Gold.PLP.PLP>
-27.6577

> <Gold.PLP.part.hbond>
-1.0000

> <Gold.PLP.part.metal>
0.0000

> <Gold.PLP.part.buried>
-4.2597

> <Gold.PLP.part.nonpolar>
-23.0326

> <Gold.PLP.part.repulsive>
0.1545

> <Gold.PLP.ligand.clash>
0.0000

> <Gold.PLP.ligand.torsion>
0.1065

> <Gold.PLP.Chemscore.Hbond>
2.0000

> <Gold.PLP.Chemscore.CHOScore>
0.0000

> <Gold.PLP.Chemscore.Metal>
0.0000

> <Gold.Chemscore.Hbonds>
donor molecule, donor type, donor heavy atom, donor atom, acceptor molecule, acceptor atom, score
      L1  H     9    19       P1   582  2.00

> <Gold.PLP.Chemscore.Internal.Correction>
0.0000

