#       Name:                EN300-650549_i001
#       Creating user name   aseyller
#       Creation time:       Fri Apr 21 12:52:46 2023


#       File generated by GOLD software.
#

@<TRIPOS>MOLECULE
EN300-650549_i001|amine_1|mol2|186|dock7
    19    18     1
SMALL
USER_CHARGES


@<TRIPOS>ATOM
      1 C1          31.8033  33.2407  37.9226 C.3            1 <1>                0.0000
      2 C2          32.1408  34.7166  37.7010 C.3            1 <1>                0.0000
      3 O3          31.6081  35.5049  38.7978 O.3            1 <1>                0.0000
      4 C4          30.3977  36.0692  38.6145 C.2            1 <1>                0.0000
      5 O5          30.0408  36.3927  37.4988 O.2            1 <1>                0.0000
      6 C6          29.5326  36.2876  39.7345 C.1            1 <1>                0.0000
      7 C7          28.8233  36.4667  40.6528 C.1            1 <1>                0.0000
      8 C8          27.9340  36.6914  41.8040 C.3            1 <1>                0.0000
      9 N9          26.5916  36.1825  41.4925 N.4            1 <1>                1.0000
     10 H10         32.2451  32.9039  38.8603 H              1 <1>                0.0000
     11 H11         30.7210  33.1181  37.9661 H              1 <1>                0.0000
     12 H12         32.2032  32.6489  37.0992 H              1 <1>                0.0000
     13 H13         33.2230  34.8392  37.6575 H              1 <1>                0.0000
     14 H14         31.6990  35.0535  36.7632 H              1 <1>                0.0000
     15 H15         28.3279  36.1679  42.6751 H              1 <1>                0.0000
     16 H16         27.8775  37.7590  42.0167 H              1 <1>                0.0000
     17 H17         26.6562  35.4870  40.7644 H              1 <1>                0.0000
     18 H18         26.1891  35.7674  42.3194 H              1 <1>                0.0000
     19 H19         26.0077  36.9436  41.1798 H              1 <1>                0.0000
@<TRIPOS>BOND
    1    1    2 1     
    2    1   10 1     
    3    1   11 1     
    4    1   12 1     
    5    2    3 1     
    6    2   13 1     
    7    2   14 1     
    8    3    4 1     
    9    4    5 2     
   10    4    6 1     
   11    6    7 3     
   12    7    8 1     
   13    8    9 1     
   14    8   15 1     
   15    8   16 1     
   16    9   17 1     
   17    9   18 1     
   18    9   19 1     
@<TRIPOS>SUBSTRUCTURE
      1 ****           1
@<TRIPOS>SET
DONOR_HYDROGENS      STATIC     ATOMS    <user>   **** ""
3 17 18 19
ATOM$RED        STATIC     ATOMS    COLORGROUP SYSTEM
3 17 18 19
@<TRIPOS>COMMENT
> <Gold.Version>
2022.2.0

> <Gold.Id.Protein>
1qkm|1qkm_protein|mol2

> <Gold.Protein.RotatedTorsions>
[  496  491  490  487 ] final  177.95 input  -89.99 | X-H torsion

> <Gold.Protein.ActiveResidues>
 MET295  LEU298  THR299  LEU301  ALA302  GLU305  TRP335  MET336  LEU339  MET340 
 GLY342  LEU343  ARG346  PHE356  ILE373  ILE376  PHE377  LEU380  LYS471  GLY472 
 MET473  HIS475  LEU476  LEU477  ASN478  MET479  VAL484  VAL487 

> <Gold.Protein.RotatedAtoms>
   37.3186   33.4326   40.8848 H   0  0  0  0  0  0  0  0  0  0  0  0  # atno 496  bound_to 491 

> <Gold.Score>
     Score     S(PLP)   S(hbond)     S(cho)   S(metal)  DE(clash)   DE(tors)     intcor
     35.59     -30.81       2.00       0.00       0.00       0.00       0.61       0.00

> <Gold.PLP.Fitness>
35.5851

> <Gold.PLP.PLP>
-30.8071

> <Gold.PLP.part.hbond>
-1.0000

> <Gold.PLP.part.metal>
0.0000

> <Gold.PLP.part.buried>
-3.9368

> <Gold.PLP.part.nonpolar>
-26.4953

> <Gold.PLP.part.repulsive>
0.1333

> <Gold.PLP.ligand.clash>
0.0000

> <Gold.PLP.ligand.torsion>
0.6110

> <Gold.PLP.Chemscore.Hbond>
2.0000

> <Gold.PLP.Chemscore.CHOScore>
0.0000

> <Gold.PLP.Chemscore.Metal>
0.0000

> <Gold.Chemscore.Hbonds>
donor molecule, donor type, donor heavy atom, donor atom, acceptor molecule, acceptor atom, score
      L1  H     9    18       P1   582  2.00

> <Gold.PLP.Chemscore.Internal.Correction>
0.0000

