#       Name:                EN300-650549_i001
#       Creating user name   aseyller
#       Creation time:       Fri Apr 21 12:52:42 2023


#       File generated by GOLD software.
#

@<TRIPOS>MOLECULE
EN300-650549_i001|amine_1|mol2|186|dock2
    19    18     1
SMALL
USER_CHARGES


@<TRIPOS>ATOM
      1 C1          33.2412  35.9472  37.2975 C.3            1 <1>                0.0000
      2 C2          32.2800  34.7625  37.4151 C.3            1 <1>                0.0000
      3 O3          31.4603  34.9203  38.6032 O.3            1 <1>                0.0000
      4 C4          30.6037  35.9609  38.6218 C.2            1 <1>                0.0000
      5 O5          30.6041  36.7647  37.7103 O.2            1 <1>                0.0000
      6 C6          29.6933  36.1193  39.7158 C.1            1 <1>                0.0000
      7 C7          28.9470  36.2492  40.6127 C.1            1 <1>                0.0000
      8 C8          28.0113  36.4120  41.7372 C.3            1 <1>                0.0000
      9 N9          26.8099  35.6019  41.4959 N.4            1 <1>                1.0000
     10 H10         32.6699  36.8726  37.2246 H              1 <1>                0.0000
     11 H11         33.8818  35.9841  38.1787 H              1 <1>                0.0000
     12 H12         33.8565  35.8287  36.4056 H              1 <1>                0.0000
     13 H13         31.6394  34.7256  36.5340 H              1 <1>                0.0000
     14 H14         32.8512  33.8370  37.4880 H              1 <1>                0.0000
     15 H15         28.4910  36.0846  42.6595 H              1 <1>                0.0000
     16 H16         27.7299  37.4614  41.8268 H              1 <1>                0.0000
     17 H17         27.0420  34.8276  40.8922 H              1 <1>                0.0000
     18 H18         26.4593  35.2503  42.3743 H              1 <1>                0.0000
     19 H19         26.1030  36.1716  41.0555 H              1 <1>                0.0000
@<TRIPOS>BOND
    1    1    2 1     
    2    1   10 1     
    3    1   11 1     
    4    1   12 1     
    5    2    3 1     
    6    2   13 1     
    7    2   14 1     
    8    3    4 1     
    9    4    5 2     
   10    4    6 1     
   11    6    7 3     
   12    7    8 1     
   13    8    9 1     
   14    8   15 1     
   15    8   16 1     
   16    9   17 1     
   17    9   18 1     
   18    9   19 1     
@<TRIPOS>SUBSTRUCTURE
      1 ****           1
@<TRIPOS>SET
DONOR_HYDROGENS      STATIC     ATOMS    <user>   **** ""
3 17 18 19
ATOM$RED        STATIC     ATOMS    COLORGROUP SYSTEM
3 17 18 19
@<TRIPOS>COMMENT
> <Gold.Version>
2022.2.0

> <Gold.Id.Protein>
1qkm|1qkm_protein|mol2

> <Gold.Protein.RotatedTorsions>
[  496  491  490  487 ] final  -86.63 input  -89.99 | X-H torsion

> <Gold.Protein.ActiveResidues>
 MET295  LEU298  THR299  LEU301  ALA302  GLU305  TRP335  MET336  LEU339  MET340 
 GLY342  LEU343  ARG346  PHE356  ILE373  ILE376  PHE377  LEU380  LYS471  GLY472 
 MET473  HIS475  LEU476  LEU477  ASN478  MET479  VAL484  VAL487 

> <Gold.Protein.RotatedAtoms>
   36.7263   34.6740   41.1202 H   0  0  0  0  0  0  0  0  0  0  0  0  # atno 496  bound_to 491 

> <Gold.Score>
     Score     S(PLP)   S(hbond)     S(cho)   S(metal)  DE(clash)   DE(tors)     intcor
     36.44     -30.50       2.00       0.00       0.00       0.00       0.03       0.00

> <Gold.PLP.Fitness>
36.4444

> <Gold.PLP.PLP>
-30.5044

> <Gold.PLP.part.hbond>
-1.0000

> <Gold.PLP.part.metal>
0.0000

> <Gold.PLP.part.buried>
-4.2447

> <Gold.PLP.part.nonpolar>
-26.4921

> <Gold.PLP.part.repulsive>
0.1241

> <Gold.PLP.ligand.clash>
0.0000

> <Gold.PLP.ligand.torsion>
0.0300

> <Gold.PLP.Chemscore.Hbond>
2.0000

> <Gold.PLP.Chemscore.CHOScore>
0.0000

> <Gold.PLP.Chemscore.Metal>
0.0000

> <Gold.Chemscore.Hbonds>
donor molecule, donor type, donor heavy atom, donor atom, acceptor molecule, acceptor atom, score
      L1  H     9    18       P1   582  2.00

> <Gold.PLP.Chemscore.Internal.Correction>
0.0000

