#       Name:                EN300-650549_i001
#       Creating user name   aseyller
#       Creation time:       Fri Apr 21 12:52:51 2023


#       File generated by GOLD software.
#

@<TRIPOS>MOLECULE
EN300-650549_i001|amine_1|mol2|186|dock13
    19    18     1
SMALL
USER_CHARGES


@<TRIPOS>ATOM
      1 C1          30.3855  39.9976  36.6677 C.3            1 <1>                0.0000
      2 C2          30.7881  38.5340  36.4760 C.3            1 <1>                0.0000
      3 O3          30.5742  37.8069  37.7145 O.3            1 <1>                0.0000
      4 C4          29.2980  37.6471  38.1177 C.2            1 <1>                0.0000
      5 O5          28.3859  38.0442  37.4196 O.2            1 <1>                0.0000
      6 C6          29.0168  37.0096  39.3688 C.1            1 <1>                0.0000
      7 C7          28.7863  36.4869  40.3944 C.1            1 <1>                0.0000
      8 C8          28.4972  35.8316  41.6804 C.3            1 <1>                0.0000
      9 N9          27.1259  36.1538  42.0969 N.4            1 <1>                1.0000
     10 H10         29.3324  40.0515  36.9435 H              1 <1>                0.0000
     11 H11         30.9913  40.4405  37.4583 H              1 <1>                0.0000
     12 H12         30.5460  40.5434  35.7380 H              1 <1>                0.0000
     13 H13         30.1823  38.0911  35.6855 H              1 <1>                0.0000
     14 H14         31.8412  38.4800  36.2001 H              1 <1>                0.0000
     15 H15         28.5990  34.7522  41.5692 H              1 <1>                0.0000
     16 H16         29.1991  36.1868  42.4351 H              1 <1>                0.0000
     17 H17         26.5217  36.1601  41.2889 H              1 <1>                0.0000
     18 H18         26.8020  35.4598  42.7537 H              1 <1>                0.0000
     19 H19         27.1121  37.0631  42.5342 H              1 <1>                0.0000
@<TRIPOS>BOND
    1    1    2 1     
    2    1   10 1     
    3    1   11 1     
    4    1   12 1     
    5    2    3 1     
    6    2   13 1     
    7    2   14 1     
    8    3    4 1     
    9    4    5 2     
   10    4    6 1     
   11    6    7 3     
   12    7    8 1     
   13    8    9 1     
   14    8   15 1     
   15    8   16 1     
   16    9   17 1     
   17    9   18 1     
   18    9   19 1     
@<TRIPOS>SUBSTRUCTURE
      1 ****           1
@<TRIPOS>SET
DONOR_HYDROGENS      STATIC     ATOMS    <user>   **** ""
3 17 18 19
ATOM$RED        STATIC     ATOMS    COLORGROUP SYSTEM
3 17 18 19
@<TRIPOS>COMMENT
> <Gold.Version>
2022.2.0

> <Gold.Id.Protein>
1qkm|1qkm_protein|mol2

> <Gold.Protein.RotatedTorsions>
[  496  491  490  487 ] final   52.48 input  -89.99 | X-H torsion

> <Gold.Protein.ActiveResidues>
 MET295  LEU298  THR299  LEU301  ALA302  GLU305  TRP335  MET336  LEU339  MET340 
 GLY342  LEU343  ARG346  PHE356  ILE373  ILE376  PHE377  LEU380  LYS471  GLY472 
 MET473  HIS475  LEU476  LEU477  ASN478  MET479  VAL484  VAL487 

> <Gold.Protein.RotatedAtoms>
   36.4915   33.4197   42.3432 H   0  0  0  0  0  0  0  0  0  0  0  0  # atno 496  bound_to 491 

> <Gold.Score>
     Score     S(PLP)   S(hbond)     S(cho)   S(metal)  DE(clash)   DE(tors)     intcor
     34.24     -28.30       2.00       0.00       0.00       0.00       0.03       0.00

> <Gold.PLP.Fitness>
34.2422

> <Gold.PLP.PLP>
-28.2969

> <Gold.PLP.part.hbond>
-1.0000

> <Gold.PLP.part.metal>
0.0000

> <Gold.PLP.part.buried>
-3.3357

> <Gold.PLP.part.nonpolar>
-24.3761

> <Gold.PLP.part.repulsive>
0.0563

> <Gold.PLP.ligand.clash>
0.0000

> <Gold.PLP.ligand.torsion>
0.0274

> <Gold.PLP.Chemscore.Hbond>
2.0000

> <Gold.PLP.Chemscore.CHOScore>
0.0000

> <Gold.PLP.Chemscore.Metal>
0.0000

> <Gold.Chemscore.Hbonds>
donor molecule, donor type, donor heavy atom, donor atom, acceptor molecule, acceptor atom, score
      L1  H     9    18       P1   582  2.00

> <Gold.PLP.Chemscore.Internal.Correction>
0.0000

