#       Name:                EN300-650549_i001
#       Creating user name   aseyller
#       Creation time:       Fri Apr 21 12:52:54 2023


#       File generated by GOLD software.
#

@<TRIPOS>MOLECULE
EN300-650549_i001|amine_1|mol2|186|dock17
    19    18     1
SMALL
USER_CHARGES


@<TRIPOS>ATOM
      1 C1          32.9952  37.3191  34.9029 C.3            1 <1>                0.0000
      2 C2          32.7884  36.1923  35.9170 C.3            1 <1>                0.0000
      3 O3          31.8033  36.6022  36.9018 O.3            1 <1>                0.0000
      4 C4          31.5277  35.7296  37.8916 C.2            1 <1>                0.0000
      5 O5          32.0942  34.6551  37.9297 O.2            1 <1>                0.0000
      6 C6          30.5671  36.0687  38.8981 C.1            1 <1>                0.0000
      7 C7          29.7796  36.3467  39.7233 C.1            1 <1>                0.0000
      8 C8          28.7923  36.6953  40.7579 C.3            1 <1>                0.0000
      9 N9          29.3022  36.2950  42.0761 N.4            1 <1>                1.0000
     10 H10         32.0509  37.5364  34.4036 H              1 <1>                0.0000
     11 H11         33.3473  38.2123  35.4190 H              1 <1>                0.0000
     12 H12         33.7347  37.0114  34.1636 H              1 <1>                0.0000
     13 H13         32.4362  35.2991  35.4009 H              1 <1>                0.0000
     14 H14         33.7326  35.9749  36.4162 H              1 <1>                0.0000
     15 H15         28.6188  37.7713  40.7468 H              1 <1>                0.0000
     16 H16         27.8561  36.1743  40.5570 H              1 <1>                0.0000
     17 H17         30.1466  35.7550  41.9603 H              1 <1>                0.0000
     18 H18         29.5021  37.1186  42.6236 H              1 <1>                0.0000
     19 H19         28.6080  35.7365  42.5497 H              1 <1>                0.0000
@<TRIPOS>BOND
    1    1    2 1     
    2    1   10 1     
    3    1   11 1     
    4    1   12 1     
    5    2    3 1     
    6    2   13 1     
    7    2   14 1     
    8    3    4 1     
    9    4    5 2     
   10    4    6 1     
   11    6    7 3     
   12    7    8 1     
   13    8    9 1     
   14    8   15 1     
   15    8   16 1     
   16    9   17 1     
   17    9   18 1     
   18    9   19 1     
@<TRIPOS>SUBSTRUCTURE
      1 ****           1
@<TRIPOS>SET
DONOR_HYDROGENS      STATIC     ATOMS    <user>   **** ""
3 17 18 19
ATOM$RED        STATIC     ATOMS    COLORGROUP SYSTEM
3 17 18 19
@<TRIPOS>COMMENT
> <Gold.Version>
2022.2.0

> <Gold.Id.Protein>
1qkm|1qkm_protein|mol2

> <Gold.Protein.RotatedTorsions>
[  496  491  490  487 ] final  -52.61 input  -89.99 | X-H torsion

> <Gold.Protein.ActiveResidues>
 MET295  LEU298  THR299  LEU301  ALA302  GLU305  TRP335  MET336  LEU339  MET340 
 GLY342  LEU343  ARG346  PHE356  ILE373  ILE376  PHE377  LEU380  LYS471  GLY472 
 MET473  HIS475  LEU476  LEU477  ASN478  MET479  VAL484  VAL487 

> <Gold.Protein.RotatedAtoms>
   36.4425   34.7140   41.5919 H   0  0  0  0  0  0  0  0  0  0  0  0  # atno 496  bound_to 491 

> <Gold.Score>
     Score     S(PLP)   S(hbond)     S(cho)   S(metal)  DE(clash)   DE(tors)     intcor
     33.07     -30.07       1.00       0.00       0.00       0.00       0.00       0.00

> <Gold.PLP.Fitness>
33.0701

> <Gold.PLP.PLP>
-30.0714

> <Gold.PLP.part.hbond>
-1.0000

> <Gold.PLP.part.metal>
0.0000

> <Gold.PLP.part.buried>
-3.8790

> <Gold.PLP.part.nonpolar>
-24.9136

> <Gold.PLP.part.repulsive>
0.1265

> <Gold.PLP.ligand.clash>
0.0000

> <Gold.PLP.ligand.torsion>
0.0007

> <Gold.PLP.Chemscore.Hbond>
1.0000

> <Gold.PLP.Chemscore.CHOScore>
0.0000

> <Gold.PLP.Chemscore.Metal>
0.0000

> <Gold.Chemscore.Hbonds>
donor molecule, donor type, donor heavy atom, donor atom, acceptor molecule, acceptor atom, score
      L1  H     9    17       P1   470  1.00

> <Gold.PLP.Chemscore.Internal.Correction>
0.0000

