#       Name:                EN300-650549_i001
#       Creating user name   aseyller
#       Creation time:       Fri Apr 21 12:52:50 2023


#       File generated by GOLD software.
#

@<TRIPOS>MOLECULE
EN300-650549_i001|amine_1|mol2|186|dock12
    19    18     1
SMALL
USER_CHARGES


@<TRIPOS>ATOM
      1 C1          30.2828  38.2366  35.0890 C.3            1 <1>                0.0000
      2 C2          30.9104  37.3177  36.1392 C.3            1 <1>                0.0000
      3 O3          30.0533  37.2645  37.3100 O.3            1 <1>                0.0000
      4 C4          30.4927  36.5389  38.3576 C.2            1 <1>                0.0000
      5 O5          31.5394  35.9268  38.2765 O.2            1 <1>                0.0000
      6 C6          29.7259  36.4891  39.5659 C.1            1 <1>                0.0000
      7 C7          29.0972  36.4482  40.5567 C.1            1 <1>                0.0000
      8 C8          28.3091  36.3971  41.7988 C.3            1 <1>                0.0000
      9 N9          27.0316  35.7196  41.5407 N.4            1 <1>                1.0000
     10 H10         29.3042  37.8492  34.8056 H              1 <1>                0.0000
     11 H11         30.1710  39.2386  35.5032 H              1 <1>                0.0000
     12 H12         30.9262  38.2765  34.2100 H              1 <1>                0.0000
     13 H13         31.0222  36.3157  35.7249 H              1 <1>                0.0000
     14 H14         31.8890  37.7049  36.4225 H              1 <1>                0.0000
     15 H15         28.8645  35.8480  42.5592 H              1 <1>                0.0000
     16 H16         28.1182  37.4112  42.1500 H              1 <1>                0.0000
     17 H17         26.7367  35.2297  42.3720 H              1 <1>                0.0000
     18 H18         26.3336  36.4029  41.2876 H              1 <1>                0.0000
     19 H19         27.1469  35.0608  40.7852 H              1 <1>                0.0000
@<TRIPOS>BOND
    1    1    2 1     
    2    1   10 1     
    3    1   11 1     
    4    1   12 1     
    5    2    3 1     
    6    2   13 1     
    7    2   14 1     
    8    3    4 1     
    9    4    5 2     
   10    4    6 1     
   11    6    7 3     
   12    7    8 1     
   13    8    9 1     
   14    8   15 1     
   15    8   16 1     
   16    9   17 1     
   17    9   18 1     
   18    9   19 1     
@<TRIPOS>SUBSTRUCTURE
      1 ****           1
@<TRIPOS>SET
DONOR_HYDROGENS      STATIC     ATOMS    <user>   **** ""
3 17 18 19
ATOM$RED        STATIC     ATOMS    COLORGROUP SYSTEM
3 17 18 19
@<TRIPOS>COMMENT
> <Gold.Version>
2022.2.0

> <Gold.Id.Protein>
1qkm|1qkm_protein|mol2

> <Gold.Protein.RotatedTorsions>
[  496  491  490  487 ] final  -34.79 input  -89.99 | X-H torsion

> <Gold.Protein.ActiveResidues>
 MET295  LEU298  THR299  LEU301  ALA302  GLU305  TRP335  MET336  LEU339  MET340 
 GLY342  LEU343  ARG346  PHE356  ILE373  ILE376  PHE377  LEU380  LYS471  GLY472 
 MET473  HIS475  LEU476  LEU477  ASN478  MET479  VAL484  VAL487 

> <Gold.Protein.RotatedAtoms>
   36.3364   34.6118   41.8441 H   0  0  0  0  0  0  0  0  0  0  0  0  # atno 496  bound_to 491 

> <Gold.Score>
     Score     S(PLP)   S(hbond)     S(cho)   S(metal)  DE(clash)   DE(tors)     intcor
     34.24     -28.26       2.00       0.00       0.00       0.00       0.01       0.00

> <Gold.PLP.Fitness>
34.2424

> <Gold.PLP.PLP>
-28.2602

> <Gold.PLP.part.hbond>
-1.0000

> <Gold.PLP.part.metal>
0.0000

> <Gold.PLP.part.buried>
-3.9676

> <Gold.PLP.part.nonpolar>
-23.7569

> <Gold.PLP.part.repulsive>
0.0965

> <Gold.PLP.ligand.clash>
0.0000

> <Gold.PLP.ligand.torsion>
0.0089

> <Gold.PLP.Chemscore.Hbond>
2.0000

> <Gold.PLP.Chemscore.CHOScore>
0.0000

> <Gold.PLP.Chemscore.Metal>
0.0000

> <Gold.Chemscore.Hbonds>
donor molecule, donor type, donor heavy atom, donor atom, acceptor molecule, acceptor atom, score
      L1  H     9    17       P1   582  2.00

> <Gold.PLP.Chemscore.Internal.Correction>
0.0000

