#       Name:                EN300-650549_i001
#       Creating user name   aseyller
#       Creation time:       Fri Apr 21 12:52:56 2023


#       File generated by GOLD software.
#

@<TRIPOS>MOLECULE
EN300-650549_i001|amine_1|mol2|186|dock19
    19    18     1
SMALL
USER_CHARGES


@<TRIPOS>ATOM
      1 C1          28.0114  36.0997  38.8958 C.3            1 <1>                0.0000
      2 C2          29.1851  36.8395  39.5409 C.3            1 <1>                0.0000
      3 O3          30.2194  37.0660  38.5472 O.3            1 <1>                0.0000
      4 C4          30.8780  35.9818  38.0914 C.2            1 <1>                0.0000
      5 O5          30.6351  34.8844  38.5536 O.2            1 <1>                0.0000
      6 C6          31.8640  36.1232  37.0626 C.1            1 <1>                0.0000
      7 C7          32.6724  36.2391  36.2192 C.1            1 <1>                0.0000
      8 C8          33.6860  36.3845  35.1618 C.3            1 <1>                0.0000
      9 N9          33.0979  37.0855  34.0126 N.4            1 <1>                1.0000
     10 H10         27.6071  36.7001  38.0809 H              1 <1>                0.0000
     11 H11         28.3560  35.1421  38.5053 H              1 <1>                0.0000
     12 H12         27.2349  35.9296  39.6417 H              1 <1>                0.0000
     13 H13         28.8405  37.7970  39.9314 H              1 <1>                0.0000
     14 H14         29.5893  36.2391  40.3558 H              1 <1>                0.0000
     15 H15         34.5303  36.9581  35.5441 H              1 <1>                0.0000
     16 H16         34.0289  35.3981  34.8490 H              1 <1>                0.0000
     17 H17         32.6980  36.4121  33.3765 H              1 <1>                0.0000
     18 H18         32.3767  37.7133  34.3348 H              1 <1>                0.0000
     19 H19         33.8151  37.6126  33.5373 H              1 <1>                0.0000
@<TRIPOS>BOND
    1    1    2 1     
    2    1   10 1     
    3    1   11 1     
    4    1   12 1     
    5    2    3 1     
    6    2   13 1     
    7    2   14 1     
    8    3    4 1     
    9    4    5 2     
   10    4    6 1     
   11    6    7 3     
   12    7    8 1     
   13    8    9 1     
   14    8   15 1     
   15    8   16 1     
   16    9   17 1     
   17    9   18 1     
   18    9   19 1     
@<TRIPOS>SUBSTRUCTURE
      1 ****           1
@<TRIPOS>SET
DONOR_HYDROGENS      STATIC     ATOMS    <user>   **** ""
3 17 18 19
ATOM$RED        STATIC     ATOMS    COLORGROUP SYSTEM
3 17 18 19
@<TRIPOS>COMMENT
> <Gold.Version>
2022.2.0

> <Gold.Id.Protein>
1qkm|1qkm_protein|mol2

> <Gold.Protein.RotatedTorsions>
[  496  491  490  487 ] final  -86.66 input  -89.99 | X-H torsion

> <Gold.Protein.ActiveResidues>
 MET295  LEU298  THR299  LEU301  ALA302  GLU305  TRP335  MET336  LEU339  MET340 
 GLY342  LEU343  ARG346  PHE356  ILE373  ILE376  PHE377  LEU380  LYS471  GLY472 
 MET473  HIS475  LEU476  LEU477  ASN478  MET479  VAL484  VAL487 

> <Gold.Protein.RotatedAtoms>
   36.7266   34.6738   41.1199 H   0  0  0  0  0  0  0  0  0  0  0  0  # atno 496  bound_to 491 

> <Gold.Score>
     Score     S(PLP)   S(hbond)     S(cho)   S(metal)  DE(clash)   DE(tors)     intcor
     32.56     -26.79       1.94       0.00       0.00       0.00       0.03       0.00

> <Gold.PLP.Fitness>
32.5595

> <Gold.PLP.PLP>
-26.7910

> <Gold.PLP.part.hbond>
-1.9545

> <Gold.PLP.part.metal>
0.0000

> <Gold.PLP.part.buried>
-4.0008

> <Gold.PLP.part.nonpolar>
-21.8217

> <Gold.PLP.part.repulsive>
0.1859

> <Gold.PLP.ligand.clash>
0.0000

> <Gold.PLP.ligand.torsion>
0.0277

> <Gold.PLP.Chemscore.Hbond>
1.9413

> <Gold.PLP.Chemscore.CHOScore>
0.0000

> <Gold.PLP.Chemscore.Metal>
0.0000

> <Gold.Chemscore.Hbonds>
donor molecule, donor type, donor heavy atom, donor atom, acceptor molecule, acceptor atom, score
      L1  H     9    17       P1  3187  0.99
      L1  H     9    19       P1  3229  0.95

> <Gold.PLP.Chemscore.Internal.Correction>
0.0000

