#       Name:                EN300-650549_i001
#       Creating user name   aseyller
#       Creation time:       Fri Apr 21 12:52:44 2023


#       File generated by GOLD software.
#

@<TRIPOS>MOLECULE
EN300-650549_i001|amine_1|mol2|186|dock4
    19    18     1
SMALL
USER_CHARGES


@<TRIPOS>ATOM
      1 C1          31.8043  33.4003  38.3373 C.3            1 <1>                0.0000
      2 C2          31.4785  34.8722  38.5989 C.3            1 <1>                0.0000
      3 O3          30.1548  34.9780  39.1863 O.3            1 <1>                0.0000
      4 C4          29.5959  36.2042  39.2186 C.2            1 <1>                0.0000
      5 O5          30.1822  37.1522  38.7345 O.2            1 <1>                0.0000
      6 C6          28.3112  36.3897  39.8235 C.1            1 <1>                0.0000
      7 C7          27.2580  36.5418  40.3195 C.1            1 <1>                0.0000
      8 C8          25.9376  36.7324  40.9414 C.3            1 <1>                0.0000
      9 N9          26.1005  36.9191  42.3893 N.4            1 <1>                1.0000
     10 H10         31.7790  32.8500  39.2778 H              1 <1>                0.0000
     11 H11         31.0679  32.9816  37.6513 H              1 <1>                0.0000
     12 H12         32.7980  33.3209  37.8963 H              1 <1>                0.0000
     13 H13         32.2148  35.2909  39.2848 H              1 <1>                0.0000
     14 H14         31.5038  35.4227  37.6585 H              1 <1>                0.0000
     15 H15         25.4579  37.6126  40.5133 H              1 <1>                0.0000
     16 H16         25.3183  35.8548  40.7556 H              1 <1>                0.0000
     17 H17         25.2791  37.3686  42.7650 H              1 <1>                0.0000
     18 H18         26.2248  36.0211  42.8323 H              1 <1>                0.0000
     19 H19         26.9096  37.4957  42.5651 H              1 <1>                0.0000
@<TRIPOS>BOND
    1    1    2 1     
    2    1   10 1     
    3    1   11 1     
    4    1   12 1     
    5    2    3 1     
    6    2   13 1     
    7    2   14 1     
    8    3    4 1     
    9    4    5 2     
   10    4    6 1     
   11    6    7 3     
   12    7    8 1     
   13    8    9 1     
   14    8   15 1     
   15    8   16 1     
   16    9   17 1     
   17    9   18 1     
   18    9   19 1     
@<TRIPOS>SUBSTRUCTURE
      1 ****           1
@<TRIPOS>SET
DONOR_HYDROGENS      STATIC     ATOMS    <user>   **** ""
3 17 18 19
ATOM$RED        STATIC     ATOMS    COLORGROUP SYSTEM
3 17 18 19
@<TRIPOS>COMMENT
> <Gold.Version>
2022.2.0

> <Gold.Id.Protein>
1qkm|1qkm_protein|mol2

> <Gold.Protein.RotatedTorsions>
[  496  491  490  487 ] final  117.15 input  -89.99 | X-H torsion

> <Gold.Protein.ActiveResidues>
 MET295  LEU298  THR299  LEU301  ALA302  GLU305  TRP335  MET336  LEU339  MET340 
 GLY342  LEU343  ARG346  PHE356  ILE373  ILE376  PHE377  LEU380  LYS471  GLY472 
 MET473  HIS475  LEU476  LEU477  ASN478  MET479  VAL484  VAL487 

> <Gold.Protein.RotatedAtoms>
   37.0582   32.9403   41.6599 H   0  0  0  0  0  0  0  0  0  0  0  0  # atno 496  bound_to 491 

> <Gold.Score>
     Score     S(PLP)   S(hbond)     S(cho)   S(metal)  DE(clash)   DE(tors)     intcor
     36.33     -30.43       2.00       0.00       0.00       0.00       0.05       0.00

> <Gold.PLP.Fitness>
36.3333

> <Gold.PLP.PLP>
-30.4348

> <Gold.PLP.part.hbond>
-1.0000

> <Gold.PLP.part.metal>
0.0000

> <Gold.PLP.part.buried>
-4.5114

> <Gold.PLP.part.nonpolar>
-25.9365

> <Gold.PLP.part.repulsive>
0.4186

> <Gold.PLP.ligand.clash>
0.0000

> <Gold.PLP.ligand.torsion>
0.0507

> <Gold.PLP.Chemscore.Hbond>
2.0000

> <Gold.PLP.Chemscore.CHOScore>
0.0000

> <Gold.PLP.Chemscore.Metal>
0.0000

> <Gold.Chemscore.Hbonds>
donor molecule, donor type, donor heavy atom, donor atom, acceptor molecule, acceptor atom, score
      L1  H     9    18       P1   582  2.00

> <Gold.PLP.Chemscore.Internal.Correction>
0.0000

