#       Name:                EN300-650549_i001
#       Creating user name   aseyller
#       Creation time:       Fri Apr 21 12:52:41 2023


#       File generated by GOLD software.
#

@<TRIPOS>MOLECULE
EN300-650549_i001
    19    18     1
SMALL
USER_CHARGES


@<TRIPOS>ATOM
      1 C1           4.0504   0.7628   0.0002 C.3            1 <1>                0.0000
      2 C2           3.0211  -0.3693  -0.0001 C.3            1 <1>                0.0000
      3 O3           1.6826   0.1935   0.0000 O.3            1 <1>                0.0000
      4 C4           0.6530  -0.6765  -0.0002 C.2            1 <1>                0.0000
      5 O5           0.8681  -1.8726  -0.0006 O.2            1 <1>                0.0000
      6 C6          -0.6943  -0.1913  -0.0001 C.1            1 <1>                0.0000
      7 C7          -1.7989   0.2065   0.0000 C.1            1 <1>                0.0000
      8 C8          -3.1838   0.7052   0.0002 C.3            1 <1>                0.0000
      9 N9          -4.1138  -0.4319  -0.0002 N.4            1 <1>                1.0000
     10 H10          3.9146   1.3775  -0.8896 H              1 <1>                0.0000
     11 H11          3.9146   1.3770   0.8904 H              1 <1>                0.0000
     12 H12          5.0552   0.3403   0.0001 H              1 <1>                0.0000
     13 H13          3.1569  -0.9835  -0.8903 H              1 <1>                0.0000
     14 H14          3.1569  -0.9841   0.8896 H              1 <1>                0.0000
     15 H15         -3.3516   1.3115   0.8903 H              1 <1>                0.0000
     16 H16         -3.3516   1.3121  -0.8896 H              1 <1>                0.0000
     17 H17         -5.0631  -0.0900  -0.0001 H              1 <1>                0.0000
     18 H18         -3.9585  -0.9931  -0.8242 H              1 <1>                0.0000
     19 H19         -3.9585  -0.9936   0.8235 H              1 <1>                0.0000
@<TRIPOS>BOND
    1    1    2 1     
    2    1   10 1     
    3    1   11 1     
    4    1   12 1     
    5    2    3 1     
    6    2   13 1     
    7    2   14 1     
    8    3    4 1     
    9    4    5 2     
   10    4    6 1     
   11    6    7 3     
   12    7    8 1     
   13    8    9 1     
   14    8   15 1     
   15    8   16 1     
   16    9   17 1     
   17    9   18 1     
   18    9   19 1     
@<TRIPOS>SUBSTRUCTURE
      1 ****           1
@<TRIPOS>SET
DONOR_HYDROGENS      STATIC     ATOMS    <user>   **** ""
3 17 18 19
ATOM$RED        STATIC     ATOMS    COLORGROUP SYSTEM
3 17 18 19
