#       Name:                EN300-650549_i001
#       Creating user name   aseyller
#       Creation time:       Fri Apr 21 12:52:45 2023


#       File generated by GOLD software.
#

@<TRIPOS>MOLECULE
EN300-650549_i001|amine_1|mol2|186|dock5
    19    18     1
SMALL
USER_CHARGES


@<TRIPOS>ATOM
      1 C1          33.3442  35.5166  36.7390 C.3            1 <1>                0.0000
      2 C2          32.1593  36.4759  36.8683 C.3            1 <1>                0.0000
      3 O3          31.4821  36.2412  38.1311 O.3            1 <1>                0.0000
      4 C4          30.3458  36.9314  38.3536 C.2            1 <1>                0.0000
      5 O5          29.9465  37.7274  37.5267 O.2            1 <1>                0.0000
      6 C6          29.6093  36.7267  39.5645 C.1            1 <1>                0.0000
      7 C7          29.0054  36.5589  40.5573 C.1            1 <1>                0.0000
      8 C8          28.2484  36.3486  41.8020 C.3            1 <1>                0.0000
      9 N9          26.8162  36.2440  41.4924 N.4            1 <1>                1.0000
     10 H10         34.0397  35.6852  37.5611 H              1 <1>                0.0000
     11 H11         32.9843  34.4882  36.7726 H              1 <1>                0.0000
     12 H12         33.8526  35.6928  35.7910 H              1 <1>                0.0000
     13 H13         32.5192  37.5043  36.8347 H              1 <1>                0.0000
     14 H14         31.4639  36.3074  36.0462 H              1 <1>                0.0000
     15 H15         28.5847  35.4290  42.2809 H              1 <1>                0.0000
     16 H16         28.4142  37.1901  42.4747 H              1 <1>                0.0000
     17 H17         26.6953  35.7427  40.6251 H              1 <1>                0.0000
     18 H18         26.3468  35.7485  42.2355 H              1 <1>                0.0000
     19 H19         26.4229  37.1689  41.4040 H              1 <1>                0.0000
@<TRIPOS>BOND
    1    1    2 1     
    2    1   10 1     
    3    1   11 1     
    4    1   12 1     
    5    2    3 1     
    6    2   13 1     
    7    2   14 1     
    8    3    4 1     
    9    4    5 2     
   10    4    6 1     
   11    6    7 3     
   12    7    8 1     
   13    8    9 1     
   14    8   15 1     
   15    8   16 1     
   16    9   17 1     
   17    9   18 1     
   18    9   19 1     
@<TRIPOS>SUBSTRUCTURE
      1 ****           1
@<TRIPOS>SET
DONOR_HYDROGENS      STATIC     ATOMS    <user>   **** ""
3 17 18 19
ATOM$RED        STATIC     ATOMS    COLORGROUP SYSTEM
3 17 18 19
@<TRIPOS>COMMENT
> <Gold.Version>
2022.2.0

> <Gold.Id.Protein>
1qkm|1qkm_protein|mol2

> <Gold.Protein.RotatedTorsions>
[  496  491  490  487 ] final   84.08 input  -89.99 | X-H torsion

> <Gold.Protein.ActiveResidues>
 MET295  LEU298  THR299  LEU301  ALA302  GLU305  TRP335  MET336  LEU339  MET340 
 GLY342  LEU343  ARG346  PHE356  ILE373  ILE376  PHE377  LEU380  LYS471  GLY472 
 MET473  HIS475  LEU476  LEU477  ASN478  MET479  VAL484  VAL487 

> <Gold.Protein.RotatedAtoms>
   36.7655   33.0651   42.0923 H   0  0  0  0  0  0  0  0  0  0  0  0  # atno 496  bound_to 491 

> <Gold.Score>
     Score     S(PLP)   S(hbond)     S(cho)   S(metal)  DE(clash)   DE(tors)     intcor
     34.94     -28.95       2.00       0.00       0.00       0.00       0.01       0.00

> <Gold.PLP.Fitness>
34.9358

> <Gold.PLP.PLP>
-28.9547

> <Gold.PLP.part.hbond>
-1.0000

> <Gold.PLP.part.metal>
0.0000

> <Gold.PLP.part.buried>
-3.8216

> <Gold.PLP.part.nonpolar>
-24.6093

> <Gold.PLP.part.repulsive>
0.0801

> <Gold.PLP.ligand.clash>
0.0000

> <Gold.PLP.ligand.torsion>
0.0095

> <Gold.PLP.Chemscore.Hbond>
2.0000

> <Gold.PLP.Chemscore.CHOScore>
0.0000

> <Gold.PLP.Chemscore.Metal>
0.0000

> <Gold.Chemscore.Hbonds>
donor molecule, donor type, donor heavy atom, donor atom, acceptor molecule, acceptor atom, score
      L1  H     9    18       P1   582  2.00

> <Gold.PLP.Chemscore.Internal.Correction>
0.0000

