#       Name:                EN300-650549_i001
#       Creating user name   aseyller
#       Creation time:       Fri Apr 21 12:52:53 2023


#       File generated by GOLD software.
#

@<TRIPOS>MOLECULE
EN300-650549_i001|amine_1|mol2|186|dock16
    19    18     1
SMALL
USER_CHARGES


@<TRIPOS>ATOM
      1 C1          32.5107  35.6488  36.2519 C.3            1 <1>                0.0000
      2 C2          32.6594  36.1711  37.6824 C.3            1 <1>                0.0000
      3 O3          31.3441  36.3971  38.2544 O.3            1 <1>                0.0000
      4 C4          30.7259  35.3339  38.8061 C.2            1 <1>                0.0000
      5 O5          31.2482  34.2374  38.7631 O.2            1 <1>                0.0000
      6 C6          29.4536  35.4965  39.4429 C.1            1 <1>                0.0000
      7 C7          28.4105  35.6298  39.9649 C.1            1 <1>                0.0000
      8 C8          27.1027  35.7968  40.6194 C.3            1 <1>                0.0000
      9 N9          27.2991  36.3035  41.9842 N.4            1 <1>                1.0000
     10 H10         31.9535  34.7120  36.2633 H              1 <1>                0.0000
     11 H11         31.9745  36.3832  35.6510 H              1 <1>                0.0000
     12 H12         33.4981  35.4791  35.8226 H              1 <1>                0.0000
     13 H13         33.1956  35.4366  38.2834 H              1 <1>                0.0000
     14 H14         33.2167  37.1078  37.6711 H              1 <1>                0.0000
     15 H15         26.5001  36.5060  40.0518 H              1 <1>                0.0000
     16 H16         26.5907  34.8353  40.6591 H              1 <1>                0.0000
     17 H17         26.7475  37.1380  42.1158 H              1 <1>                0.0000
     18 H18         27.0104  35.6011  42.6485 H              1 <1>                0.0000
     19 H19         28.2746  36.5193  42.1256 H              1 <1>                0.0000
@<TRIPOS>BOND
    1    1    2 1     
    2    1   10 1     
    3    1   11 1     
    4    1   12 1     
    5    2    3 1     
    6    2   13 1     
    7    2   14 1     
    8    3    4 1     
    9    4    5 2     
   10    4    6 1     
   11    6    7 3     
   12    7    8 1     
   13    8    9 1     
   14    8   15 1     
   15    8   16 1     
   16    9   17 1     
   17    9   18 1     
   18    9   19 1     
@<TRIPOS>SUBSTRUCTURE
      1 ****           1
@<TRIPOS>SET
DONOR_HYDROGENS      STATIC     ATOMS    <user>   **** ""
3 17 18 19
ATOM$RED        STATIC     ATOMS    COLORGROUP SYSTEM
3 17 18 19
@<TRIPOS>COMMENT
> <Gold.Version>
2022.2.0

> <Gold.Id.Protein>
1qkm|1qkm_protein|mol2

> <Gold.Protein.RotatedTorsions>
[  496  491  490  487 ] final -154.18 input  -89.99 | X-H torsion

> <Gold.Protein.ActiveResidues>
 MET295  LEU298  THR299  LEU301  ALA302  GLU305  TRP335  MET336  LEU339  MET340 
 GLY342  LEU343  ARG346  PHE356  ILE373  ILE376  PHE377  LEU380  LYS471  GLY472 
 MET473  HIS475  LEU476  LEU477  ASN478  MET479  VAL484  VAL487 

> <Gold.Protein.RotatedAtoms>
   37.2514   33.8544   40.7300 H   0  0  0  0  0  0  0  0  0  0  0  0  # atno 496  bound_to 491 

> <Gold.Score>
     Score     S(PLP)   S(hbond)     S(cho)   S(metal)  DE(clash)   DE(tors)     intcor
     33.23     -27.51       2.00       0.00       0.00       0.00       0.14       0.00

> <Gold.PLP.Fitness>
33.2273

> <Gold.PLP.PLP>
-27.5100

> <Gold.PLP.part.hbond>
-1.0000

> <Gold.PLP.part.metal>
0.0000

> <Gold.PLP.part.buried>
-4.2773

> <Gold.PLP.part.nonpolar>
-22.7876

> <Gold.PLP.part.repulsive>
0.1787

> <Gold.PLP.ligand.clash>
0.0000

> <Gold.PLP.ligand.torsion>
0.1414

> <Gold.PLP.Chemscore.Hbond>
2.0000

> <Gold.PLP.Chemscore.CHOScore>
0.0000

> <Gold.PLP.Chemscore.Metal>
0.0000

> <Gold.Chemscore.Hbonds>
donor molecule, donor type, donor heavy atom, donor atom, acceptor molecule, acceptor atom, score
      L1  H     9    18       P1   582  2.00

> <Gold.PLP.Chemscore.Internal.Correction>
0.0000

