#       Name:                EN300-650549_i001
#       Creating user name   aseyller
#       Creation time:       Fri Apr 21 12:52:55 2023


#       File generated by GOLD software.
#

@<TRIPOS>MOLECULE
EN300-650549_i001|amine_1|mol2|186|dock18
    19    18     1
SMALL
USER_CHARGES


@<TRIPOS>ATOM
      1 C1          30.2746  40.2093  36.3413 C.3            1 <1>                0.0000
      2 C2          30.3052  38.7738  36.8702 C.3            1 <1>                0.0000
      3 O3          29.0789  38.4998  37.5978 O.3            1 <1>                0.0000
      4 C4          28.9699  37.2886  38.1791 C.2            1 <1>                0.0000
      5 O5          29.8164  36.4400  37.9787 O.2            1 <1>                0.0000
      6 C6          27.8565  37.0017  39.0328 C.1            1 <1>                0.0000
      7 C7          26.9437  36.7666  39.7327 C.1            1 <1>                0.0000
      8 C8          25.7993  36.4717  40.6103 C.3            1 <1>                0.0000
      9 N9          26.1848  36.6965  42.0099 N.4            1 <1>                1.0000
     10 H10         29.4212  40.3327  35.6747 H              1 <1>                0.0000
     11 H11         30.1857  40.9027  37.1776 H              1 <1>                0.0000
     12 H12         31.1952  40.4149  35.7951 H              1 <1>                0.0000
     13 H13         30.3940  38.0804  36.0339 H              1 <1>                0.0000
     14 H14         31.1586  38.6503  37.5368 H              1 <1>                0.0000
     15 H15         24.9663  37.1260  40.3533 H              1 <1>                0.0000
     16 H16         25.4988  35.4322  40.4787 H              1 <1>                0.0000
     17 H17         27.1193  37.0753  42.0447 H              1 <1>                0.0000
     18 H18         25.5419  37.3474  42.4354 H              1 <1>                0.0000
     19 H19         26.1578  35.8211  42.5108 H              1 <1>                0.0000
@<TRIPOS>BOND
    1    1    2 1     
    2    1   10 1     
    3    1   11 1     
    4    1   12 1     
    5    2    3 1     
    6    2   13 1     
    7    2   14 1     
    8    3    4 1     
    9    4    5 2     
   10    4    6 1     
   11    6    7 3     
   12    7    8 1     
   13    8    9 1     
   14    8   15 1     
   15    8   16 1     
   16    9   17 1     
   17    9   18 1     
   18    9   19 1     
@<TRIPOS>SUBSTRUCTURE
      1 ****           1
@<TRIPOS>SET
DONOR_HYDROGENS      STATIC     ATOMS    <user>   **** ""
3 17 18 19
ATOM$RED        STATIC     ATOMS    COLORGROUP SYSTEM
3 17 18 19
@<TRIPOS>COMMENT
> <Gold.Version>
2022.2.0

> <Gold.Id.Protein>
1qkm|1qkm_protein|mol2

> <Gold.Protein.RotatedTorsions>
[  496  491  490  487 ] final   18.03 input  -89.99 | X-H torsion

> <Gold.Protein.ActiveResidues>
 MET295  LEU298  THR299  LEU301  ALA302  GLU305  TRP335  MET336  LEU339  MET340 
 GLY342  LEU343  ARG346  PHE356  ILE373  ILE376  PHE377  LEU380  LYS471  GLY472 
 MET473  HIS475  LEU476  LEU477  ASN478  MET479  VAL484  VAL487 

> <Gold.Protein.RotatedAtoms>
   36.2954   33.9426   42.3487 H   0  0  0  0  0  0  0  0  0  0  0  0  # atno 496  bound_to 491 

> <Gold.Score>
     Score     S(PLP)   S(hbond)     S(cho)   S(metal)  DE(clash)   DE(tors)     intcor
     33.02     -27.12       2.00       0.00       0.00       0.00       0.05       0.00

> <Gold.PLP.Fitness>
33.0247

> <Gold.PLP.PLP>
-27.1196

> <Gold.PLP.part.hbond>
-1.0000

> <Gold.PLP.part.metal>
0.0000

> <Gold.PLP.part.buried>
-2.9067

> <Gold.PLP.part.nonpolar>
-23.1416

> <Gold.PLP.part.repulsive>
0.0951

> <Gold.PLP.ligand.clash>
0.0000

> <Gold.PLP.ligand.torsion>
0.0475

> <Gold.PLP.Chemscore.Hbond>
2.0000

> <Gold.PLP.Chemscore.CHOScore>
0.0000

> <Gold.PLP.Chemscore.Metal>
0.0000

> <Gold.Chemscore.Hbonds>
donor molecule, donor type, donor heavy atom, donor atom, acceptor molecule, acceptor atom, score
      L1  H     9    19       P1   582  2.00

> <Gold.PLP.Chemscore.Internal.Correction>
0.0000

