#       Name:                EN300-650549_i001
#       Creating user name   aseyller
#       Creation time:       Fri Apr 21 12:52:42 2023


#       File generated by GOLD software.
#

@<TRIPOS>MOLECULE
EN300-650549_i001|amine_1|mol2|186|dock1
    19    18     1
SMALL
USER_CHARGES


@<TRIPOS>ATOM
      1 C1          32.4397  35.8038  36.1151 C.3            1 <1>                0.0000
      2 C2          32.8706  35.8090  37.5833 C.3            1 <1>                0.0000
      3 O3          31.7279  35.5001  38.4242 O.3            1 <1>                0.0000
      4 C4          30.7343  36.4101  38.4648 C.2            1 <1>                0.0000
      5 O5          30.8353  37.4484  37.8415 O.2            1 <1>                0.0000
      6 C6          29.5597  36.1533  39.2427 C.1            1 <1>                0.0000
      7 C7          28.5967  35.9427  39.8804 C.1            1 <1>                0.0000
      8 C8          27.3893  35.6789  40.6800 C.3            1 <1>                0.0000
      9 N9          27.6954  35.8637  42.1048 N.4            1 <1>                1.0000
     10 H10         32.0518  34.8193  35.8539 H              1 <1>                0.0000
     11 H11         31.6628  36.5529  35.9619 H              1 <1>                0.0000
     12 H12         33.2975  36.0357  35.4839 H              1 <1>                0.0000
     13 H13         33.6475  35.0600  37.7365 H              1 <1>                0.0000
     14 H14         33.2586  36.7935  37.8446 H              1 <1>                0.0000
     15 H15         26.6000  36.3704  40.3853 H              1 <1>                0.0000
     16 H16         27.0573  34.6547  40.5095 H              1 <1>                0.0000
     17 H17         27.6152  36.8411  42.3420 H              1 <1>                0.0000
     18 H18         27.0455  35.3282  42.6606 H              1 <1>                0.0000
     19 H19         28.6359  35.5486  42.2903 H              1 <1>                0.0000
@<TRIPOS>BOND
    1    1    2 1     
    2    1   10 1     
    3    1   11 1     
    4    1   12 1     
    5    2    3 1     
    6    2   13 1     
    7    2   14 1     
    8    3    4 1     
    9    4    5 2     
   10    4    6 1     
   11    6    7 3     
   12    7    8 1     
   13    8    9 1     
   14    8   15 1     
   15    8   16 1     
   16    9   17 1     
   17    9   18 1     
   18    9   19 1     
@<TRIPOS>SUBSTRUCTURE
      1 ****           1
@<TRIPOS>SET
DONOR_HYDROGENS      STATIC     ATOMS    <user>   **** ""
3 17 18 19
ATOM$RED        STATIC     ATOMS    COLORGROUP SYSTEM
3 17 18 19
@<TRIPOS>COMMENT
> <Gold.Version>
2022.2.0

> <Gold.Id.Protein>
1qkm|1qkm_protein|mol2

> <Gold.Protein.RotatedTorsions>
[  496  491  490  487 ] final   93.63 input  -89.99 | X-H torsion

> <Gold.Protein.ActiveResidues>
 MET295  LEU298  THR299  LEU301  ALA302  GLU305  TRP335  MET336  LEU339  MET340 
 GLY342  LEU343  ARG346  PHE356  ILE373  ILE376  PHE377  LEU380  LYS471  GLY472 
 MET473  HIS475  LEU476  LEU477  ASN478  MET479  VAL484  VAL487 

> <Gold.Protein.RotatedAtoms>
   36.8537   32.9998   41.9799 H   0  0  0  0  0  0  0  0  0  0  0  0  # atno 496  bound_to 491 

> <Gold.Score>
     Score     S(PLP)   S(hbond)     S(cho)   S(metal)  DE(clash)   DE(tors)     intcor
     33.96     -27.99       2.00       0.00       0.00       0.00       0.02       0.00

> <Gold.PLP.Fitness>
33.9599

> <Gold.PLP.PLP>
-27.9914

> <Gold.PLP.part.hbond>
-1.0000

> <Gold.PLP.part.metal>
0.0000

> <Gold.PLP.part.buried>
-4.1771

> <Gold.PLP.part.nonpolar>
-23.3720

> <Gold.PLP.part.repulsive>
0.1283

> <Gold.PLP.ligand.clash>
0.0000

> <Gold.PLP.ligand.torsion>
0.0158

> <Gold.PLP.Chemscore.Hbond>
2.0000

> <Gold.PLP.Chemscore.CHOScore>
0.0000

> <Gold.PLP.Chemscore.Metal>
0.0000

> <Gold.Chemscore.Hbonds>
donor molecule, donor type, donor heavy atom, donor atom, acceptor molecule, acceptor atom, score
      L1  H     9    18       P1   582  2.00

> <Gold.PLP.Chemscore.Internal.Correction>
0.0000

