#       Name:                EN300-650549_i001
#       Creating user name   aseyller
#       Creation time:       Fri Apr 21 12:52:43 2023


#       File generated by GOLD software.
#

@<TRIPOS>MOLECULE
EN300-650549_i001|amine_1|mol2|186|dock3
    19    18     1
SMALL
USER_CHARGES


@<TRIPOS>ATOM
      1 C1          30.2980  40.3003  36.5025 C.3            1 <1>                0.0000
      2 C2          30.0351  38.7990  36.3688 C.3            1 <1>                0.0000
      3 O3          29.3879  38.3118  37.5738 O.3            1 <1>                0.0000
      4 C4          30.0552  37.3906  38.2971 C.2            1 <1>                0.0000
      5 O5          31.1209  36.9619  37.9005 O.2            1 <1>                0.0000
      6 C6          29.5081  36.9170  39.5329 C.1            1 <1>                0.0000
      7 C7          29.0596  36.5288  40.5461 C.1            1 <1>                0.0000
      8 C8          28.4973  36.0420  41.8163 C.3            1 <1>                0.0000
      9 N9          27.0590  35.7929  41.6516 N.4            1 <1>                1.0000
     10 H10         29.3524  40.8236  36.6439 H              1 <1>                0.0000
     11 H11         30.9452  40.4808  37.3608 H              1 <1>                0.0000
     12 H12         30.7839  40.6661  35.5979 H              1 <1>                0.0000
     13 H13         29.3880  38.6185  35.5105 H              1 <1>                0.0000
     14 H14         30.9807  38.2757  36.2272 H              1 <1>                0.0000
     15 H15         28.9958  35.1162  42.1034 H              1 <1>                0.0000
     16 H16         28.6495  36.7923  42.5923 H              1 <1>                0.0000
     17 H17         26.7581  35.1027  42.3232 H              1 <1>                0.0000
     18 H18         26.5498  36.6513  41.8002 H              1 <1>                0.0000
     19 H19         26.8812  35.4537  40.7181 H              1 <1>                0.0000
@<TRIPOS>BOND
    1    1    2 1     
    2    1   10 1     
    3    1   11 1     
    4    1   12 1     
    5    2    3 1     
    6    2   13 1     
    7    2   14 1     
    8    3    4 1     
    9    4    5 2     
   10    4    6 1     
   11    6    7 3     
   12    7    8 1     
   13    8    9 1     
   14    8   15 1     
   15    8   16 1     
   16    9   17 1     
   17    9   18 1     
   18    9   19 1     
@<TRIPOS>SUBSTRUCTURE
      1 ****           1
@<TRIPOS>SET
DONOR_HYDROGENS      STATIC     ATOMS    <user>   **** ""
3 17 18 19
ATOM$RED        STATIC     ATOMS    COLORGROUP SYSTEM
3 17 18 19
@<TRIPOS>COMMENT
> <Gold.Version>
2022.2.0

> <Gold.Id.Protein>
1qkm|1qkm_protein|mol2

> <Gold.Protein.RotatedTorsions>
[  496  491  490  487 ] final  -20.77 input  -89.99 | X-H torsion

> <Gold.Protein.ActiveResidues>
 MET295  LEU298  THR299  LEU301  ALA302  GLU305  TRP335  MET336  LEU339  MET340 
 GLY342  LEU343  ARG346  PHE356  ILE373  ILE376  PHE377  LEU380  LYS471  GLY472 
 MET473  HIS475  LEU476  LEU477  ASN478  MET479  VAL484  VAL487 

> <Gold.Protein.RotatedAtoms>
   36.2829   34.4785   42.0240 H   0  0  0  0  0  0  0  0  0  0  0  0  # atno 496  bound_to 491 

> <Gold.Score>
     Score     S(PLP)   S(hbond)     S(cho)   S(metal)  DE(clash)   DE(tors)     intcor
     35.30     -30.07       2.00       0.00       0.00       0.00       0.38       0.00

> <Gold.PLP.Fitness>
35.2999

> <Gold.PLP.PLP>
-30.0673

> <Gold.PLP.part.hbond>
-1.0000

> <Gold.PLP.part.metal>
0.0000

> <Gold.PLP.part.buried>
-3.5588

> <Gold.PLP.part.nonpolar>
-25.8703

> <Gold.PLP.part.repulsive>
0.0608

> <Gold.PLP.ligand.clash>
0.0000

> <Gold.PLP.ligand.torsion>
0.3837

> <Gold.PLP.Chemscore.Hbond>
2.0000

> <Gold.PLP.Chemscore.CHOScore>
0.0000

> <Gold.PLP.Chemscore.Metal>
0.0000

> <Gold.Chemscore.Hbonds>
donor molecule, donor type, donor heavy atom, donor atom, acceptor molecule, acceptor atom, score
      L1  H     9    17       P1   582  2.00

> <Gold.PLP.Chemscore.Internal.Correction>
0.0000

