#       Name:                EN300-650549_i001
#       Creating user name   aseyller
#       Creation time:       Fri Apr 21 12:52:45 2023


#       File generated by GOLD software.
#

@<TRIPOS>MOLECULE
EN300-650549_i001|amine_1|mol2|186|dock6
    19    18     1
SMALL
USER_CHARGES


@<TRIPOS>ATOM
      1 C1          32.6450  36.5294  35.3979 C.3            1 <1>                0.0000
      2 C2          32.4806  35.5671  36.5761 C.3            1 <1>                0.0000
      3 O3          31.4430  36.0613  37.4635 O.3            1 <1>                0.0000
      4 C4          31.0296  35.2326  38.4429 C.2            1 <1>                0.0000
      5 O5          31.4698  34.1017  38.5082 O.2            1 <1>                0.0000
      6 C6          30.0715  35.6847  39.4064 C.1            1 <1>                0.0000
      7 C7          29.2860  36.0553  40.1963 C.1            1 <1>                0.0000
      8 C8          28.3012  36.5199  41.1868 C.3            1 <1>                0.0000
      9 N9          27.2485  35.5074  41.3430 N.4            1 <1>                1.0000
     10 H10         31.7039  36.6003  34.8526 H              1 <1>                0.0000
     11 H11         32.9244  37.5150  35.7702 H              1 <1>                0.0000
     12 H12         33.4239  36.1584  34.7317 H              1 <1>                0.0000
     13 H13         32.2011  34.5815  36.2038 H              1 <1>                0.0000
     14 H14         33.4216  35.4961  37.1213 H              1 <1>                0.0000
     15 H15         28.7966  36.6797  42.1444 H              1 <1>                0.0000
     16 H16         27.8576  37.4558  40.8467 H              1 <1>                0.0000
     17 H17         27.1083  35.3164  42.3237 H              1 <1>                0.0000
     18 H18         26.3891  35.8509  40.9410 H              1 <1>                0.0000
     19 H19         27.5250  34.6593  40.8713 H              1 <1>                0.0000
@<TRIPOS>BOND
    1    1    2 1     
    2    1   10 1     
    3    1   11 1     
    4    1   12 1     
    5    2    3 1     
    6    2   13 1     
    7    2   14 1     
    8    3    4 1     
    9    4    5 2     
   10    4    6 1     
   11    6    7 3     
   12    7    8 1     
   13    8    9 1     
   14    8   15 1     
   15    8   16 1     
   16    9   17 1     
   17    9   18 1     
   18    9   19 1     
@<TRIPOS>SUBSTRUCTURE
      1 ****           1
@<TRIPOS>SET
DONOR_HYDROGENS      STATIC     ATOMS    <user>   **** ""
3 17 18 19
ATOM$RED        STATIC     ATOMS    COLORGROUP SYSTEM
3 17 18 19
@<TRIPOS>COMMENT
> <Gold.Version>
2022.2.0

> <Gold.Id.Protein>
1qkm|1qkm_protein|mol2

> <Gold.Protein.RotatedTorsions>
[  496  491  490  487 ] final -125.08 input  -89.99 | X-H torsion

> <Gold.Protein.ActiveResidues>
 MET295  LEU298  THR299  LEU301  ALA302  GLU305  TRP335  MET336  LEU339  MET340 
 GLY342  LEU343  ARG346  PHE356  ILE373  ILE376  PHE377  LEU380  LYS471  GLY472 
 MET473  HIS475  LEU476  LEU477  ASN478  MET479  VAL484  VAL487 

> <Gold.Protein.RotatedAtoms>
   37.0671   34.2891   40.7718 H   0  0  0  0  0  0  0  0  0  0  0  0  # atno 496  bound_to 491 

> <Gold.Score>
     Score     S(PLP)   S(hbond)     S(cho)   S(metal)  DE(clash)   DE(tors)     intcor
     34.75     -28.83       2.00       0.00       0.00       0.00       0.04       0.00

> <Gold.PLP.Fitness>
34.7481

> <Gold.PLP.PLP>
-28.8272

> <Gold.PLP.part.hbond>
-1.0000

> <Gold.PLP.part.metal>
0.0000

> <Gold.PLP.part.buried>
-3.7248

> <Gold.PLP.part.nonpolar>
-24.4193

> <Gold.PLP.part.repulsive>
0.1149

> <Gold.PLP.ligand.clash>
0.0000

> <Gold.PLP.ligand.torsion>
0.0396

> <Gold.PLP.Chemscore.Hbond>
2.0000

> <Gold.PLP.Chemscore.CHOScore>
0.0000

> <Gold.PLP.Chemscore.Metal>
0.0000

> <Gold.Chemscore.Hbonds>
donor molecule, donor type, donor heavy atom, donor atom, acceptor molecule, acceptor atom, score
      L1  H     9    17       P1   582  2.00

> <Gold.PLP.Chemscore.Internal.Correction>
0.0000

