#       Name:                EN300-650549_i001
#       Creating user name   aseyller
#       Creation time:       Fri Apr 21 12:52:48 2023


#       File generated by GOLD software.
#

@<TRIPOS>MOLECULE
EN300-650549_i001|amine_1|mol2|186|dock9
    19    18     1
SMALL
USER_CHARGES


@<TRIPOS>ATOM
      1 C1          30.2928  37.6516  35.2579 C.3            1 <1>                0.0000
      2 C2          29.7178  38.7045  36.2076 C.3            1 <1>                0.0000
      3 O3          29.1022  38.0453  37.3455 O.3            1 <1>                0.0000
      4 C4          29.9258  37.4152  38.2068 C.2            1 <1>                0.0000
      5 O5          31.0921  37.2394  37.9140 O.2            1 <1>                0.0000
      6 C6          29.4263  36.9528  39.4666 C.1            1 <1>                0.0000
      7 C7          29.0167  36.5736  40.4996 C.1            1 <1>                0.0000
      8 C8          28.5034  36.0983  41.7946 C.3            1 <1>                0.0000
      9 N9          27.0360  36.0465  41.7505 N.4            1 <1>                1.0000
     10 H10         31.0416  37.0589  35.7833 H              1 <1>                0.0000
     11 H11         29.4915  36.9995  34.9104 H              1 <1>                0.0000
     12 H12         30.7549  38.1465  34.4037 H              1 <1>                0.0000
     13 H13         30.5191  39.3566  36.5552 H              1 <1>                0.0000
     14 H14         28.9690  39.2974  35.6823 H              1 <1>                0.0000
     15 H15         28.8962  35.1021  41.9978 H              1 <1>                0.0000
     16 H16         28.8193  36.7811  42.5834 H              1 <1>                0.0000
     17 H17         26.6976  35.4579  42.4970 H              1 <1>                0.0000
     18 H18         26.6631  36.9775  41.8610 H              1 <1>                0.0000
     19 H19         26.7394  35.6685  40.8633 H              1 <1>                0.0000
@<TRIPOS>BOND
    1    1    2 1     
    2    1   10 1     
    3    1   11 1     
    4    1   12 1     
    5    2    3 1     
    6    2   13 1     
    7    2   14 1     
    8    3    4 1     
    9    4    5 2     
   10    4    6 1     
   11    6    7 3     
   12    7    8 1     
   13    8    9 1     
   14    8   15 1     
   15    8   16 1     
   16    9   17 1     
   17    9   18 1     
   18    9   19 1     
@<TRIPOS>SUBSTRUCTURE
      1 ****           1
@<TRIPOS>SET
DONOR_HYDROGENS      STATIC     ATOMS    <user>   **** ""
3 17 18 19
ATOM$RED        STATIC     ATOMS    COLORGROUP SYSTEM
3 17 18 19
@<TRIPOS>COMMENT
> <Gold.Version>
2022.2.0

> <Gold.Id.Protein>
1qkm|1qkm_protein|mol2

> <Gold.Protein.RotatedTorsions>
[  496  491  490  487 ] final   23.49 input  -89.99 | X-H torsion

> <Gold.Protein.ActiveResidues>
 MET295  LEU298  THR299  LEU301  ALA302  GLU305  TRP335  MET336  LEU339  MET340 
 GLY342  LEU343  ARG346  PHE356  ILE373  ILE376  PHE377  LEU380  LYS471  GLY472 
 MET473  HIS475  LEU476  LEU477  ASN478  MET479  VAL484  VAL487 

> <Gold.Protein.RotatedAtoms>
   36.3161   33.8574   42.3676 H   0  0  0  0  0  0  0  0  0  0  0  0  # atno 496  bound_to 491 

> <Gold.Score>
     Score     S(PLP)   S(hbond)     S(cho)   S(metal)  DE(clash)   DE(tors)     intcor
     34.25     -28.52       2.00       0.00       0.00       0.00       0.13       0.00

> <Gold.PLP.Fitness>
34.2515

> <Gold.PLP.PLP>
-28.5159

> <Gold.PLP.part.hbond>
-1.0000

> <Gold.PLP.part.metal>
0.0000

> <Gold.PLP.part.buried>
-3.5560

> <Gold.PLP.part.nonpolar>
-24.3090

> <Gold.PLP.part.repulsive>
0.0568

> <Gold.PLP.ligand.clash>
0.0000

> <Gold.PLP.ligand.torsion>
0.1322

> <Gold.PLP.Chemscore.Hbond>
2.0000

> <Gold.PLP.Chemscore.CHOScore>
0.0000

> <Gold.PLP.Chemscore.Metal>
0.0000

> <Gold.Chemscore.Hbonds>
donor molecule, donor type, donor heavy atom, donor atom, acceptor molecule, acceptor atom, score
      L1  H     9    17       P1   582  2.00

> <Gold.PLP.Chemscore.Internal.Correction>
0.0000

