#       Name:                EN300-650549_i001
#       Creating user name   aseyller
#       Creation time:       Fri Apr 21 12:52:52 2023


#       File generated by GOLD software.
#

@<TRIPOS>MOLECULE
EN300-650549_i001|amine_1|mol2|186|dock15
    19    18     1
SMALL
USER_CHARGES


@<TRIPOS>ATOM
      1 C1          31.7888  35.7750  38.4904 C.3            1 <1>                0.0000
      2 C2          30.7688  36.7905  37.9714 C.3            1 <1>                0.0000
      3 O3          29.8090  37.0909  39.0187 O.3            1 <1>                0.0000
      4 C4          28.9366  36.1171  39.3469 C.2            1 <1>                0.0000
      5 O5          29.1706  34.9639  39.0430 O.2            1 <1>                0.0000
      6 C6          27.7342  36.4415  40.0537 C.1            1 <1>                0.0000
      7 C7          26.7483  36.7074  40.6331 C.1            1 <1>                0.0000
      8 C8          25.5123  37.0409  41.3595 C.3            1 <1>                0.0000
      9 N9          24.8546  35.8037  41.8009 N.4            1 <1>                1.0000
     10 H10         32.3099  36.1915  39.3523 H              1 <1>                0.0000
     11 H11         31.2736  34.8604  38.7843 H              1 <1>                0.0000
     12 H12         32.5093  35.5495  37.7042 H              1 <1>                0.0000
     13 H13         31.2839  37.7051  37.6775 H              1 <1>                0.0000
     14 H14         30.2477  36.3741  37.1094 H              1 <1>                0.0000
     15 H15         25.7551  37.6531  42.2280 H              1 <1>                0.0000
     16 H16         24.8419  37.5938  40.7014 H              1 <1>                0.0000
     17 H17         23.9713  36.0283  42.2336 H              1 <1>                0.0000
     18 H18         24.6964  35.2045  41.0047 H              1 <1>                0.0000
     19 H19         25.4446  35.3287  42.4675 H              1 <1>                0.0000
@<TRIPOS>BOND
    1    1    2 1     
    2    1   10 1     
    3    1   11 1     
    4    1   12 1     
    5    2    3 1     
    6    2   13 1     
    7    2   14 1     
    8    3    4 1     
    9    4    5 2     
   10    4    6 1     
   11    6    7 3     
   12    7    8 1     
   13    8    9 1     
   14    8   15 1     
   15    8   16 1     
   16    9   17 1     
   17    9   18 1     
   18    9   19 1     
@<TRIPOS>SUBSTRUCTURE
      1 ****           1
@<TRIPOS>SET
DONOR_HYDROGENS      STATIC     ATOMS    <user>   **** ""
3 17 18 19
ATOM$RED        STATIC     ATOMS    COLORGROUP SYSTEM
3 17 18 19
@<TRIPOS>COMMENT
> <Gold.Version>
2022.2.0

> <Gold.Id.Protein>
1qkm|1qkm_protein|mol2

> <Gold.Protein.RotatedTorsions>
[  496  491  490  487 ] final  -82.41 input  -89.99 | X-H torsion

> <Gold.Protein.ActiveResidues>
 MET295  LEU298  THR299  LEU301  ALA302  GLU305  TRP335  MET336  LEU339  MET340 
 GLY342  LEU343  ARG346  PHE356  ILE373  ILE376  PHE377  LEU380  LYS471  GLY472 
 MET473  HIS475  LEU476  LEU477  ASN478  MET479  VAL484  VAL487 

> <Gold.Protein.RotatedAtoms>
   36.6877   34.6958   41.1738 H   0  0  0  0  0  0  0  0  0  0  0  0  # atno 496  bound_to 491 

> <Gold.Score>
     Score     S(PLP)   S(hbond)     S(cho)   S(metal)  DE(clash)   DE(tors)     intcor
     34.08     -28.65       2.00       0.00       0.00       0.00       0.28       0.00

> <Gold.PLP.Fitness>
34.0807

> <Gold.PLP.PLP>
-28.6504

> <Gold.PLP.part.hbond>
-2.3623

> <Gold.PLP.part.metal>
0.0000

> <Gold.PLP.part.buried>
-2.9921

> <Gold.PLP.part.nonpolar>
-23.3862

> <Gold.PLP.part.repulsive>
0.4986

> <Gold.PLP.ligand.clash>
0.0000

> <Gold.PLP.ligand.torsion>
0.2849

> <Gold.PLP.Chemscore.Hbond>
2.0000

> <Gold.PLP.Chemscore.CHOScore>
0.0000

> <Gold.PLP.Chemscore.Metal>
0.0000

> <Gold.Chemscore.Hbonds>
donor molecule, donor type, donor heavy atom, donor atom, acceptor molecule, acceptor atom, score
      L1  H     9    19       P1   582  2.00

> <Gold.PLP.Chemscore.Internal.Correction>
0.0000

