#       Name:                EN300-650549_i001
#       Creating user name   aseyller
#       Creation time:       Fri Apr 21 12:52:47 2023


#       File generated by GOLD software.
#

@<TRIPOS>MOLECULE
EN300-650549_i001|amine_1|mol2|186|dock8
    19    18     1
SMALL
USER_CHARGES


@<TRIPOS>ATOM
      1 C1          32.6754  36.5597  35.6307 C.3            1 <1>                0.0000
      2 C2          31.3851  37.2690  36.0469 C.3            1 <1>                0.0000
      3 O3          31.0266  36.8694  37.3960 O.3            1 <1>                0.0000
      4 C4          30.0072  37.5306  37.9795 C.2            1 <1>                0.0000
      5 O5          29.4814  38.4645  37.4065 O.2            1 <1>                0.0000
      6 C6          29.5438  37.1327  39.2748 C.1            1 <1>                0.0000
      7 C7          29.1640  36.8065  40.3367 C.1            1 <1>                0.0000
      8 C8          28.6876  36.3976  41.6680 C.3            1 <1>                0.0000
      9 N9          27.5787  35.4455  41.5203 N.4            1 <1>                1.0000
     10 H10         33.4776  36.8332  36.3160 H              1 <1>                0.0000
     11 H11         32.5230  35.4808  35.6617 H              1 <1>                0.0000
     12 H12         32.9445  36.8597  34.6180 H              1 <1>                0.0000
     13 H13         31.5375  38.3479  36.0159 H              1 <1>                0.0000
     14 H14         30.5829  36.9956  35.3616 H              1 <1>                0.0000
     15 H15         29.5023  35.9242  42.2159 H              1 <1>                0.0000
     16 H16         28.3429  37.2747  42.2159 H              1 <1>                0.0000
     17 H17         27.9079  34.6163  41.0492 H              1 <1>                0.0000
     18 H18         27.2255  35.1965  42.4321 H              1 <1>                0.0000
     19 H19         26.8411  35.8700  40.9782 H              1 <1>                0.0000
@<TRIPOS>BOND
    1    1    2 1     
    2    1   10 1     
    3    1   11 1     
    4    1   12 1     
    5    2    3 1     
    6    2   13 1     
    7    2   14 1     
    8    3    4 1     
    9    4    5 2     
   10    4    6 1     
   11    6    7 3     
   12    7    8 1     
   13    8    9 1     
   14    8   15 1     
   15    8   16 1     
   16    9   17 1     
   17    9   18 1     
   18    9   19 1     
@<TRIPOS>SUBSTRUCTURE
      1 ****           1
@<TRIPOS>SET
DONOR_HYDROGENS      STATIC     ATOMS    <user>   **** ""
3 17 18 19
ATOM$RED        STATIC     ATOMS    COLORGROUP SYSTEM
3 17 18 19
@<TRIPOS>COMMENT
> <Gold.Version>
2022.2.0

> <Gold.Id.Protein>
1qkm|1qkm_protein|mol2

> <Gold.Protein.RotatedTorsions>
[  496  491  490  487 ] final  -31.45 input  -89.99 | X-H torsion

> <Gold.Protein.ActiveResidues>
 MET295  LEU298  THR299  LEU301  ALA302  GLU305  TRP335  MET336  LEU339  MET340 
 GLY342  LEU343  ARG346  PHE356  ILE373  ILE376  PHE377  LEU380  LYS471  GLY472 
 MET473  HIS475  LEU476  LEU477  ASN478  MET479  VAL484  VAL487 

> <Gold.Protein.RotatedAtoms>
   36.3210   34.5840   41.8890 H   0  0  0  0  0  0  0  0  0  0  0  0  # atno 496  bound_to 491 

> <Gold.Score>
     Score     S(PLP)   S(hbond)     S(cho)   S(metal)  DE(clash)   DE(tors)     intcor
     34.21     -28.28       2.00       0.00       0.00       0.00       0.03       0.00

> <Gold.PLP.Fitness>
34.2126

> <Gold.PLP.PLP>
-28.2767

> <Gold.PLP.part.hbond>
-1.0000

> <Gold.PLP.part.metal>
0.0000

> <Gold.PLP.part.buried>
-3.7824

> <Gold.PLP.part.nonpolar>
-24.0659

> <Gold.PLP.part.repulsive>
0.0533

> <Gold.PLP.ligand.clash>
0.0000

> <Gold.PLP.ligand.torsion>
0.0321

> <Gold.PLP.Chemscore.Hbond>
2.0000

> <Gold.PLP.Chemscore.CHOScore>
0.0000

> <Gold.PLP.Chemscore.Metal>
0.0000

> <Gold.Chemscore.Hbonds>
donor molecule, donor type, donor heavy atom, donor atom, acceptor molecule, acceptor atom, score
      L1  H     9    18       P1   582  2.00

> <Gold.PLP.Chemscore.Internal.Correction>
0.0000

