#       Name:                EN300-650549_i001
#       Creating user name   aseyller
#       Creation time:       Fri Apr 21 12:52:56 2023


#       File generated by GOLD software.
#

@<TRIPOS>MOLECULE
EN300-650549_i001|amine_1|mol2|186|dock20
    19    18     1
SMALL
USER_CHARGES


@<TRIPOS>ATOM
      1 C1          33.2859  36.1050  37.0232 C.3            1 <1>                0.0000
      2 C2          32.3400  35.0724  37.6397 C.3            1 <1>                0.0000
      3 O3          31.4991  35.7179  38.6319 O.3            1 <1>                0.0000
      4 C4          30.3783  35.0664  39.0013 C.2            1 <1>                0.0000
      5 O5          30.1061  33.9932  38.5003 O.2            1 <1>                0.0000
      6 C6          29.5083  35.6390  39.9841 C.1            1 <1>                0.0000
      7 C7          28.7951  36.1085  40.7899 C.1            1 <1>                0.0000
      8 C8          27.9009  36.6971  41.8001 C.3            1 <1>                0.0000
      9 N9          26.5678  36.0904  41.6873 N.4            1 <1>                1.0000
     10 H10         32.7027  36.8936  36.5476 H              1 <1>                0.0000
     11 H11         33.9116  36.5366  37.8044 H              1 <1>                0.0000
     12 H12         33.9171  35.6205  36.2783 H              1 <1>                0.0000
     13 H13         31.7143  34.6408  36.8585 H              1 <1>                0.0000
     14 H14         32.9231  34.2838  38.1152 H              1 <1>                0.0000
     15 H15         28.3029  36.5083  42.7955 H              1 <1>                0.0000
     16 H16         27.8258  37.7723  41.6367 H              1 <1>                0.0000
     17 H17         26.6123  35.2929  41.0708 H              1 <1>                0.0000
     18 H18         26.2551  35.7934  42.5995 H              1 <1>                0.0000
     19 H19         25.9203  36.7684  41.3140 H              1 <1>                0.0000
@<TRIPOS>BOND
    1    1    2 1     
    2    1   10 1     
    3    1   11 1     
    4    1   12 1     
    5    2    3 1     
    6    2   13 1     
    7    2   14 1     
    8    3    4 1     
    9    4    5 2     
   10    4    6 1     
   11    6    7 3     
   12    7    8 1     
   13    8    9 1     
   14    8   15 1     
   15    8   16 1     
   16    9   17 1     
   17    9   18 1     
   18    9   19 1     
@<TRIPOS>SUBSTRUCTURE
      1 ****           1
@<TRIPOS>SET
DONOR_HYDROGENS      STATIC     ATOMS    <user>   **** ""
3 17 18 19
ATOM$RED        STATIC     ATOMS    COLORGROUP SYSTEM
3 17 18 19
@<TRIPOS>COMMENT
> <Gold.Version>
2022.2.0

> <Gold.Id.Protein>
1qkm|1qkm_protein|mol2

> <Gold.Protein.RotatedTorsions>
[  496  491  490  487 ] final -113.06 input  -89.99 | X-H torsion

> <Gold.Protein.ActiveResidues>
 MET295  LEU298  THR299  LEU301  ALA302  GLU305  TRP335  MET336  LEU339  MET340 
 GLY342  LEU343  ARG346  PHE356  ILE373  ILE376  PHE377  LEU380  LYS471  GLY472 
 MET473  HIS475  LEU476  LEU477  ASN478  MET479  VAL484  VAL487 

> <Gold.Protein.RotatedAtoms>
   36.9671   34.4408   40.8489 H   0  0  0  0  0  0  0  0  0  0  0  0  # atno 496  bound_to 491 

> <Gold.Score>
     Score     S(PLP)   S(hbond)     S(cho)   S(metal)  DE(clash)   DE(tors)     intcor
     33.37     -27.52       2.00       0.00       0.00       0.00       0.08       0.00

> <Gold.PLP.Fitness>
33.3659

> <Gold.PLP.PLP>
-27.5194

> <Gold.PLP.part.hbond>
-1.0000

> <Gold.PLP.part.metal>
0.0000

> <Gold.PLP.part.buried>
-2.3378

> <Gold.PLP.part.nonpolar>
-24.4846

> <Gold.PLP.part.repulsive>
0.1714

> <Gold.PLP.ligand.clash>
0.0000

> <Gold.PLP.ligand.torsion>
0.0767

> <Gold.PLP.Chemscore.Hbond>
2.0000

> <Gold.PLP.Chemscore.CHOScore>
0.0000

> <Gold.PLP.Chemscore.Metal>
0.0000

> <Gold.Chemscore.Hbonds>
donor molecule, donor type, donor heavy atom, donor atom, acceptor molecule, acceptor atom, score
      L1  H     9    18       P1   582  2.00

> <Gold.PLP.Chemscore.Internal.Correction>
0.0000

