#       Name:                EN300-650549_i001
#       Creating user name   aseyller
#       Creation time:       Fri Apr 21 12:52:49 2023


#       File generated by GOLD software.
#

@<TRIPOS>MOLECULE
EN300-650549_i001|amine_1|mol2|186|dock11
    19    18     1
SMALL
USER_CHARGES


@<TRIPOS>ATOM
      1 C1          32.6800  36.9663  36.4646 C.3            1 <1>                0.0000
      2 C2          31.1701  37.1245  36.2737 C.3            1 <1>                0.0000
      3 O3          30.5379  37.3296  37.5646 O.3            1 <1>                0.0000
      4 C4          30.5620  36.2955  38.4290 C.2            1 <1>                0.0000
      5 O5          31.2663  35.3312  38.2033 O.2            1 <1>                0.0000
      6 C6          29.7576  36.3333  39.6131 C.1            1 <1>                0.0000
      7 C7          29.0981  36.3642  40.5839 C.1            1 <1>                0.0000
      8 C8          28.2711  36.4030  41.8010 C.3            1 <1>                0.0000
      9 N9          26.9892  35.7334  41.5437 N.4            1 <1>                1.0000
     10 H10         33.0838  37.8664  36.9281 H              1 <1>                0.0000
     11 H11         32.8770  36.1074  37.1062 H              1 <1>                0.0000
     12 H12         33.1546  36.8124  35.4955 H              1 <1>                0.0000
     13 H13         30.9731  37.9834  35.6321 H              1 <1>                0.0000
     14 H14         30.7662  36.2246  35.8101 H              1 <1>                0.0000
     15 H15         28.7920  35.8919  42.6107 H              1 <1>                0.0000
     16 H16         28.0891  37.4399  42.0837 H              1 <1>                0.0000
     17 H17         27.0598  35.1846  40.6999 H              1 <1>                0.0000
     18 H18         26.7635  35.1295  42.3198 H              1 <1>                0.0000
     19 H19         26.2639  36.4263  41.4346 H              1 <1>                0.0000
@<TRIPOS>BOND
    1    1    2 1     
    2    1   10 1     
    3    1   11 1     
    4    1   12 1     
    5    2    3 1     
    6    2   13 1     
    7    2   14 1     
    8    3    4 1     
    9    4    5 2     
   10    4    6 1     
   11    6    7 3     
   12    7    8 1     
   13    8    9 1     
   14    8   15 1     
   15    8   16 1     
   16    9   17 1     
   17    9   18 1     
   18    9   19 1     
@<TRIPOS>SUBSTRUCTURE
      1 ****           1
@<TRIPOS>SET
DONOR_HYDROGENS      STATIC     ATOMS    <user>   **** ""
3 17 18 19
ATOM$RED        STATIC     ATOMS    COLORGROUP SYSTEM
3 17 18 19
@<TRIPOS>COMMENT
> <Gold.Version>
2022.2.0

> <Gold.Id.Protein>
1qkm|1qkm_protein|mol2

> <Gold.Protein.RotatedTorsions>
[  496  491  490  487 ] final  146.72 input  -89.99 | X-H torsion

> <Gold.Protein.ActiveResidues>
 MET295  LEU298  THR299  LEU301  ALA302  GLU305  TRP335  MET336  LEU339  MET340 
 GLY342  LEU343  ARG346  PHE356  ILE373  ILE376  PHE377  LEU380  LYS471  GLY472 
 MET473  HIS475  LEU476  LEU477  ASN478  MET479  VAL484  VAL487 

> <Gold.Protein.RotatedAtoms>
   37.2483   33.0757   41.2389 H   0  0  0  0  0  0  0  0  0  0  0  0  # atno 496  bound_to 491 

> <Gold.Score>
     Score     S(PLP)   S(hbond)     S(cho)   S(metal)  DE(clash)   DE(tors)     intcor
     33.49     -27.75       2.00       0.00       0.00       0.00       0.13       0.00

> <Gold.PLP.Fitness>
33.4856

> <Gold.PLP.PLP>
-27.7465

> <Gold.PLP.part.hbond>
-1.0000

> <Gold.PLP.part.metal>
0.0000

> <Gold.PLP.part.buried>
-3.9413

> <Gold.PLP.part.nonpolar>
-23.2397

> <Gold.PLP.part.repulsive>
0.0953

> <Gold.PLP.ligand.clash>
0.0000

> <Gold.PLP.ligand.torsion>
0.1305

> <Gold.PLP.Chemscore.Hbond>
2.0000

> <Gold.PLP.Chemscore.CHOScore>
0.0000

> <Gold.PLP.Chemscore.Metal>
0.0000

> <Gold.Chemscore.Hbonds>
donor molecule, donor type, donor heavy atom, donor atom, acceptor molecule, acceptor atom, score
      L1  H     9    18       P1   582  2.00

> <Gold.PLP.Chemscore.Internal.Correction>
0.0000

