#       Name:                EN300-650549_i001
#       Creating user name   aseyller
#       Creation time:       Fri Apr 21 12:52:52 2023


#       File generated by GOLD software.
#

@<TRIPOS>MOLECULE
EN300-650549_i001|amine_1|mol2|186|dock14
    19    18     1
SMALL
USER_CHARGES


@<TRIPOS>ATOM
      1 C1          31.4578  34.0008  38.8017 C.3            1 <1>                0.0000
      2 C2          30.7633  35.3280  38.4898 C.3            1 <1>                0.0000
      3 O3          29.5325  35.4217  39.2544 O.3            1 <1>                0.0000
      4 C4          28.7507  36.4959  39.0264 C.2            1 <1>                0.0000
      5 O5          29.0446  37.2866  38.1516 O.2            1 <1>                0.0000
      6 C6          27.5740  36.7053  39.8152 C.1            1 <1>                0.0000
      7 C7          26.6093  36.8770  40.4619 C.1            1 <1>                0.0000
      8 C8          25.3997  37.0922  41.2726 C.3            1 <1>                0.0000
      9 N9          24.9028  35.7998  41.7634 N.4            1 <1>                1.0000
     10 H10         31.6867  33.9520  39.8663 H              1 <1>                0.0000
     11 H11         30.7996  33.1745  38.5332 H              1 <1>                0.0000
     12 H12         32.3818  33.9306  38.2277 H              1 <1>                0.0000
     13 H13         31.4215  36.1544  38.7582 H              1 <1>                0.0000
     14 H14         30.5345  35.3770  37.4252 H              1 <1>                0.0000
     15 H15         25.6396  37.7347  42.1198 H              1 <1>                0.0000
     16 H16         24.6326  37.5680  40.6616 H              1 <1>                0.0000
     17 H17         25.6020  35.3721  42.3518 H              1 <1>                0.0000
     18 H18         24.0580  35.9446  42.2957 H              1 <1>                0.0000
     19 H19         24.7071  35.1952  40.9796 H              1 <1>                0.0000
@<TRIPOS>BOND
    1    1    2 1     
    2    1   10 1     
    3    1   11 1     
    4    1   12 1     
    5    2    3 1     
    6    2   13 1     
    7    2   14 1     
    8    3    4 1     
    9    4    5 2     
   10    4    6 1     
   11    6    7 3     
   12    7    8 1     
   13    8    9 1     
   14    8   15 1     
   15    8   16 1     
   16    9   17 1     
   17    9   18 1     
   18    9   19 1     
@<TRIPOS>SUBSTRUCTURE
      1 ****           1
@<TRIPOS>SET
DONOR_HYDROGENS      STATIC     ATOMS    <user>   **** ""
3 17 18 19
ATOM$RED        STATIC     ATOMS    COLORGROUP SYSTEM
3 17 18 19
@<TRIPOS>COMMENT
> <Gold.Version>
2022.2.0

> <Gold.Id.Protein>
1qkm|1qkm_protein|mol2

> <Gold.Protein.RotatedTorsions>
[  496  491  490  487 ] final  173.57 input  -89.99 | X-H torsion

> <Gold.Protein.ActiveResidues>
 MET295  LEU298  THR299  LEU301  ALA302  GLU305  TRP335  MET336  LEU339  MET340 
 GLY342  LEU343  ARG346  PHE356  ILE373  ILE376  PHE377  LEU380  LYS471  GLY472 
 MET473  HIS475  LEU476  LEU477  ASN478  MET479  VAL484  VAL487 

> <Gold.Protein.RotatedAtoms>
   37.3181   33.3727   40.9246 H   0  0  0  0  0  0  0  0  0  0  0  0  # atno 496  bound_to 491 

> <Gold.Score>
     Score     S(PLP)   S(hbond)     S(cho)   S(metal)  DE(clash)   DE(tors)     intcor
     35.22     -29.27       2.00       0.00       0.00       0.00       0.03       0.00

> <Gold.PLP.Fitness>
35.2177

> <Gold.PLP.PLP>
-29.2739

> <Gold.PLP.part.hbond>
-2.1790

> <Gold.PLP.part.metal>
0.0000

> <Gold.PLP.part.buried>
-3.0745

> <Gold.PLP.part.nonpolar>
-24.5172

> <Gold.PLP.part.repulsive>
0.2265

> <Gold.PLP.ligand.clash>
0.0000

> <Gold.PLP.ligand.torsion>
0.0281

> <Gold.PLP.Chemscore.Hbond>
2.0000

> <Gold.PLP.Chemscore.CHOScore>
0.0000

> <Gold.PLP.Chemscore.Metal>
0.0000

> <Gold.Chemscore.Hbonds>
donor molecule, donor type, donor heavy atom, donor atom, acceptor molecule, acceptor atom, score
      L1  H     9    17       P1   582  2.00

> <Gold.PLP.Chemscore.Internal.Correction>
0.0000

