#       Name:                EN300-07553_i001
#       Creating user name   aseyller
#       Creation time:       Fri Apr 21 16:30:31 2023


#       File generated by GOLD software.
#

@<TRIPOS>MOLECULE
EN300-07553_i001|benzaldehydes|mol2|29|dock7
    20    21     1
SMALL
USER_CHARGES


@<TRIPOS>ATOM
      1 O1          29.6984  35.9492  40.3888 O.3            1 <1>                0.0000
      2 C2          30.1096  36.4427  39.1971 C.ar           1 <1>                0.0000
      3 N3          29.7264  37.6444  38.8316 N.ar           1 <1>                0.0000
      4 C4          30.1050  38.1790  37.6643 C.ar           1 <1>                0.0000
      5 C5          29.6828  39.4671  37.2945 C.ar           1 <1>                0.0000
      6 C6          30.0788  39.9938  36.1030 C.ar           1 <1>                0.0000
      7 C7          30.9001  39.2755  35.2364 C.ar           1 <1>                0.0000
      8 C8          31.3301  38.0247  35.5588 C.ar           1 <1>                0.0000
      9 C9          30.9413  37.4495  36.7813 C.ar           1 <1>                0.0000
     10 C10         31.3675  36.1614  37.1451 C.ar           1 <1>                0.0000
     11 C11         30.9484  35.6556  38.3731 C.ar           1 <1>                0.0000
     12 C12         31.3645  34.3152  38.8036 C.2            1 <1>                0.0000
     13 O13         32.0908  33.6492  38.0963 O.2            1 <1>                0.0000
     14 H14         29.0455  40.0379  37.9535 H              1 <1>                0.0000
     15 H15         29.7507  40.9845  35.8250 H              1 <1>                0.0000
     16 H16         31.1990  39.7165  34.2969 H              1 <1>                0.0000
     17 H17         31.9667  37.4775  34.8794 H              1 <1>                0.0000
     18 H18         32.0040  35.5818  36.4931 H              1 <1>                0.0000
     19 H19         31.0238  33.9219  39.7500 H              1 <1>                0.0000
     20 H20         30.4204  35.6846  40.9752 H              1 <1>                0.0000
@<TRIPOS>BOND
    1    1    2 1     
    2    1   20 1     
    3    2    3 ar    
    4    2   11 ar    
    5    3    4 ar    
    6    4    5 ar    
    7    4    9 ar    
    8    5    6 ar    
    9    5   14 1     
   10    6    7 ar    
   11    6   15 1     
   12    7    8 ar    
   13    7   16 1     
   14    8    9 ar    
   15    8   17 1     
   16    9   10 ar    
   17   10   11 ar    
   18   10   18 1     
   19   11   12 1     
   20   12   13 2     
   21   12   19 1     
@<TRIPOS>SUBSTRUCTURE
      1 ****           1
@<TRIPOS>SET
DONOR_HYDROGENS      STATIC     ATOMS    <user>   **** ""
1 20
ATOM$RED        STATIC     ATOMS    COLORGROUP SYSTEM
1 20
@<TRIPOS>COMMENT
> <Gold.Version>
2022.2.0

> <Gold.Id.Protein>
1qkm|1qkm_protein|mol2

> <Gold.Protein.RotatedTorsions>
[  496  491  490  487 ] final -167.21 input  -89.99 | X-H torsion

> <Gold.Protein.ActiveResidues>
 MET295  LEU298  THR299  LEU301  ALA302  GLU305  TRP335  MET336  LEU339  MET340 
 GLY342  LEU343  ARG346  PHE356  ILE373  ILE376  PHE377  LEU380  LYS471  GLY472 
 MET473  HIS475  LEU476  LEU477  ASN478  MET479  VAL484  VAL487 

> <Gold.Protein.RotatedAtoms>
   37.2978   33.6516   40.7798 H   0  0  0  0  0  0  0  0  0  0  0  0  # atno 496  bound_to 491 

> <Gold.Score>
     Score     S(PLP)   S(hbond)     S(cho)   S(metal)  DE(clash)   DE(tors)     intcor
     42.87     -39.87       1.00       0.00       0.00       0.00       0.00       0.00

> <Gold.PLP.Fitness>
42.8665

> <Gold.PLP.PLP>
-39.8667

> <Gold.PLP.part.hbond>
-1.0000

> <Gold.PLP.part.metal>
0.0000

> <Gold.PLP.part.buried>
-3.9276

> <Gold.PLP.part.nonpolar>
-34.8231

> <Gold.PLP.part.repulsive>
0.0575

> <Gold.PLP.ligand.clash>
0.0000

> <Gold.PLP.ligand.torsion>
0.0001

> <Gold.PLP.Chemscore.Hbond>
1.0000

> <Gold.PLP.Chemscore.CHOScore>
0.0000

> <Gold.PLP.Chemscore.Metal>
0.0000

> <Gold.Chemscore.Hbonds>
donor molecule, donor type, donor heavy atom, donor atom, acceptor molecule, acceptor atom, score
      L1  H     1    20       P1   470  1.00

> <Gold.PLP.Chemscore.Internal.Correction>
0.0000

