#       Name:                EN300-07553_i001
#       Creating user name   aseyller
#       Creation time:       Fri Apr 21 16:30:30 2023


#       File generated by GOLD software.
#

@<TRIPOS>MOLECULE
EN300-07553_i001|benzaldehydes|mol2|29|dock5
    20    21     1
SMALL
USER_CHARGES


@<TRIPOS>ATOM
      1 O1          30.9768  34.9404  39.3968 O.3            1 <1>                0.0000
      2 C2          30.8178  35.9520  38.5113 C.ar           1 <1>                0.0000
      3 N3          31.5744  35.9929  37.4386 N.ar           1 <1>                0.0000
      4 C4          31.4573  36.9706  36.5319 C.ar           1 <1>                0.0000
      5 C5          32.2775  36.9934  35.3914 C.ar           1 <1>                0.0000
      6 C6          32.1431  37.9963  34.4802 C.ar           1 <1>                0.0000
      7 C7          31.2018  39.0081  34.6577 C.ar           1 <1>                0.0000
      8 C8          30.3887  39.0209  35.7495 C.ar           1 <1>                0.0000
      9 C9          30.4993  38.0009  36.7107 C.ar           1 <1>                0.0000
     10 C10         29.6756  37.9838  37.8484 C.ar           1 <1>                0.0000
     11 C11         29.8358  36.9406  38.7570 C.ar           1 <1>                0.0000
     12 C12         29.0013  36.8731  39.9629 C.2            1 <1>                0.0000
     13 O13         29.0570  35.9003  40.6854 O.2            1 <1>                0.0000
     14 H14         33.0131  36.2177  35.2379 H              1 <1>                0.0000
     15 H15         32.7768  38.0078  33.6057 H              1 <1>                0.0000
     16 H16         31.1163  39.7922  33.9199 H              1 <1>                0.0000
     17 H17         29.6624  39.8101  35.8764 H              1 <1>                0.0000
     18 H18         28.9377  38.7550  38.0120 H              1 <1>                0.0000
     19 H19         28.3376  37.6895  40.2068 H              1 <1>                0.0000
     20 H20         31.1761  35.2331  40.2966 H              1 <1>                0.0000
@<TRIPOS>BOND
    1    1    2 1     
    2    1   20 1     
    3    2    3 ar    
    4    2   11 ar    
    5    3    4 ar    
    6    4    5 ar    
    7    4    9 ar    
    8    5    6 ar    
    9    5   14 1     
   10    6    7 ar    
   11    6   15 1     
   12    7    8 ar    
   13    7   16 1     
   14    8    9 ar    
   15    8   17 1     
   16    9   10 ar    
   17   10   11 ar    
   18   10   18 1     
   19   11   12 1     
   20   12   13 2     
   21   12   19 1     
@<TRIPOS>SUBSTRUCTURE
      1 ****           1
@<TRIPOS>SET
DONOR_HYDROGENS      STATIC     ATOMS    <user>   **** ""
1 20
ATOM$RED        STATIC     ATOMS    COLORGROUP SYSTEM
1 20
@<TRIPOS>COMMENT
> <Gold.Version>
2022.2.0

> <Gold.Id.Protein>
1qkm|1qkm_protein|mol2

> <Gold.Protein.RotatedTorsions>
[  496  491  490  487 ] final   31.44 input  -89.99 | X-H torsion

> <Gold.Protein.ActiveResidues>
 MET295  LEU298  THR299  LEU301  ALA302  GLU305  TRP335  MET336  LEU339  MET340 
 GLY342  LEU343  ARG346  PHE356  ILE373  ILE376  PHE377  LEU380  LYS471  GLY472 
 MET473  HIS475  LEU476  LEU477  ASN478  MET479  VAL484  VAL487 

> <Gold.Protein.RotatedAtoms>
   36.3538   33.7330   42.3820 H   0  0  0  0  0  0  0  0  0  0  0  0  # atno 496  bound_to 491 

> <Gold.Score>
     Score     S(PLP)   S(hbond)     S(cho)   S(metal)  DE(clash)   DE(tors)     intcor
     42.46     -39.49       1.00       0.00       0.00       0.00       0.01       0.00

> <Gold.PLP.Fitness>
42.4622

> <Gold.PLP.PLP>
-39.4853

> <Gold.PLP.part.hbond>
-1.0000

> <Gold.PLP.part.metal>
0.0000

> <Gold.PLP.part.buried>
-3.7879

> <Gold.PLP.part.nonpolar>
-34.9531

> <Gold.PLP.part.repulsive>
0.1331

> <Gold.PLP.ligand.clash>
0.0000

> <Gold.PLP.ligand.torsion>
0.0116

> <Gold.PLP.Chemscore.Hbond>
1.0000

> <Gold.PLP.Chemscore.CHOScore>
0.0000

> <Gold.PLP.Chemscore.Metal>
0.0000

> <Gold.Chemscore.Hbonds>
donor molecule, donor type, donor heavy atom, donor atom, acceptor molecule, acceptor atom, score
      L1  H     1    20       P1   470  1.00

> <Gold.PLP.Chemscore.Internal.Correction>
0.0001

