#       Name:                EN300-07553_i001
#       Creating user name   aseyller
#       Creation time:       Fri Apr 21 16:30:33 2023


#       File generated by GOLD software.
#

@<TRIPOS>MOLECULE
EN300-07553_i001|benzaldehydes|mol2|29|dock11
    20    21     1
SMALL
USER_CHARGES


@<TRIPOS>ATOM
      1 O1          31.5571  34.5874  39.3894 O.3            1 <1>                0.0000
      2 C2          30.5484  35.4094  39.0160 C.ar           1 <1>                0.0000
      3 N3          29.3531  35.2367  39.5320 N.ar           1 <1>                0.0000
      4 C4          28.3221  36.0218  39.1972 C.ar           1 <1>                0.0000
      5 C5          27.0521  35.8184  39.7627 C.ar           1 <1>                0.0000
      6 C6          26.0157  36.6279  39.4096 C.ar           1 <1>                0.0000
      7 C7          26.1905  37.6613  38.4915 C.ar           1 <1>                0.0000
      8 C8          27.4055  37.8902  37.9217 C.ar           1 <1>                0.0000
      9 C9          28.4984  37.0745  38.2632 C.ar           1 <1>                0.0000
     10 C10         29.7656  37.2837  37.6944 C.ar           1 <1>                0.0000
     11 C11         30.8044  36.4411  38.0821 C.ar           1 <1>                0.0000
     12 C12         32.1492  36.6151  37.5196 C.2            1 <1>                0.0000
     13 O13         32.3367  37.4237  36.6351 O.2            1 <1>                0.0000
     14 H14         26.8982  35.0218  40.4755 H              1 <1>                0.0000
     15 H15         25.0421  36.4660  39.8482 H              1 <1>                0.0000
     16 H16         25.3514  38.2882  38.2283 H              1 <1>                0.0000
     17 H17         27.5293  38.6944  37.2115 H              1 <1>                0.0000
     18 H18         29.9301  38.0767  36.9800 H              1 <1>                0.0000
     19 H19         32.9717  36.0232  37.8932 H              1 <1>                0.0000
     20 H20         31.6130  34.4416  40.3437 H              1 <1>                0.0000
@<TRIPOS>BOND
    1    1    2 1     
    2    1   20 1     
    3    2    3 ar    
    4    2   11 ar    
    5    3    4 ar    
    6    4    5 ar    
    7    4    9 ar    
    8    5    6 ar    
    9    5   14 1     
   10    6    7 ar    
   11    6   15 1     
   12    7    8 ar    
   13    7   16 1     
   14    8    9 ar    
   15    8   17 1     
   16    9   10 ar    
   17   10   11 ar    
   18   10   18 1     
   19   11   12 1     
   20   12   13 2     
   21   12   19 1     
@<TRIPOS>SUBSTRUCTURE
      1 ****           1
@<TRIPOS>SET
DONOR_HYDROGENS      STATIC     ATOMS    <user>   **** ""
1 20
ATOM$RED        STATIC     ATOMS    COLORGROUP SYSTEM
1 20
@<TRIPOS>COMMENT
> <Gold.Version>
2022.2.0

> <Gold.Id.Protein>
1qkm|1qkm_protein|mol2

> <Gold.Protein.RotatedTorsions>
[  496  491  490  487 ] final  -37.47 input  -89.99 | X-H torsion

> <Gold.Protein.ActiveResidues>
 MET295  LEU298  THR299  LEU301  ALA302  GLU305  TRP335  MET336  LEU339  MET340 
 GLY342  LEU343  ARG346  PHE356  ILE373  ILE376  PHE377  LEU380  LYS471  GLY472 
 MET473  HIS475  LEU476  LEU477  ASN478  MET479  VAL484  VAL487 

> <Gold.Protein.RotatedAtoms>
   36.3497   34.6322   41.8074 H   0  0  0  0  0  0  0  0  0  0  0  0  # atno 496  bound_to 491 

> <Gold.Score>
     Score     S(PLP)   S(hbond)     S(cho)   S(metal)  DE(clash)   DE(tors)     intcor
     42.79     -39.81       1.00       0.00       0.00       0.00       0.01       0.00

> <Gold.PLP.Fitness>
42.7910

> <Gold.PLP.PLP>
-39.8087

> <Gold.PLP.part.hbond>
-1.0000

> <Gold.PLP.part.metal>
0.0000

> <Gold.PLP.part.buried>
-2.2906

> <Gold.PLP.part.nonpolar>
-36.9790

> <Gold.PLP.part.repulsive>
0.0768

> <Gold.PLP.ligand.clash>
0.0000

> <Gold.PLP.ligand.torsion>
0.0089

> <Gold.PLP.Chemscore.Hbond>
1.0000

> <Gold.PLP.Chemscore.CHOScore>
0.0000

> <Gold.PLP.Chemscore.Metal>
0.0000

> <Gold.Chemscore.Hbonds>
donor molecule, donor type, donor heavy atom, donor atom, acceptor molecule, acceptor atom, score
      L1  H     1    20       P1   470  1.00

> <Gold.PLP.Chemscore.Internal.Correction>
0.0000

