#       Name:                EN300-07553_i001
#       Creating user name   aseyller
#       Creation time:       Fri Apr 21 16:30:35 2023


#       File generated by GOLD software.
#

@<TRIPOS>MOLECULE
EN300-07553_i001|benzaldehydes|mol2|29|dock15
    20    21     1
SMALL
USER_CHARGES


@<TRIPOS>ATOM
      1 O1          29.9781  35.7521  40.1036 O.3            1 <1>                0.0000
      2 C2          30.0696  36.4059  38.9216 C.ar           1 <1>                0.0000
      3 N3          31.2137  36.4119  38.2766 N.ar           1 <1>                0.0000
      4 C4          31.3573  37.0424  37.1047 C.ar           1 <1>                0.0000
      5 C5          32.5910  37.0349  36.4324 C.ar           1 <1>                0.0000
      6 C6          32.7173  37.6819  35.2410 C.ar           1 <1>                0.0000
      7 C7          31.6397  38.3568  34.6712 C.ar           1 <1>                0.0000
      8 C8          30.4284  38.3870  35.2917 C.ar           1 <1>                0.0000
      9 C9          30.2614  37.7294  36.5230 C.ar           1 <1>                0.0000
     10 C10         29.0250  37.7404  37.1896 C.ar           1 <1>                0.0000
     11 C11         28.9294  37.0639  38.4031 C.ar           1 <1>                0.0000
     12 C12         27.6610  37.0426  39.1420 C.2            1 <1>                0.0000
     13 O13         26.6137  37.2124  38.5541 O.2            1 <1>                0.0000
     14 H14         33.4372  36.5175  36.8597 H              1 <1>                0.0000
     15 H15         33.6684  37.6721  34.7295 H              1 <1>                0.0000
     16 H16         31.7672  38.8625  33.7255 H              1 <1>                0.0000
     17 H17         29.6001  38.9130  34.8404 H              1 <1>                0.0000
     18 H18         28.1728  38.2555  36.7717 H              1 <1>                0.0000
     19 H19         27.6602  36.8757  40.2090 H              1 <1>                0.0000
     20 H20         30.8323  35.5611  40.5146 H              1 <1>                0.0000
@<TRIPOS>BOND
    1    1    2 1     
    2    1   20 1     
    3    2    3 ar    
    4    2   11 ar    
    5    3    4 ar    
    6    4    5 ar    
    7    4    9 ar    
    8    5    6 ar    
    9    5   14 1     
   10    6    7 ar    
   11    6   15 1     
   12    7    8 ar    
   13    7   16 1     
   14    8    9 ar    
   15    8   17 1     
   16    9   10 ar    
   17   10   11 ar    
   18   10   18 1     
   19   11   12 1     
   20   12   13 2     
   21   12   19 1     
@<TRIPOS>SUBSTRUCTURE
      1 ****           1
@<TRIPOS>SET
DONOR_HYDROGENS      STATIC     ATOMS    <user>   **** ""
1 20
ATOM$RED        STATIC     ATOMS    COLORGROUP SYSTEM
1 20
@<TRIPOS>COMMENT
> <Gold.Version>
2022.2.0

> <Gold.Id.Protein>
1qkm|1qkm_protein|mol2

> <Gold.Protein.RotatedTorsions>
[  496  491  490  487 ] final -112.54 input  -89.99 | X-H torsion

> <Gold.Protein.ActiveResidues>
 MET295  LEU298  THR299  LEU301  ALA302  GLU305  TRP335  MET336  LEU339  MET340 
 GLY342  LEU343  ARG346  PHE356  ILE373  ILE376  PHE377  LEU380  LYS471  GLY472 
 MET473  HIS475  LEU476  LEU477  ASN478  MET479  VAL484  VAL487 

> <Gold.Protein.RotatedAtoms>
   36.9625   34.4469   40.8530 H   0  0  0  0  0  0  0  0  0  0  0  0  # atno 496  bound_to 491 

> <Gold.Score>
     Score     S(PLP)   S(hbond)     S(cho)   S(metal)  DE(clash)   DE(tors)     intcor
     39.49     -36.76       0.99       0.00       0.00       0.00       0.12       0.00

> <Gold.PLP.Fitness>
39.4946

> <Gold.PLP.PLP>
-36.7582

> <Gold.PLP.part.hbond>
-1.0000

> <Gold.PLP.part.metal>
0.0000

> <Gold.PLP.part.buried>
-3.9272

> <Gold.PLP.part.nonpolar>
-32.0424

> <Gold.PLP.part.repulsive>
0.0765

> <Gold.PLP.ligand.clash>
0.0000

> <Gold.PLP.ligand.torsion>
0.1198

> <Gold.PLP.Chemscore.Hbond>
0.9920

> <Gold.PLP.Chemscore.CHOScore>
0.0000

> <Gold.PLP.Chemscore.Metal>
0.0000

> <Gold.Chemscore.Hbonds>
donor molecule, donor type, donor heavy atom, donor atom, acceptor molecule, acceptor atom, score
      L1  H     1    20       P1   470  0.99

> <Gold.PLP.Chemscore.Internal.Correction>
0.0000

