#       Name:                EN300-07553_i001
#       Creating user name   aseyller
#       Creation time:       Fri Apr 21 16:30:32 2023


#       File generated by GOLD software.
#

@<TRIPOS>MOLECULE
EN300-07553_i001|benzaldehydes|mol2|29|dock10
    20    21     1
SMALL
USER_CHARGES


@<TRIPOS>ATOM
      1 O1          27.4441  35.9309  42.2543 O.3            1 <1>                0.0000
      2 C2          27.8053  36.2865  40.9991 C.ar           1 <1>                0.0000
      3 N3          29.0279  36.0406  40.5873 N.ar           1 <1>                0.0000
      4 C4          29.4355  36.3713  39.3560 C.ar           1 <1>                0.0000
      5 C5          30.7485  36.0977  38.9373 C.ar           1 <1>                0.0000
      6 C6          31.1444  36.4416  37.6806 C.ar           1 <1>                0.0000
      7 C7          30.2670  37.0643  36.7952 C.ar           1 <1>                0.0000
      8 C8          28.9871  37.3460  37.1636 C.ar           1 <1>                0.0000
      9 C9          28.5437  37.0047  38.4533 C.ar           1 <1>                0.0000
     10 C10         27.2295  37.2806  38.8654 C.ar           1 <1>                0.0000
     11 C11         26.8564  36.9104  40.1550 C.ar           1 <1>                0.0000
     12 C12         25.4952  37.1743  40.6374 C.2            1 <1>                0.0000
     13 O13         25.2254  37.0145  41.8092 O.2            1 <1>                0.0000
     14 H14         31.4423  35.6163  39.6105 H              1 <1>                0.0000
     15 H15         32.1550  36.2284  37.3651 H              1 <1>                0.0000
     16 H16         30.6069  37.3271  35.8043 H              1 <1>                0.0000
     17 H17         28.3158  37.8287  36.4687 H              1 <1>                0.0000
     18 H18         26.5282  37.7625  38.2005 H              1 <1>                0.0000
     19 H19         24.7339  37.5106  39.9492 H              1 <1>                0.0000
     20 H20         26.9217  35.1183  42.2980 H              1 <1>                0.0000
@<TRIPOS>BOND
    1    1    2 1     
    2    1   20 1     
    3    2    3 ar    
    4    2   11 ar    
    5    3    4 ar    
    6    4    5 ar    
    7    4    9 ar    
    8    5    6 ar    
    9    5   14 1     
   10    6    7 ar    
   11    6   15 1     
   12    7    8 ar    
   13    7   16 1     
   14    8    9 ar    
   15    8   17 1     
   16    9   10 ar    
   17   10   11 ar    
   18   10   18 1     
   19   11   12 1     
   20   12   13 2     
   21   12   19 1     
@<TRIPOS>SUBSTRUCTURE
      1 ****           1
@<TRIPOS>SET
DONOR_HYDROGENS      STATIC     ATOMS    <user>   **** ""
1 20
ATOM$RED        STATIC     ATOMS    COLORGROUP SYSTEM
1 20
@<TRIPOS>COMMENT
> <Gold.Version>
2022.2.0

> <Gold.Id.Protein>
1qkm|1qkm_protein|mol2

> <Gold.Protein.RotatedTorsions>
[  496  491  490  487 ] final  -56.52 input  -89.99 | X-H torsion

> <Gold.Protein.ActiveResidues>
 MET295  LEU298  THR299  LEU301  ALA302  GLU305  TRP335  MET336  LEU339  MET340 
 GLY342  LEU343  ARG346  PHE356  ILE373  ILE376  PHE377  LEU380  LYS471  GLY472 
 MET473  HIS475  LEU476  LEU477  ASN478  MET479  VAL484  VAL487 

> <Gold.Protein.RotatedAtoms>
   36.4707   34.7254   41.5351 H   0  0  0  0  0  0  0  0  0  0  0  0  # atno 496  bound_to 491 

> <Gold.Score>
     Score     S(PLP)   S(hbond)     S(cho)   S(metal)  DE(clash)   DE(tors)     intcor
     43.40     -40.97       0.82       0.00       0.00       0.00       0.02       0.00

> <Gold.PLP.Fitness>
43.3964

> <Gold.PLP.PLP>
-40.9743

> <Gold.PLP.part.hbond>
-1.8021

> <Gold.PLP.part.metal>
0.0000

> <Gold.PLP.part.buried>
-4.9030

> <Gold.PLP.part.nonpolar>
-34.6575

> <Gold.PLP.part.repulsive>
0.3781

> <Gold.PLP.ligand.clash>
0.0000

> <Gold.PLP.ligand.torsion>
0.0203

> <Gold.PLP.Chemscore.Hbond>
0.8209

> <Gold.PLP.Chemscore.CHOScore>
0.0000

> <Gold.PLP.Chemscore.Metal>
0.0000

> <Gold.Chemscore.Hbonds>
donor molecule, donor type, donor heavy atom, donor atom, acceptor molecule, acceptor atom, score
      L1  H     1    20       P1   582  0.48
      P1  H  1258  1270       L1    13  0.34

> <Gold.PLP.Chemscore.Internal.Correction>
0.0000

