#       Name:                EN300-07553_i001
#       Creating user name   aseyller
#       Creation time:       Fri Apr 21 16:30:38 2023


#       File generated by GOLD software.
#

@<TRIPOS>MOLECULE
EN300-07553_i001|benzaldehydes|mol2|29|dock20
    20    21     1
SMALL
USER_CHARGES


@<TRIPOS>ATOM
      1 O1          31.9703  35.6536  38.6259 O.3            1 <1>                0.0000
      2 C2          30.6745  36.0454  38.6376 C.ar           1 <1>                0.0000
      3 N3          29.9235  35.7541  39.6750 N.ar           1 <1>                0.0000
      4 C4          28.6371  36.1185  39.7368 C.ar           1 <1>                0.0000
      5 C5          27.8531  35.7962  40.8573 C.ar           1 <1>                0.0000
      6 C6          26.5463  36.1759  40.9017 C.ar           1 <1>                0.0000
      7 C7          25.9664  36.8826  39.8502 C.ar           1 <1>                0.0000
      8 C8          26.6929  37.2137  38.7476 C.ar           1 <1>                0.0000
      9 C9          28.0454  36.8384  38.6676 C.ar           1 <1>                0.0000
     10 C10         28.8237  37.1644  37.5446 C.ar           1 <1>                0.0000
     11 C11         30.1579  36.7656  37.5346 C.ar           1 <1>                0.0000
     12 C12         31.0171  37.0802  36.3865 C.2            1 <1>                0.0000
     13 O13         30.5818  37.7394  35.4660 O.2            1 <1>                0.0000
     14 H14         28.2858  35.2482  41.6812 H              1 <1>                0.0000
     15 H15         25.9494  35.9249  41.7660 H              1 <1>                0.0000
     16 H16         24.9274  37.1711  39.9106 H              1 <1>                0.0000
     17 H17         26.2329  37.7620  37.9387 H              1 <1>                0.0000
     18 H18         28.4006  37.7111  36.7150 H              1 <1>                0.0000
     19 H19         32.0366  36.7249  36.3615 H              1 <1>                0.0000
     20 H20         32.1080  34.7416  38.9165 H              1 <1>                0.0000
@<TRIPOS>BOND
    1    1    2 1     
    2    1   20 1     
    3    2    3 ar    
    4    2   11 ar    
    5    3    4 ar    
    6    4    5 ar    
    7    4    9 ar    
    8    5    6 ar    
    9    5   14 1     
   10    6    7 ar    
   11    6   15 1     
   12    7    8 ar    
   13    7   16 1     
   14    8    9 ar    
   15    8   17 1     
   16    9   10 ar    
   17   10   11 ar    
   18   10   18 1     
   19   11   12 1     
   20   12   13 2     
   21   12   19 1     
@<TRIPOS>SUBSTRUCTURE
      1 ****           1
@<TRIPOS>SET
DONOR_HYDROGENS      STATIC     ATOMS    <user>   **** ""
1 20
ATOM$RED        STATIC     ATOMS    COLORGROUP SYSTEM
1 20
@<TRIPOS>COMMENT
> <Gold.Version>
2022.2.0

> <Gold.Id.Protein>
1qkm|1qkm_protein|mol2

> <Gold.Protein.RotatedTorsions>
[  496  491  490  487 ] final -154.25 input  -89.99 | X-H torsion

> <Gold.Protein.ActiveResidues>
 MET295  LEU298  THR299  LEU301  ALA302  GLU305  TRP335  MET336  LEU339  MET340 
 GLY342  LEU343  ARG346  PHE356  ILE373  ILE376  PHE377  LEU380  LYS471  GLY472 
 MET473  HIS475  LEU476  LEU477  ASN478  MET479  VAL484  VAL487 

> <Gold.Protein.RotatedAtoms>
   37.2517   33.8533   40.7301 H   0  0  0  0  0  0  0  0  0  0  0  0  # atno 496  bound_to 491 

> <Gold.Score>
     Score     S(PLP)   S(hbond)     S(cho)   S(metal)  DE(clash)   DE(tors)     intcor
     40.07     -40.07       0.00       0.00       0.00       0.00       0.00       0.00

> <Gold.PLP.Fitness>
40.0696

> <Gold.PLP.PLP>
-40.0734

> <Gold.PLP.part.hbond>
0.0000

> <Gold.PLP.part.metal>
0.0000

> <Gold.PLP.part.buried>
-3.8417

> <Gold.PLP.part.nonpolar>
-37.1081

> <Gold.PLP.part.repulsive>
0.1521

> <Gold.PLP.ligand.clash>
0.0000

> <Gold.PLP.ligand.torsion>
0.0019

> <Gold.PLP.Chemscore.Hbond>
0.0000

> <Gold.PLP.Chemscore.CHOScore>
0.0000

> <Gold.PLP.Chemscore.Metal>
0.0000

> <Gold.PLP.Chemscore.Internal.Correction>
0.0000

