#       Name:                EN300-07553_i001
#       Creating user name   aseyller
#       Creation time:       Fri Apr 21 16:30:32 2023


#       File generated by GOLD software.
#

@<TRIPOS>MOLECULE
EN300-07553_i001|benzaldehydes|mol2|29|dock9
    20    21     1
SMALL
USER_CHARGES


@<TRIPOS>ATOM
      1 O1          28.8538  35.5034  42.1993 O.3            1 <1>                0.0000
      2 C2          28.6114  36.1271  41.0224 C.ar           1 <1>                0.0000
      3 N3          29.6147  36.3989  40.2197 N.ar           1 <1>                0.0000
      4 C4          29.4293  37.0133  39.0451 C.ar           1 <1>                0.0000
      5 C5          30.5181  37.2935  38.2023 C.ar           1 <1>                0.0000
      6 C6          30.3093  37.9190  37.0110 C.ar           1 <1>                0.0000
      7 C7          29.0280  38.2899  36.6081 C.ar           1 <1>                0.0000
      8 C8          27.9478  38.0358  37.3967 C.ar           1 <1>                0.0000
      9 C9          28.1259  37.3910  38.6332 C.ar           1 <1>                0.0000
     10 C10         27.0329  37.1134  39.4707 C.ar           1 <1>                0.0000
     11 C11         27.2816  36.4676  40.6792 C.ar           1 <1>                0.0000
     12 C12         26.1763  36.1525  41.5926 C.2            1 <1>                0.0000
     13 O13         25.1717  36.8324  41.5862 O.2            1 <1>                0.0000
     14 H14         31.5182  37.0139  38.4988 H              1 <1>                0.0000
     15 H15         31.1506  38.1313  36.3680 H              1 <1>                0.0000
     16 H16         28.8903  38.7855  35.6585 H              1 <1>                0.0000
     17 H17         26.9593  38.3276  37.0739 H              1 <1>                0.0000
     18 H18         26.0290  37.3896  39.1843 H              1 <1>                0.0000
     19 H19         26.2574  35.3156  42.2703 H              1 <1>                0.0000
     20 H20         29.7646  35.1949  42.3007 H              1 <1>                0.0000
@<TRIPOS>BOND
    1    1    2 1     
    2    1   20 1     
    3    2    3 ar    
    4    2   11 ar    
    5    3    4 ar    
    6    4    5 ar    
    7    4    9 ar    
    8    5    6 ar    
    9    5   14 1     
   10    6    7 ar    
   11    6   15 1     
   12    7    8 ar    
   13    7   16 1     
   14    8    9 ar    
   15    8   17 1     
   16    9   10 ar    
   17   10   11 ar    
   18   10   18 1     
   19   11   12 1     
   20   12   13 2     
   21   12   19 1     
@<TRIPOS>SUBSTRUCTURE
      1 ****           1
@<TRIPOS>SET
DONOR_HYDROGENS      STATIC     ATOMS    <user>   **** ""
1 20
ATOM$RED        STATIC     ATOMS    COLORGROUP SYSTEM
1 20
@<TRIPOS>COMMENT
> <Gold.Version>
2022.2.0

> <Gold.Id.Protein>
1qkm|1qkm_protein|mol2

> <Gold.Protein.RotatedTorsions>
[  496  491  490  487 ] final  -47.46 input  -89.99 | X-H torsion

> <Gold.Protein.ActiveResidues>
 MET295  LEU298  THR299  LEU301  ALA302  GLU305  TRP335  MET336  LEU339  MET340 
 GLY342  LEU343  ARG346  PHE356  ILE373  ILE376  PHE377  LEU380  LYS471  GLY472 
 MET473  HIS475  LEU476  LEU477  ASN478  MET479  VAL484  VAL487 

> <Gold.Protein.RotatedAtoms>
   36.4079   34.6929   41.6662 H   0  0  0  0  0  0  0  0  0  0  0  0  # atno 496  bound_to 491 

> <Gold.Score>
     Score     S(PLP)   S(hbond)     S(cho)   S(metal)  DE(clash)   DE(tors)     intcor
     41.44     -37.92       1.28       0.00       0.00       0.00       0.16       0.00

> <Gold.PLP.Fitness>
41.4444

> <Gold.PLP.PLP>
-37.9196

> <Gold.PLP.part.hbond>
-3.0221

> <Gold.PLP.part.metal>
0.0000

> <Gold.PLP.part.buried>
-1.1605

> <Gold.PLP.part.nonpolar>
-35.0533

> <Gold.PLP.part.repulsive>
0.3613

> <Gold.PLP.ligand.clash>
0.0000

> <Gold.PLP.ligand.torsion>
0.1593

> <Gold.PLP.Chemscore.Hbond>
1.2812

> <Gold.PLP.Chemscore.CHOScore>
0.0000

> <Gold.PLP.Chemscore.Metal>
0.0000

> <Gold.Chemscore.Hbonds>
donor molecule, donor type, donor heavy atom, donor atom, acceptor molecule, acceptor atom, score
      L1  H     1    20       P1   470  0.96
      P1  H  1258  1270       L1    13  0.32

> <Gold.PLP.Chemscore.Internal.Correction>
0.0000

