#       Name:                EN300-07553_i001
#       Creating user name   aseyller
#       Creation time:       Fri Apr 21 16:30:35 2023


#       File generated by GOLD software.
#

@<TRIPOS>MOLECULE
EN300-07553_i001|benzaldehydes|mol2|29|dock16
    20    21     1
SMALL
USER_CHARGES


@<TRIPOS>ATOM
      1 O1          28.0429  37.8954  37.9152 O.3            1 <1>                0.0000
      2 C2          29.2780  37.4926  37.5347 C.ar           1 <1>                0.0000
      3 N3          29.7557  37.8884  36.3771 N.ar           1 <1>                0.0000
      4 C4          30.9708  37.5194  35.9541 C.ar           1 <1>                0.0000
      5 C5          31.4612  37.9558  34.7118 C.ar           1 <1>                0.0000
      6 C6          32.7000  37.5698  34.2990 C.ar           1 <1>                0.0000
      7 C7          33.4969  36.7443  35.0895 C.ar           1 <1>                0.0000
      8 C8          33.0573  36.3008  36.2992 C.ar           1 <1>                0.0000
      9 C9          31.7835  36.6797  36.7576 C.ar           1 <1>                0.0000
     10 C10         31.2995  36.2402  38.0010 C.ar           1 <1>                0.0000
     11 C11         30.0309  36.6584  38.3946 C.ar           1 <1>                0.0000
     12 C12         29.4760  36.2296  39.6844 C.2            1 <1>                0.0000
     13 O13         28.3286  36.4995  39.9708 O.2            1 <1>                0.0000
     14 H14         30.8569  38.5954  34.0856 H              1 <1>                0.0000
     15 H15         33.0709  37.9090  33.3431 H              1 <1>                0.0000
     16 H16         34.4755  36.4525  34.7380 H              1 <1>                0.0000
     17 H17         33.6839  35.6615  36.9035 H              1 <1>                0.0000
     18 H18         31.8951  35.5997  38.6343 H              1 <1>                0.0000
     19 H19         30.0893  35.6740  40.3783 H              1 <1>                0.0000
     20 H20         27.3843  37.8662  37.2077 H              1 <1>                0.0000
@<TRIPOS>BOND
    1    1    2 1     
    2    1   20 1     
    3    2    3 ar    
    4    2   11 ar    
    5    3    4 ar    
    6    4    5 ar    
    7    4    9 ar    
    8    5    6 ar    
    9    5   14 1     
   10    6    7 ar    
   11    6   15 1     
   12    7    8 ar    
   13    7   16 1     
   14    8    9 ar    
   15    8   17 1     
   16    9   10 ar    
   17   10   11 ar    
   18   10   18 1     
   19   11   12 1     
   20   12   13 2     
   21   12   19 1     
@<TRIPOS>SUBSTRUCTURE
      1 ****           1
@<TRIPOS>SET
DONOR_HYDROGENS      STATIC     ATOMS    <user>   **** ""
1 20
ATOM$RED        STATIC     ATOMS    COLORGROUP SYSTEM
1 20
@<TRIPOS>COMMENT
> <Gold.Version>
2022.2.0

> <Gold.Id.Protein>
1qkm|1qkm_protein|mol2

> <Gold.Protein.RotatedTorsions>
[  496  491  490  487 ] final  -87.63 input  -89.99 | X-H torsion

> <Gold.Protein.ActiveResidues>
 MET295  LEU298  THR299  LEU301  ALA302  GLU305  TRP335  MET336  LEU339  MET340 
 GLY342  LEU343  ARG346  PHE356  ILE373  ILE376  PHE377  LEU380  LYS471  GLY472 
 MET473  HIS475  LEU476  LEU477  ASN478  MET479  VAL484  VAL487 

> <Gold.Protein.RotatedAtoms>
   36.7355   34.6682   41.1079 H   0  0  0  0  0  0  0  0  0  0  0  0  # atno 496  bound_to 491 

> <Gold.Score>
     Score     S(PLP)   S(hbond)     S(cho)   S(metal)  DE(clash)   DE(tors)     intcor
     39.85     -39.86       0.00       0.00       0.00       0.00       0.01       0.00

> <Gold.PLP.Fitness>
39.8469

> <Gold.PLP.PLP>
-39.8641

> <Gold.PLP.part.hbond>
0.0000

> <Gold.PLP.part.metal>
0.0000

> <Gold.PLP.part.buried>
-2.4530

> <Gold.PLP.part.nonpolar>
-37.1295

> <Gold.PLP.part.repulsive>
0.0400

> <Gold.PLP.ligand.clash>
0.0000

> <Gold.PLP.ligand.torsion>
0.0086

> <Gold.PLP.Chemscore.Hbond>
0.0000

> <Gold.PLP.Chemscore.CHOScore>
0.0000

> <Gold.PLP.Chemscore.Metal>
0.0000

> <Gold.PLP.Chemscore.Internal.Correction>
0.0000

