#       Name:                EN300-07553_i001
#       Creating user name   aseyller
#       Creation time:       Fri Apr 21 16:30:34 2023


#       File generated by GOLD software.
#

@<TRIPOS>MOLECULE
EN300-07553_i001|benzaldehydes|mol2|29|dock14
    20    21     1
SMALL
USER_CHARGES


@<TRIPOS>ATOM
      1 O1          31.2709  37.5163  36.2073 O.3            1 <1>                0.0000
      2 C2          30.4808  37.0574  37.2063 C.ar           1 <1>                0.0000
      3 N3          29.2195  37.4210  37.2477 N.ar           1 <1>                0.0000
      4 C4          28.3959  36.9954  38.2132 C.ar           1 <1>                0.0000
      5 C5          27.0498  37.3973  38.2368 C.ar           1 <1>                0.0000
      6 C6          26.2275  36.9535  39.2272 C.ar           1 <1>                0.0000
      7 C7          26.6979  36.1027  40.2255 C.ar           1 <1>                0.0000
      8 C8          27.9954  35.6910  40.2371 C.ar           1 <1>                0.0000
      9 C9          28.8729  36.1291  39.2297 C.ar           1 <1>                0.0000
     10 C10         30.2174  35.7230  39.2118 C.ar           1 <1>                0.0000
     11 C11         31.0290  36.1911  38.1815 C.ar           1 <1>                0.0000
     12 C12         32.4418  35.7979  38.1137 C.2            1 <1>                0.0000
     13 O13         33.1171  36.1242  37.1603 O.2            1 <1>                0.0000
     14 H14         26.6683  38.0569  37.4715 H              1 <1>                0.0000
     15 H15         25.1939  37.2662  39.2393 H              1 <1>                0.0000
     16 H16         26.0246  35.7660  40.9999 H              1 <1>                0.0000
     17 H17         28.3488  35.0313  41.0157 H              1 <1>                0.0000
     18 H18         30.6093  35.0644  39.9727 H              1 <1>                0.0000
     19 H19         32.8800  35.2182  38.9126 H              1 <1>                0.0000
     20 H20         30.7985  37.6940  35.3824 H              1 <1>                0.0000
@<TRIPOS>BOND
    1    1    2 1     
    2    1   20 1     
    3    2    3 ar    
    4    2   11 ar    
    5    3    4 ar    
    6    4    5 ar    
    7    4    9 ar    
    8    5    6 ar    
    9    5   14 1     
   10    6    7 ar    
   11    6   15 1     
   12    7    8 ar    
   13    7   16 1     
   14    8    9 ar    
   15    8   17 1     
   16    9   10 ar    
   17   10   11 ar    
   18   10   18 1     
   19   11   12 1     
   20   12   13 2     
   21   12   19 1     
@<TRIPOS>SUBSTRUCTURE
      1 ****           1
@<TRIPOS>SET
DONOR_HYDROGENS      STATIC     ATOMS    <user>   **** ""
1 20
ATOM$RED        STATIC     ATOMS    COLORGROUP SYSTEM
1 20
@<TRIPOS>COMMENT
> <Gold.Version>
2022.2.0

> <Gold.Id.Protein>
1qkm|1qkm_protein|mol2

> <Gold.Protein.RotatedTorsions>
[  496  491  490  487 ] final   10.48 input  -89.99 | X-H torsion

> <Gold.Protein.ActiveResidues>
 MET295  LEU298  THR299  LEU301  ALA302  GLU305  TRP335  MET336  LEU339  MET340 
 GLY342  LEU343  ARG346  PHE356  ILE373  ILE376  PHE377  LEU380  LYS471  GLY472 
 MET473  HIS475  LEU476  LEU477  ASN478  MET479  VAL484  VAL487 

> <Gold.Protein.RotatedAtoms>
   36.2743   34.0590   42.3105 H   0  0  0  0  0  0  0  0  0  0  0  0  # atno 496  bound_to 491 

> <Gold.Score>
     Score     S(PLP)   S(hbond)     S(cho)   S(metal)  DE(clash)   DE(tors)     intcor
     40.83     -40.85       0.00       0.00       0.00       0.00       0.01       0.00

> <Gold.PLP.Fitness>
40.8305

> <Gold.PLP.PLP>
-40.8466

> <Gold.PLP.part.hbond>
0.0000

> <Gold.PLP.part.metal>
0.0000

> <Gold.PLP.part.buried>
-4.0477

> <Gold.PLP.part.nonpolar>
-37.5734

> <Gold.PLP.part.repulsive>
0.0000

> <Gold.PLP.ligand.clash>
0.0000

> <Gold.PLP.ligand.torsion>
0.0080

> <Gold.PLP.Chemscore.Hbond>
0.0000

> <Gold.PLP.Chemscore.CHOScore>
0.0000

> <Gold.PLP.Chemscore.Metal>
0.0000

> <Gold.PLP.Chemscore.Internal.Correction>
0.0000

