#       Name:                EN300-07553_i001
#       Creating user name   aseyller
#       Creation time:       Fri Apr 21 16:30:31 2023


#       File generated by GOLD software.
#

@<TRIPOS>MOLECULE
EN300-07553_i001|benzaldehydes|mol2|29|dock6
    20    21     1
SMALL
USER_CHARGES


@<TRIPOS>ATOM
      1 O1          33.3003  36.7003  34.0010 O.3            1 <1>                0.0000
      2 C2          32.5945  36.5634  35.1481 C.ar           1 <1>                0.0000
      3 N3          32.7219  35.4636  35.8546 N.ar           1 <1>                0.0000
      4 C4          32.0474  35.2784  36.9958 C.ar           1 <1>                0.0000
      5 C5          32.2002  34.0935  37.7353 C.ar           1 <1>                0.0000
      6 C6          31.5056  33.9238  38.8941 C.ar           1 <1>                0.0000
      7 C7          30.6396  34.9088  39.3646 C.ar           1 <1>                0.0000
      8 C8          30.4647  36.0705  38.6767 C.ar           1 <1>                0.0000
      9 C9          31.1660  36.2801  37.4764 C.ar           1 <1>                0.0000
     10 C10         31.0091  37.4674  36.7423 C.ar           1 <1>                0.0000
     11 C11         31.7388  37.6104  35.5648 C.ar           1 <1>                0.0000
     12 C12         31.6136  38.8309  34.7587 C.2            1 <1>                0.0000
     13 O13         30.9023  39.7376  35.1375 O.2            1 <1>                0.0000
     14 H14         32.8665  33.3190  37.3853 H              1 <1>                0.0000
     15 H15         31.6277  33.0106  39.4576 H              1 <1>                0.0000
     16 H16         30.1002  34.7484  40.2863 H              1 <1>                0.0000
     17 H17         29.7910  36.8270  39.0512 H              1 <1>                0.0000
     18 H18         30.3447  38.2477  37.0828 H              1 <1>                0.0000
     19 H19         32.1546  38.9216  33.8284 H              1 <1>                0.0000
     20 H20         32.8345  36.3885  33.2130 H              1 <1>                0.0000
@<TRIPOS>BOND
    1    1    2 1     
    2    1   20 1     
    3    2    3 ar    
    4    2   11 ar    
    5    3    4 ar    
    6    4    5 ar    
    7    4    9 ar    
    8    5    6 ar    
    9    5   14 1     
   10    6    7 ar    
   11    6   15 1     
   12    7    8 ar    
   13    7   16 1     
   14    8    9 ar    
   15    8   17 1     
   16    9   10 ar    
   17   10   11 ar    
   18   10   18 1     
   19   11   12 1     
   20   12   13 2     
   21   12   19 1     
@<TRIPOS>SUBSTRUCTURE
      1 ****           1
@<TRIPOS>SET
DONOR_HYDROGENS      STATIC     ATOMS    <user>   **** ""
1 20
ATOM$RED        STATIC     ATOMS    COLORGROUP SYSTEM
1 20
@<TRIPOS>COMMENT
> <Gold.Version>
2022.2.0

> <Gold.Id.Protein>
1qkm|1qkm_protein|mol2

> <Gold.Protein.RotatedTorsions>
[  496  491  490  487 ] final   25.90 input  -89.99 | X-H torsion

> <Gold.Protein.ActiveResidues>
 MET295  LEU298  THR299  LEU301  ALA302  GLU305  TRP335  MET336  LEU339  MET340 
 GLY342  LEU343  ARG346  PHE356  ILE373  ILE376  PHE377  LEU380  LYS471  GLY472 
 MET473  HIS475  LEU476  LEU477  ASN478  MET479  VAL484  VAL487 

> <Gold.Protein.RotatedAtoms>
   36.3266   33.8196   42.3737 H   0  0  0  0  0  0  0  0  0  0  0  0  # atno 496  bound_to 491 

> <Gold.Score>
     Score     S(PLP)   S(hbond)     S(cho)   S(metal)  DE(clash)   DE(tors)     intcor
     42.67     -39.67       1.00       0.00       0.00       0.00       0.00       0.00

> <Gold.PLP.Fitness>
42.6731

> <Gold.PLP.PLP>
-39.6749

> <Gold.PLP.part.hbond>
-2.6083

> <Gold.PLP.part.metal>
0.0000

> <Gold.PLP.part.buried>
-1.2737

> <Gold.PLP.part.nonpolar>
-35.8154

> <Gold.PLP.part.repulsive>
0.0540

> <Gold.PLP.ligand.clash>
0.0000

> <Gold.PLP.ligand.torsion>
0.0009

> <Gold.PLP.Chemscore.Hbond>
1.0000

> <Gold.PLP.Chemscore.CHOScore>
0.0000

> <Gold.PLP.Chemscore.Metal>
0.0000

> <Gold.Chemscore.Hbonds>
donor molecule, donor type, donor heavy atom, donor atom, acceptor molecule, acceptor atom, score
      L1  H     1    20       P1  3187  1.00

> <Gold.PLP.Chemscore.Internal.Correction>
0.0000

