#       Name:                EN300-07553_i001
#       Creating user name   aseyller
#       Creation time:       Fri Apr 21 16:30:29 2023


#       File generated by GOLD software.
#

@<TRIPOS>MOLECULE
EN300-07553_i001|benzaldehydes|mol2|29|dock3
    20    21     1
SMALL
USER_CHARGES


@<TRIPOS>ATOM
      1 O1          31.3786  35.1451  39.2478 O.3            1 <1>                0.0000
      2 C2          30.1897  35.7777  39.1091 C.ar           1 <1>                0.0000
      3 N3          29.2207  35.5195  39.9572 N.ar           1 <1>                0.0000
      4 C4          28.0270  36.1177  39.8648 C.ar           1 <1>                0.0000
      5 C5          27.0052  35.8259  40.7841 C.ar           1 <1>                0.0000
      6 C6          25.7975  36.4451  40.6738 C.ar           1 <1>                0.0000
      7 C7          25.5526  37.3687  39.6597 C.ar           1 <1>                0.0000
      8 C8          26.5169  37.6780  38.7499 C.ar           1 <1>                0.0000
      9 C9          27.7761  37.0584  38.8336 C.ar           1 <1>                0.0000
     10 C10         28.7934  37.3551  37.9116 C.ar           1 <1>                0.0000
     11 C11         30.0180  36.7080  38.0570 C.ar           1 <1>                0.0000
     12 C12         31.1163  36.9808  37.1218 C.2            1 <1>                0.0000
     13 O13         32.1224  36.3041  37.1540 O.2            1 <1>                0.0000
     14 H14         27.1771  35.1121  41.5761 H              1 <1>                0.0000
     15 H15         25.0165  36.2162  41.3838 H              1 <1>                0.0000
     16 H16         24.5855  37.8449  39.5945 H              1 <1>                0.0000
     17 H17         26.3159  38.3957  37.9683 H              1 <1>                0.0000
     18 H18         28.6317  38.0665  37.1153 H              1 <1>                0.0000
     19 H19         31.0285  37.7840  36.4052 H              1 <1>                0.0000
     20 H20         31.5333  34.7882  40.1331 H              1 <1>                0.0000
@<TRIPOS>BOND
    1    1    2 1     
    2    1   20 1     
    3    2    3 ar    
    4    2   11 ar    
    5    3    4 ar    
    6    4    5 ar    
    7    4    9 ar    
    8    5    6 ar    
    9    5   14 1     
   10    6    7 ar    
   11    6   15 1     
   12    7    8 ar    
   13    7   16 1     
   14    8    9 ar    
   15    8   17 1     
   16    9   10 ar    
   17   10   11 ar    
   18   10   18 1     
   19   11   12 1     
   20   12   13 2     
   21   12   19 1     
@<TRIPOS>SUBSTRUCTURE
      1 ****           1
@<TRIPOS>SET
DONOR_HYDROGENS      STATIC     ATOMS    <user>   **** ""
1 20
ATOM$RED        STATIC     ATOMS    COLORGROUP SYSTEM
1 20
@<TRIPOS>COMMENT
> <Gold.Version>
2022.2.0

> <Gold.Id.Protein>
1qkm|1qkm_protein|mol2

> <Gold.Protein.RotatedTorsions>
[  496  491  490  487 ] final  -67.08 input  -89.99 | X-H torsion

> <Gold.Protein.ActiveResidues>
 MET295  LEU298  THR299  LEU301  ALA302  GLU305  TRP335  MET336  LEU339  MET340 
 GLY342  LEU343  ARG346  PHE356  ILE373  ILE376  PHE377  LEU380  LYS471  GLY472 
 MET473  HIS475  LEU476  LEU477  ASN478  MET479  VAL484  VAL487 

> <Gold.Protein.RotatedAtoms>
   36.5538   34.7353   41.3830 H   0  0  0  0  0  0  0  0  0  0  0  0  # atno 496  bound_to 491 

> <Gold.Score>
     Score     S(PLP)   S(hbond)     S(cho)   S(metal)  DE(clash)   DE(tors)     intcor
     44.06     -41.42       0.89       0.00       0.00       0.00       0.02       0.00

> <Gold.PLP.Fitness>
44.0616

> <Gold.PLP.PLP>
-41.4156

> <Gold.PLP.part.hbond>
-1.0000

> <Gold.PLP.part.metal>
0.0000

> <Gold.PLP.part.buried>
-3.4087

> <Gold.PLP.part.nonpolar>
-37.3359

> <Gold.PLP.part.repulsive>
0.0861

> <Gold.PLP.ligand.clash>
0.0000

> <Gold.PLP.ligand.torsion>
0.0162

> <Gold.PLP.Chemscore.Hbond>
0.8928

> <Gold.PLP.Chemscore.CHOScore>
0.0000

> <Gold.PLP.Chemscore.Metal>
0.0000

> <Gold.Chemscore.Hbonds>
donor molecule, donor type, donor heavy atom, donor atom, acceptor molecule, acceptor atom, score
      L1  H     1    20       P1   470  0.89

> <Gold.PLP.Chemscore.Internal.Correction>
0.0001

