#       Name:                EN300-07553_i001
#       Creating user name   aseyller
#       Creation time:       Fri Apr 21 16:30:36 2023


#       File generated by GOLD software.
#

@<TRIPOS>MOLECULE
EN300-07553_i001|benzaldehydes|mol2|29|dock17
    20    21     1
SMALL
USER_CHARGES


@<TRIPOS>ATOM
      1 O1          31.4666  37.9863  36.9557 O.3            1 <1>                0.0000
      2 C2          30.1941  37.8432  37.3950 C.ar           1 <1>                0.0000
      3 N3          29.9285  36.9457  38.3163 N.ar           1 <1>                0.0000
      4 C4          28.6879  36.7646  38.7851 C.ar           1 <1>                0.0000
      5 C5          28.4277  35.7984  39.7715 C.ar           1 <1>                0.0000
      6 C6          27.1590  35.6292  40.2360 C.ar           1 <1>                0.0000
      7 C7          26.1057  36.4003  39.7487 C.ar           1 <1>                0.0000
      8 C8          26.3175  37.3464  38.7931 C.ar           1 <1>                0.0000
      9 C9          27.6148  37.5489  38.2906 C.ar           1 <1>                0.0000
     10 C10         27.8681  38.5169  37.3048 C.ar           1 <1>                0.0000
     11 C11         29.1779  38.6675  36.8564 C.ar           1 <1>                0.0000
     12 C12         29.4994  39.6644  35.8278 C.2            1 <1>                0.0000
     13 O13         30.5939  40.1869  35.8107 O.2            1 <1>                0.0000
     14 H14         29.2318  35.1912  40.1601 H              1 <1>                0.0000
     15 H15         26.9659  34.8848  40.9943 H              1 <1>                0.0000
     16 H16         25.1087  36.2451  40.1339 H              1 <1>                0.0000
     17 H17         25.4934  37.9384  38.4231 H              1 <1>                0.0000
     18 H18         27.0711  39.1286  36.9087 H              1 <1>                0.0000
     19 H19         28.7614  39.9328  35.0864 H              1 <1>                0.0000
     20 H20         31.7692  38.9040  36.9192 H              1 <1>                0.0000
@<TRIPOS>BOND
    1    1    2 1     
    2    1   20 1     
    3    2    3 ar    
    4    2   11 ar    
    5    3    4 ar    
    6    4    5 ar    
    7    4    9 ar    
    8    5    6 ar    
    9    5   14 1     
   10    6    7 ar    
   11    6   15 1     
   12    7    8 ar    
   13    7   16 1     
   14    8    9 ar    
   15    8   17 1     
   16    9   10 ar    
   17   10   11 ar    
   18   10   18 1     
   19   11   12 1     
   20   12   13 2     
   21   12   19 1     
@<TRIPOS>SUBSTRUCTURE
      1 ****           1
@<TRIPOS>SET
DONOR_HYDROGENS      STATIC     ATOMS    <user>   **** ""
1 20
ATOM$RED        STATIC     ATOMS    COLORGROUP SYSTEM
1 20
@<TRIPOS>COMMENT
> <Gold.Version>
2022.2.0

> <Gold.Id.Protein>
1qkm|1qkm_protein|mol2

> <Gold.Protein.RotatedTorsions>
[  496  491  490  487 ] final -173.20 input  -89.99 | X-H torsion

> <Gold.Protein.ActiveResidues>
 MET295  LEU298  THR299  LEU301  ALA302  GLU305  TRP335  MET336  LEU339  MET340 
 GLY342  LEU343  ARG346  PHE356  ILE373  ILE376  PHE377  LEU380  LYS471  GLY472 
 MET473  HIS475  LEU476  LEU477  ASN478  MET479  VAL484  VAL487 

> <Gold.Protein.RotatedAtoms>
   37.3104   33.5609   40.8163 H   0  0  0  0  0  0  0  0  0  0  0  0  # atno 496  bound_to 491 

> <Gold.Score>
     Score     S(PLP)   S(hbond)     S(cho)   S(metal)  DE(clash)   DE(tors)     intcor
     39.14     -39.52       0.00       0.00       0.00       0.00       0.19       0.00

> <Gold.PLP.Fitness>
39.1410

> <Gold.PLP.PLP>
-39.5215

> <Gold.PLP.part.hbond>
0.0000

> <Gold.PLP.part.metal>
0.0000

> <Gold.PLP.part.buried>
-3.3145

> <Gold.PLP.part.nonpolar>
-36.5877

> <Gold.PLP.part.repulsive>
0.0194

> <Gold.PLP.ligand.clash>
0.0000

> <Gold.PLP.ligand.torsion>
0.1903

> <Gold.PLP.Chemscore.Hbond>
0.0000

> <Gold.PLP.Chemscore.CHOScore>
0.0000

> <Gold.PLP.Chemscore.Metal>
0.0000

> <Gold.PLP.Chemscore.Internal.Correction>
0.0000

