#       Name:                EN300-07553_i001
#       Creating user name   aseyller
#       Creation time:       Fri Apr 21 16:30:28 2023


#       File generated by GOLD software.
#

@<TRIPOS>MOLECULE
EN300-07553_i001|benzaldehydes|mol2|29|dock1
    20    21     1
SMALL
USER_CHARGES


@<TRIPOS>ATOM
      1 O1          31.5014  34.3718  39.3937 O.3            1 <1>                0.0000
      2 C2          31.3748  35.3411  38.4570 C.ar           1 <1>                0.0000
      3 N3          32.2430  35.4028  37.4735 N.ar           1 <1>                0.0000
      4 C4          32.1625  36.3405  36.5218 C.ar           1 <1>                0.0000
      5 C5          33.1027  36.3866  35.4787 C.ar           1 <1>                0.0000
      6 C6          33.0040  37.3482  34.5197 C.ar           1 <1>                0.0000
      7 C7          31.9819  38.2946  34.5524 C.ar           1 <1>                0.0000
      8 C8          31.0519  38.2830  35.5466 C.ar           1 <1>                0.0000
      9 C9          31.1226  37.3043  36.5534 C.ar           1 <1>                0.0000
     10 C10         30.1790  37.2636  37.5931 C.ar           1 <1>                0.0000
     11 C11         30.3064  36.2636  38.5540 C.ar           1 <1>                0.0000
     12 C12         29.3477  36.1741  39.6622 C.2            1 <1>                0.0000
     13 O13         28.3287  36.8315  39.6373 O.2            1 <1>                0.0000
     14 H14         33.9020  35.6615  35.4378 H              1 <1>                0.0000
     15 H15         33.7299  37.3778  33.7206 H              1 <1>                0.0000
     16 H16         31.9271  39.0470  33.7796 H              1 <1>                0.0000
     17 H17         30.2640  39.0215  35.5616 H              1 <1>                0.0000
     18 H18         29.3765  37.9844  37.6440 H              1 <1>                0.0000
     19 H19         29.5497  35.5229  40.4998 H              1 <1>                0.0000
     20 H20         31.5536  34.7051  40.2999 H              1 <1>                0.0000
@<TRIPOS>BOND
    1    1    2 1     
    2    1   20 1     
    3    2    3 ar    
    4    2   11 ar    
    5    3    4 ar    
    6    4    5 ar    
    7    4    9 ar    
    8    5    6 ar    
    9    5   14 1     
   10    6    7 ar    
   11    6   15 1     
   12    7    8 ar    
   13    7   16 1     
   14    8    9 ar    
   15    8   17 1     
   16    9   10 ar    
   17   10   11 ar    
   18   10   18 1     
   19   11   12 1     
   20   12   13 2     
   21   12   19 1     
@<TRIPOS>SUBSTRUCTURE
      1 ****           1
@<TRIPOS>SET
DONOR_HYDROGENS      STATIC     ATOMS    <user>   **** ""
1 20
ATOM$RED        STATIC     ATOMS    COLORGROUP SYSTEM
1 20
@<TRIPOS>COMMENT
> <Gold.Version>
2022.2.0

> <Gold.Id.Protein>
1qkm|1qkm_protein|mol2

> <Gold.Protein.RotatedTorsions>
[  496  491  490  487 ] final   41.82 input  -89.99 | X-H torsion

> <Gold.Protein.ActiveResidues>
 MET295  LEU298  THR299  LEU301  ALA302  GLU305  TRP335  MET336  LEU339  MET340 
 GLY342  LEU343  ARG346  PHE356  ILE373  ILE376  PHE377  LEU380  LYS471  GLY472 
 MET473  HIS475  LEU476  LEU477  ASN478  MET479  VAL484  VAL487 

> <Gold.Protein.RotatedAtoms>
   36.4155   33.5740   42.3768 H   0  0  0  0  0  0  0  0  0  0  0  0  # atno 496  bound_to 491 

> <Gold.Score>
     Score     S(PLP)   S(hbond)     S(cho)   S(metal)  DE(clash)   DE(tors)     intcor
     43.13     -40.18       1.00       0.00       0.00       0.00       0.03       0.00

> <Gold.PLP.Fitness>
43.1281

> <Gold.PLP.PLP>
-40.1842

> <Gold.PLP.part.hbond>
-1.0000

> <Gold.PLP.part.metal>
0.0000

> <Gold.PLP.part.buried>
-1.9110

> <Gold.PLP.part.nonpolar>
-37.2488

> <Gold.PLP.part.repulsive>
0.0371

> <Gold.PLP.ligand.clash>
0.0000

> <Gold.PLP.ligand.torsion>
0.0281

> <Gold.PLP.Chemscore.Hbond>
1.0000

> <Gold.PLP.Chemscore.CHOScore>
0.0000

> <Gold.PLP.Chemscore.Metal>
0.0000

> <Gold.Chemscore.Hbonds>
donor molecule, donor type, donor heavy atom, donor atom, acceptor molecule, acceptor atom, score
      L1  H     1    20       P1   470  1.00

> <Gold.PLP.Chemscore.Internal.Correction>
0.0001

