#       Name:                EN300-07553_i001
#       Creating user name   aseyller
#       Creation time:       Fri Apr 21 16:30:28 2023


#       File generated by GOLD software.
#

@<TRIPOS>MOLECULE
EN300-07553_i001|benzaldehydes|mol2|29|dock2
    20    21     1
SMALL
USER_CHARGES


@<TRIPOS>ATOM
      1 O1          30.5893  37.1266  36.7403 O.3            1 <1>                0.0000
      2 C2          29.7653  36.8303  37.7727 C.ar           1 <1>                0.0000
      3 N3          28.5427  37.3099  37.7783 N.ar           1 <1>                0.0000
      4 C4          27.6882  37.0468  38.7744 C.ar           1 <1>                0.0000
      5 C5          26.3846  37.5707  38.7586 C.ar           1 <1>                0.0000
      6 C6          25.5298  37.2914  39.7811 C.ar           1 <1>                0.0000
      7 C7          25.9250  36.4909  40.8508 C.ar           1 <1>                0.0000
      8 C8          27.1795  35.9648  40.9024 C.ar           1 <1>                0.0000
      9 C9          28.0886  36.2317  39.8638 C.ar           1 <1>                0.0000
     10 C10         29.3903  35.7043  39.8855 C.ar           1 <1>                0.0000
     11 C11         30.2365  36.0052  38.8212 C.ar           1 <1>                0.0000
     12 C12         31.6071  35.4799  38.7924 C.2            1 <1>                0.0000
     13 O13         32.3760  35.8387  37.9256 O.2            1 <1>                0.0000
     14 H14         26.0614  38.1937  37.9378 H              1 <1>                0.0000
     15 H15         24.5292  37.6973  39.7626 H              1 <1>                0.0000
     16 H16         25.2274  36.2856  41.6493 H              1 <1>                0.0000
     17 H17         27.4747  35.3454  41.7364 H              1 <1>                0.0000
     18 H18         29.7239  35.0811  40.7019 H              1 <1>                0.0000
     19 H19         31.9309  34.7741  39.5429 H              1 <1>                0.0000
     20 H20         31.5162  37.2323  36.9948 H              1 <1>                0.0000
@<TRIPOS>BOND
    1    1    2 1     
    2    1   20 1     
    3    2    3 ar    
    4    2   11 ar    
    5    3    4 ar    
    6    4    5 ar    
    7    4    9 ar    
    8    5    6 ar    
    9    5   14 1     
   10    6    7 ar    
   11    6   15 1     
   12    7    8 ar    
   13    7   16 1     
   14    8    9 ar    
   15    8   17 1     
   16    9   10 ar    
   17   10   11 ar    
   18   10   18 1     
   19   11   12 1     
   20   12   13 2     
   21   12   19 1     
@<TRIPOS>SUBSTRUCTURE
      1 ****           1
@<TRIPOS>SET
DONOR_HYDROGENS      STATIC     ATOMS    <user>   **** ""
1 20
ATOM$RED        STATIC     ATOMS    COLORGROUP SYSTEM
1 20
@<TRIPOS>COMMENT
> <Gold.Version>
2022.2.0

> <Gold.Id.Protein>
1qkm|1qkm_protein|mol2

> <Gold.Protein.RotatedTorsions>
[  496  491  490  487 ] final   96.02 input  -89.99 | X-H torsion

> <Gold.Protein.ActiveResidues>
 MET295  LEU298  THR299  LEU301  ALA302  GLU305  TRP335  MET336  LEU339  MET340 
 GLY342  LEU343  ARG346  PHE356  ILE373  ILE376  PHE377  LEU380  LYS471  GLY472 
 MET473  HIS475  LEU476  LEU477  ASN478  MET479  VAL484  VAL487 

> <Gold.Protein.RotatedAtoms>
   36.8756   32.9870   41.9498 H   0  0  0  0  0  0  0  0  0  0  0  0  # atno 496  bound_to 491 

> <Gold.Score>
     Score     S(PLP)   S(hbond)     S(cho)   S(metal)  DE(clash)   DE(tors)     intcor
     43.48     -43.49       0.00       0.00       0.00       0.00       0.01       0.00

> <Gold.PLP.Fitness>
43.4770

> <Gold.PLP.PLP>
-43.4942

> <Gold.PLP.part.hbond>
0.0000

> <Gold.PLP.part.metal>
0.0000

> <Gold.PLP.part.buried>
-4.0223

> <Gold.PLP.part.nonpolar>
-39.7964

> <Gold.PLP.part.repulsive>
0.0395

> <Gold.PLP.ligand.clash>
0.0000

> <Gold.PLP.ligand.torsion>
0.0086

> <Gold.PLP.Chemscore.Hbond>
0.0000

> <Gold.PLP.Chemscore.CHOScore>
0.0000

> <Gold.PLP.Chemscore.Metal>
0.0000

> <Gold.PLP.Chemscore.Internal.Correction>
0.0001

