#       Name:                EN300-07553_i001
#       Creating user name   aseyller
#       Creation time:       Fri Apr 21 16:30:37 2023


#       File generated by GOLD software.
#

@<TRIPOS>MOLECULE
EN300-07553_i001|benzaldehydes|mol2|29|dock19
    20    21     1
SMALL
USER_CHARGES


@<TRIPOS>ATOM
      1 O1          28.9453  35.5942  41.5404 O.3            1 <1>                0.0000
      2 C2          29.0363  36.1553  40.3118 C.ar           1 <1>                0.0000
      3 N3          30.1962  36.1713  39.6960 N.ar           1 <1>                0.0000
      4 C4          30.3400  36.7130  38.4806 C.ar           1 <1>                0.0000
      5 C5          31.5910  36.7181  37.8408 C.ar           1 <1>                0.0000
      6 C6          31.7172  37.2738  36.6042 C.ar           1 <1>                0.0000
      7 C7          30.6227  37.8421  35.9557 C.ar           1 <1>                0.0000
      8 C8          29.3944  37.8566  36.5425 C.ar           1 <1>                0.0000
      9 C9          29.2269  37.2914  37.8189 C.ar           1 <1>                0.0000
     10 C10         27.9733  37.2892  38.4526 C.ar           1 <1>                0.0000
     11 C11         27.8786  36.7076  39.7144 C.ar           1 <1>                0.0000
     12 C12         26.5927  36.6772  40.4219 C.2            1 <1>                0.0000
     13 O13         25.6063  37.1619  39.9086 O.2            1 <1>                0.0000
     14 H14         32.4504  36.2828  38.3289 H              1 <1>                0.0000
     15 H15         32.6817  37.2743  36.1181 H              1 <1>                0.0000
     16 H16         30.7505  38.2768  34.9753 H              1 <1>                0.0000
     17 H17         28.5531  38.2996  36.0303 H              1 <1>                0.0000
     18 H18         27.1078  37.7227  37.9738 H              1 <1>                0.0000
     19 H19         26.5247  36.2232  41.3995 H              1 <1>                0.0000
     20 H20         29.7996  35.3763  41.9375 H              1 <1>                0.0000
@<TRIPOS>BOND
    1    1    2 1     
    2    1   20 1     
    3    2    3 ar    
    4    2   11 ar    
    5    3    4 ar    
    6    4    5 ar    
    7    4    9 ar    
    8    5    6 ar    
    9    5   14 1     
   10    6    7 ar    
   11    6   15 1     
   12    7    8 ar    
   13    7   16 1     
   14    8    9 ar    
   15    8   17 1     
   16    9   10 ar    
   17   10   11 ar    
   18   10   18 1     
   19   11   12 1     
   20   12   13 2     
   21   12   19 1     
@<TRIPOS>SUBSTRUCTURE
      1 ****           1
@<TRIPOS>SET
DONOR_HYDROGENS      STATIC     ATOMS    <user>   **** ""
1 20
ATOM$RED        STATIC     ATOMS    COLORGROUP SYSTEM
1 20
@<TRIPOS>COMMENT
> <Gold.Version>
2022.2.0

> <Gold.Id.Protein>
1qkm|1qkm_protein|mol2

> <Gold.Protein.RotatedTorsions>
[  496  491  490  487 ] final   67.85 input  -89.99 | X-H torsion

> <Gold.Protein.ActiveResidues>
 MET295  LEU298  THR299  LEU301  ALA302  GLU305  TRP335  MET336  LEU339  MET340 
 GLY342  LEU343  ARG346  PHE356  ILE373  ILE376  PHE377  LEU380  LYS471  GLY472 
 MET473  HIS475  LEU476  LEU477  ASN478  MET479  VAL484  VAL487 

> <Gold.Protein.RotatedAtoms>
   36.6184   33.2239   42.2474 H   0  0  0  0  0  0  0  0  0  0  0  0  # atno 496  bound_to 491 

> <Gold.Score>
     Score     S(PLP)   S(hbond)     S(cho)   S(metal)  DE(clash)   DE(tors)     intcor
     39.47     -36.47       1.00       0.00       0.00       0.00       0.00       0.00

> <Gold.PLP.Fitness>
39.4684

> <Gold.PLP.PLP>
-36.4685

> <Gold.PLP.part.hbond>
-1.0000

> <Gold.PLP.part.metal>
0.0000

> <Gold.PLP.part.buried>
-4.5823

> <Gold.PLP.part.nonpolar>
-31.7581

> <Gold.PLP.part.repulsive>
0.6082

> <Gold.PLP.ligand.clash>
0.0000

> <Gold.PLP.ligand.torsion>
0.0001

> <Gold.PLP.Chemscore.Hbond>
1.0000

> <Gold.PLP.Chemscore.CHOScore>
0.0000

> <Gold.PLP.Chemscore.Metal>
0.0000

> <Gold.Chemscore.Hbonds>
donor molecule, donor type, donor heavy atom, donor atom, acceptor molecule, acceptor atom, score
      L1  H     1    20       P1   470  1.00

> <Gold.PLP.Chemscore.Internal.Correction>
0.0000

