#       Name:                EN300-07553_i001
#       Creating user name   aseyller
#       Creation time:       Fri Apr 21 16:30:31 2023


#       File generated by GOLD software.
#

@<TRIPOS>MOLECULE
EN300-07553_i001|benzaldehydes|mol2|29|dock8
    20    21     1
SMALL
USER_CHARGES


@<TRIPOS>ATOM
      1 O1          30.3092  35.5103  39.8065 O.3            1 <1>                0.0000
      2 C2          30.5832  36.0957  38.6170 C.ar           1 <1>                0.0000
      3 N3          31.7320  35.8516  38.0292 N.ar           1 <1>                0.0000
      4 C4          32.0518  36.4041  36.8528 C.ar           1 <1>                0.0000
      5 C5          33.2868  36.1278  36.2425 C.ar           1 <1>                0.0000
      6 C6          33.5938  36.6994  35.0453 C.ar           1 <1>                0.0000
      7 C7          32.7013  37.5595  34.4089 C.ar           1 <1>                0.0000
      8 C8          31.4950  37.8518  34.9681 C.ar           1 <1>                0.0000
      9 C9          31.1443  37.2794  36.2033 C.ar           1 <1>                0.0000
     10 C10         29.9076  37.5594  36.8078 C.ar           1 <1>                0.0000
     11 C11         29.6237  36.9535  38.0291 C.ar           1 <1>                0.0000
     12 C12         28.3460  37.2104  38.7048 C.2            1 <1>                0.0000
     13 O13         27.3890  37.5952  38.0664 O.2            1 <1>                0.0000
     14 H14         33.9911  35.4641  36.7218 H              1 <1>                0.0000
     15 H15         34.5449  36.4827  34.5817 H              1 <1>                0.0000
     16 H16         32.9700  38.0000  33.4601 H              1 <1>                0.0000
     17 H17         30.8111  38.5197  34.4655 H              1 <1>                0.0000
     18 H18         29.1966  38.2224  36.3375 H              1 <1>                0.0000
     19 H19         28.2579  37.0570  39.7702 H              1 <1>                0.0000
     20 H20         31.0842  35.3855  40.3712 H              1 <1>                0.0000
@<TRIPOS>BOND
    1    1    2 1     
    2    1   20 1     
    3    2    3 ar    
    4    2   11 ar    
    5    3    4 ar    
    6    4    5 ar    
    7    4    9 ar    
    8    5    6 ar    
    9    5   14 1     
   10    6    7 ar    
   11    6   15 1     
   12    7    8 ar    
   13    7   16 1     
   14    8    9 ar    
   15    8   17 1     
   16    9   10 ar    
   17   10   11 ar    
   18   10   18 1     
   19   11   12 1     
   20   12   13 2     
   21   12   19 1     
@<TRIPOS>SUBSTRUCTURE
      1 ****           1
@<TRIPOS>SET
DONOR_HYDROGENS      STATIC     ATOMS    <user>   **** ""
1 20
ATOM$RED        STATIC     ATOMS    COLORGROUP SYSTEM
1 20
@<TRIPOS>COMMENT
> <Gold.Version>
2022.2.0

> <Gold.Id.Protein>
1qkm|1qkm_protein|mol2

> <Gold.Protein.RotatedTorsions>
[  496  491  490  487 ] final  -59.52 input  -89.99 | X-H torsion

> <Gold.Protein.ActiveResidues>
 MET295  LEU298  THR299  LEU301  ALA302  GLU305  TRP335  MET336  LEU339  MET340 
 GLY342  LEU343  ARG346  PHE356  ILE373  ILE376  PHE377  LEU380  LYS471  GLY472 
 MET473  HIS475  LEU476  LEU477  ASN478  MET479  VAL484  VAL487 

> <Gold.Protein.RotatedAtoms>
   36.4933   34.7313   41.4916 H   0  0  0  0  0  0  0  0  0  0  0  0  # atno 496  bound_to 491 

> <Gold.Score>
     Score     S(PLP)   S(hbond)     S(cho)   S(metal)  DE(clash)   DE(tors)     intcor
     42.27     -39.48       1.00       0.00       0.00       0.00       0.11       0.00

> <Gold.PLP.Fitness>
42.2688

> <Gold.PLP.PLP>
-39.4803

> <Gold.PLP.part.hbond>
-1.0000

> <Gold.PLP.part.metal>
0.0000

> <Gold.PLP.part.buried>
-3.9922

> <Gold.PLP.part.nonpolar>
-34.5690

> <Gold.PLP.part.repulsive>
0.0466

> <Gold.PLP.ligand.clash>
0.0000

> <Gold.PLP.ligand.torsion>
0.1058

> <Gold.PLP.Chemscore.Hbond>
1.0000

> <Gold.PLP.Chemscore.CHOScore>
0.0000

> <Gold.PLP.Chemscore.Metal>
0.0000

> <Gold.Chemscore.Hbonds>
donor molecule, donor type, donor heavy atom, donor atom, acceptor molecule, acceptor atom, score
      L1  H     1    20       P1   470  1.00

> <Gold.PLP.Chemscore.Internal.Correction>
0.0000

