#       Name:                EN300-07553_i001
#       Creating user name   aseyller
#       Creation time:       Fri Apr 21 16:30:34 2023


#       File generated by GOLD software.
#

@<TRIPOS>MOLECULE
EN300-07553_i001|benzaldehydes|mol2|29|dock13
    20    21     1
SMALL
USER_CHARGES


@<TRIPOS>ATOM
      1 O1          31.6227  36.9997  37.7718 O.3            1 <1>                0.0000
      2 C2          30.2977  37.0883  38.0347 C.ar           1 <1>                0.0000
      3 N3          29.8194  36.5326  39.1244 N.ar           1 <1>                0.0000
      4 C4          28.5179  36.5916  39.4311 C.ar           1 <1>                0.0000
      5 C5          28.0289  35.9899  40.6029 C.ar           1 <1>                0.0000
      6 C6          26.7015  36.0610  40.8979 C.ar           1 <1>                0.0000
      7 C7          25.8116  36.7230  40.0545 C.ar           1 <1>                0.0000
      8 C8          26.2467  37.3184  38.9102 C.ar           1 <1>                0.0000
      9 C9          27.6108  37.2654  38.5741 C.ar           1 <1>                0.0000
     10 C10         28.0930  37.8696  37.4013 C.ar           1 <1>                0.0000
     11 C11         29.4568  37.7827  37.1332 C.ar           1 <1>                0.0000
     12 C12         30.0148  38.3966  35.9219 C.2            1 <1>                0.0000
     13 O13         31.2148  38.4085  35.7457 O.2            1 <1>                0.0000
     14 H14         28.7042  35.4720  41.2679 H              1 <1>                0.0000
     15 H15         26.3324  35.5963  41.8003 H              1 <1>                0.0000
     16 H16         24.7635  36.7639  40.3118 H              1 <1>                0.0000
     17 H17         25.5478  37.8290  38.2642 H              1 <1>                0.0000
     18 H18         27.4263  38.3891  36.7291 H              1 <1>                0.0000
     19 H19         29.3569  38.8376  35.1878 H              1 <1>                0.0000
     20 H20         31.9501  36.0925  37.7020 H              1 <1>                0.0000
@<TRIPOS>BOND
    1    1    2 1     
    2    1   20 1     
    3    2    3 ar    
    4    2   11 ar    
    5    3    4 ar    
    6    4    5 ar    
    7    4    9 ar    
    8    5    6 ar    
    9    5   14 1     
   10    6    7 ar    
   11    6   15 1     
   12    7    8 ar    
   13    7   16 1     
   14    8    9 ar    
   15    8   17 1     
   16    9   10 ar    
   17   10   11 ar    
   18   10   18 1     
   19   11   12 1     
   20   12   13 2     
   21   12   19 1     
@<TRIPOS>SUBSTRUCTURE
      1 ****           1
@<TRIPOS>SET
DONOR_HYDROGENS      STATIC     ATOMS    <user>   **** ""
1 20
ATOM$RED        STATIC     ATOMS    COLORGROUP SYSTEM
1 20
@<TRIPOS>COMMENT
> <Gold.Version>
2022.2.0

> <Gold.Id.Protein>
1qkm|1qkm_protein|mol2

> <Gold.Protein.RotatedTorsions>
[  496  491  490  487 ] final -151.81 input  -89.99 | X-H torsion

> <Gold.Protein.ActiveResidues>
 MET295  LEU298  THR299  LEU301  ALA302  GLU305  TRP335  MET336  LEU339  MET340 
 GLY342  LEU343  ARG346  PHE356  ILE373  ILE376  PHE377  LEU380  LYS471  GLY472 
 MET473  HIS475  LEU476  LEU477  ASN478  MET479  VAL484  VAL487 

> <Gold.Protein.RotatedAtoms>
   37.2402   33.8916   40.7254 H   0  0  0  0  0  0  0  0  0  0  0  0  # atno 496  bound_to 491 

> <Gold.Score>
     Score     S(PLP)   S(hbond)     S(cho)   S(metal)  DE(clash)   DE(tors)     intcor
     40.81     -40.83       0.00       0.00       0.00       0.00       0.01       0.00

> <Gold.PLP.Fitness>
40.8134

> <Gold.PLP.PLP>
-40.8300

> <Gold.PLP.part.hbond>
0.0000

> <Gold.PLP.part.metal>
0.0000

> <Gold.PLP.part.buried>
-3.6084

> <Gold.PLP.part.nonpolar>
-37.9546

> <Gold.PLP.part.repulsive>
0.0610

> <Gold.PLP.ligand.clash>
0.0000

> <Gold.PLP.ligand.torsion>
0.0083

> <Gold.PLP.Chemscore.Hbond>
0.0000

> <Gold.PLP.Chemscore.CHOScore>
0.0000

> <Gold.PLP.Chemscore.Metal>
0.0000

> <Gold.PLP.Chemscore.Internal.Correction>
0.0000

