#       Name:                EN300-07553_i001
#       Creating user name   aseyller
#       Creation time:       Fri Apr 21 16:30:33 2023


#       File generated by GOLD software.
#

@<TRIPOS>MOLECULE
EN300-07553_i001|benzaldehydes|mol2|29|dock12
    20    21     1
SMALL
USER_CHARGES


@<TRIPOS>ATOM
      1 O1          29.3283  35.8167  40.6217 O.3            1 <1>                0.0000
      2 C2          29.7152  36.1635  39.3716 C.ar           1 <1>                0.0000
      3 N3          30.9541  35.9414  38.9966 N.ar           1 <1>                0.0000
      4 C4          31.3873  36.2647  37.7721 C.ar           1 <1>                0.0000
      5 C5          32.7174  36.0171  37.3930 C.ar           1 <1>                0.0000
      6 C6          33.1392  36.3529  36.1427 C.ar           1 <1>                0.0000
      7 C7          32.2719  36.9420  35.2249 C.ar           1 <1>                0.0000
      8 C8          30.9761  37.1978  35.5545 C.ar           1 <1>                0.0000
      9 C9          30.5058  36.8639  36.8366 C.ar           1 <1>                0.0000
     10 C10         29.1746  37.1137  37.2090 C.ar           1 <1>                0.0000
     11 C11         28.7753  36.7526  38.4933 C.ar           1 <1>                0.0000
     12 C12         27.3955  36.9903  38.9349 C.2            1 <1>                0.0000
     13 O13         27.0184  36.5602  40.0045 O.2            1 <1>                0.0000
     14 H14         33.4037  35.5619  38.0917 H              1 <1>                0.0000
     15 H15         34.1628  36.1597  35.8578 H              1 <1>                0.0000
     16 H16         32.6324  37.1991  34.2399 H              1 <1>                0.0000
     17 H17         30.3128  37.6545  34.8348 H              1 <1>                0.0000
     18 H18         28.4805  37.5693  36.5184 H              1 <1>                0.0000
     19 H19         26.7161  37.5480  38.3074 H              1 <1>                0.0000
     20 H20         30.0552  35.5381  41.1953 H              1 <1>                0.0000
@<TRIPOS>BOND
    1    1    2 1     
    2    1   20 1     
    3    2    3 ar    
    4    2   11 ar    
    5    3    4 ar    
    6    4    5 ar    
    7    4    9 ar    
    8    5    6 ar    
    9    5   14 1     
   10    6    7 ar    
   11    6   15 1     
   12    7    8 ar    
   13    7   16 1     
   14    8    9 ar    
   15    8   17 1     
   16    9   10 ar    
   17   10   11 ar    
   18   10   18 1     
   19   11   12 1     
   20   12   13 2     
   21   12   19 1     
@<TRIPOS>SUBSTRUCTURE
      1 ****           1
@<TRIPOS>SET
DONOR_HYDROGENS      STATIC     ATOMS    <user>   **** ""
1 20
ATOM$RED        STATIC     ATOMS    COLORGROUP SYSTEM
1 20
@<TRIPOS>COMMENT
> <Gold.Version>
2022.2.0

> <Gold.Id.Protein>
1qkm|1qkm_protein|mol2

> <Gold.Protein.RotatedTorsions>
[  496  491  490  487 ] final  -92.80 input  -89.99 | X-H torsion

> <Gold.Protein.ActiveResidues>
 MET295  LEU298  THR299  LEU301  ALA302  GLU305  TRP335  MET336  LEU339  MET340 
 GLY342  LEU343  ARG346  PHE356  ILE373  ILE376  PHE377  LEU380  LYS471  GLY472 
 MET473  HIS475  LEU476  LEU477  ASN478  MET479  VAL484  VAL487 

> <Gold.Protein.RotatedAtoms>
   36.7832   34.6340   41.0464 H   0  0  0  0  0  0  0  0  0  0  0  0  # atno 496  bound_to 491 

> <Gold.Score>
     Score     S(PLP)   S(hbond)     S(cho)   S(metal)  DE(clash)   DE(tors)     intcor
     40.00     -37.03       1.00       0.00       0.00       0.00       0.01       0.00

> <Gold.PLP.Fitness>
40.0040

> <Gold.PLP.PLP>
-37.0284

> <Gold.PLP.part.hbond>
-1.0000

> <Gold.PLP.part.metal>
0.0000

> <Gold.PLP.part.buried>
-3.7645

> <Gold.PLP.part.nonpolar>
-32.7196

> <Gold.PLP.part.repulsive>
0.1438

> <Gold.PLP.ligand.clash>
0.0000

> <Gold.PLP.ligand.torsion>
0.0123

> <Gold.PLP.Chemscore.Hbond>
1.0000

> <Gold.PLP.Chemscore.CHOScore>
0.0000

> <Gold.PLP.Chemscore.Metal>
0.0000

> <Gold.Chemscore.Hbonds>
donor molecule, donor type, donor heavy atom, donor atom, acceptor molecule, acceptor atom, score
      L1  H     1    20       P1   470  1.00

> <Gold.PLP.Chemscore.Internal.Correction>
0.0000

