#       Name:                EN300-07553_i001
#       Creating user name   aseyller
#       Creation time:       Fri Apr 21 16:30:30 2023


#       File generated by GOLD software.
#

@<TRIPOS>MOLECULE
EN300-07553_i001|benzaldehydes|mol2|29|dock4
    20    21     1
SMALL
USER_CHARGES


@<TRIPOS>ATOM
      1 O1          29.9101  38.2831  36.0383 O.3            1 <1>                0.0000
      2 C2          29.4674  37.6879  37.1708 C.ar           1 <1>                0.0000
      3 N3          28.1940  37.7651  37.4828 N.ar           1 <1>                0.0000
      4 C4          27.7051  37.1941  38.5903 C.ar           1 <1>                0.0000
      5 C5          26.3388  37.2895  38.9034 C.ar           1 <1>                0.0000
      6 C6          25.8603  36.7016  40.0346 C.ar           1 <1>                0.0000
      7 C7          26.7048  36.0024  40.8944 C.ar           1 <1>                0.0000
      8 C8          28.0345  35.8876  40.6256 C.ar           1 <1>                0.0000
      9 C9          28.5632  36.4816  39.4663 C.ar           1 <1>                0.0000
     10 C10         29.9302  36.3819  39.1588 C.ar           1 <1>                0.0000
     11 C11         30.3848  36.9901  37.9915 C.ar           1 <1>                0.0000
     12 C12         31.8036  36.9167  37.6214 C.2            1 <1>                0.0000
     13 O13         32.5245  36.0922  38.1428 O.2            1 <1>                0.0000
     14 H14         25.6696  37.8282  38.2488 H              1 <1>                0.0000
     15 H15         24.8089  36.7788  40.2692 H              1 <1>                0.0000
     16 H16         26.2995  35.5461  41.7854 H              1 <1>                0.0000
     17 H17         28.6795  35.3430  41.2992 H              1 <1>                0.0000
     18 H18         30.6080  35.8465  39.8070 H              1 <1>                0.0000
     19 H19         32.2056  37.5967  36.8850 H              1 <1>                0.0000
     20 H20         30.0470  37.6728  35.3009 H              1 <1>                0.0000
@<TRIPOS>BOND
    1    1    2 1     
    2    1   20 1     
    3    2    3 ar    
    4    2   11 ar    
    5    3    4 ar    
    6    4    5 ar    
    7    4    9 ar    
    8    5    6 ar    
    9    5   14 1     
   10    6    7 ar    
   11    6   15 1     
   12    7    8 ar    
   13    7   16 1     
   14    8    9 ar    
   15    8   17 1     
   16    9   10 ar    
   17   10   11 ar    
   18   10   18 1     
   19   11   12 1     
   20   12   13 2     
   21   12   19 1     
@<TRIPOS>SUBSTRUCTURE
      1 ****           1
@<TRIPOS>SET
DONOR_HYDROGENS      STATIC     ATOMS    <user>   **** ""
1 20
ATOM$RED        STATIC     ATOMS    COLORGROUP SYSTEM
1 20
@<TRIPOS>COMMENT
> <Gold.Version>
2022.2.0

> <Gold.Id.Protein>
1qkm|1qkm_protein|mol2

> <Gold.Protein.RotatedTorsions>
[  496  491  490  487 ] final -135.37 input  -89.99 | X-H torsion

> <Gold.Protein.ActiveResidues>
 MET295  LEU298  THR299  LEU301  ALA302  GLU305  TRP335  MET336  LEU339  MET340 
 GLY342  LEU343  ARG346  PHE356  ILE373  ILE376  PHE377  LEU380  LYS471  GLY472 
 MET473  HIS475  LEU476  LEU477  ASN478  MET479  VAL484  VAL487 

> <Gold.Protein.RotatedAtoms>
   37.1432   34.1431   40.7328 H   0  0  0  0  0  0  0  0  0  0  0  0  # atno 496  bound_to 491 

> <Gold.Score>
     Score     S(PLP)   S(hbond)     S(cho)   S(metal)  DE(clash)   DE(tors)     intcor
     41.71     -41.83       0.00       0.00       0.00       0.00       0.06       0.00

> <Gold.PLP.Fitness>
41.7128

> <Gold.PLP.PLP>
-41.8332

> <Gold.PLP.part.hbond>
0.0000

> <Gold.PLP.part.metal>
0.0000

> <Gold.PLP.part.buried>
-3.3055

> <Gold.PLP.part.nonpolar>
-38.5485

> <Gold.PLP.part.repulsive>
0.0472

> <Gold.PLP.ligand.clash>
0.0000

> <Gold.PLP.ligand.torsion>
0.0602

> <Gold.PLP.Chemscore.Hbond>
0.0000

> <Gold.PLP.Chemscore.CHOScore>
0.0000

> <Gold.PLP.Chemscore.Metal>
0.0000

> <Gold.PLP.Chemscore.Internal.Correction>
0.0001

