#       Name:                plp ligand
#       Creating user name   aseyller
#       Creation time:       Fri Apr 21 16:30:27 2023


#       File generated by GOLD software.
#

@<TRIPOS>MOLECULE
plp ligand
    20    21     1
SMALL
USER_CHARGES


@<TRIPOS>ATOM
      1 O1           2.8286   1.7708  -0.0621 DONACC         1 <1>                0.0000
      2 C2           1.7135   1.0032  -0.0536 NONPOLAR       1 <1>                0.0000
      3 N3           0.5343   1.5814  -0.0563 ACCEPTOR       1 <1>                0.0000
      4 C4          -0.5987   0.8688  -0.0488 NONPOLAR       1 <1>                0.0000
      5 C5          -1.8492   1.5094  -0.0524 NONPOLAR       1 <1>                0.0000
      6 C6          -2.9907   0.7671  -0.0449 NONPOLAR       1 <1>                0.0000
      7 C7          -2.9432  -0.6254  -0.0332 NONPOLAR       1 <1>                0.0000
      8 C8          -1.7511  -1.2828  -0.0294 NONPOLAR       1 <1>                0.0000
      9 C9          -0.5522  -0.5486  -0.0374 NONPOLAR       1 <1>                0.0000
     10 C10          0.6947  -1.1954  -0.0343 NONPOLAR       1 <1>                0.0000
     11 C11          1.8418  -0.4059  -0.0479 NONPOLAR       1 <1>                0.0000
     12 C12          3.1709  -1.0294  -0.0459 NONPOLAR       1 <1>                0.0000
     13 O13          4.1661  -0.3360  -0.0579 ACCEPTOR       1 <1>                0.0000
     14 H14         -1.9050   2.5879  -0.0607                1 <1>                0.0000
     15 H15         -3.9486   1.2659  -0.0478                1 <1>                0.0000
     16 H16         -3.8637  -1.1902  -0.0267                1 <1>                0.0000
     17 H17         -1.7265  -2.3625  -0.0206                1 <1>                0.0000
     18 H18          0.7617  -2.2732  -0.0250                1 <1>                0.0000
     19 H19          3.2627  -2.1054  -0.0338                1 <1>                0.0000
     20 H20          3.1542   2.0012   0.8188                1 <1>                0.0000
@<TRIPOS>BOND
    1    1    2 1     
    2    1   20 1     
    3    2    3 ar    
    4    2   11 ar    
    5    3    4 ar    
    6    4    5 ar    
    7    4    9 ar    
    8    5    6 ar    
    9    5   14 1     
   10    6    7 ar    
   11    6   15 1     
   12    7    8 ar    
   13    7   16 1     
   14    8    9 ar    
   15    8   17 1     
   16    9   10 ar    
   17   10   11 ar    
   18   10   18 1     
   19   11   12 1     
   20   12   13 2     
   21   12   19 1     
@<TRIPOS>SUBSTRUCTURE
      1 ****           1
@<TRIPOS>SET
DONOR_HYDROGENS      STATIC     ATOMS    <user>   **** ""
1 20
ATOM$RED        STATIC     ATOMS    COLORGROUP SYSTEM
1 20
