#       Name:                EN300-180241_i001
#       Creating user name   aseyller
#       Creation time:       Fri Apr 21 19:46:08 2023


#       File generated by GOLD software.
#

@<TRIPOS>MOLECULE
EN300-180241_i001|benzaldehydes|mol2|935|dock2
    16    16     1
SMALL
USER_CHARGES


@<TRIPOS>ATOM
      1 C1          29.9343  40.3536  36.2588 C.3            1 <1>                0.0000
      2 O2          29.9247  38.9729  36.7080 O.3            1 <1>                0.0000
      3 C3          28.7965  38.5289  37.2975 C.2            1 <1>                0.0000
      4 O4          27.7232  39.0147  36.9990 O.2            1 <1>                0.0000
      5 C5          28.8645  37.4562  38.3019 C.2            1 <1>                0.0000
      6 S6          30.3213  36.6230  38.8384 S.3            1 <1>                0.0000
      7 C7          29.3988  35.6634  39.9091 C.2            1 <1>                0.0000
      8 N8          28.1484  35.9650  39.8410 N.2            1 <1>                0.0000
      9 C9          27.7971  36.9225  39.0013 C.2            1 <1>                0.0000
     10 C10         26.4079  37.3698  38.8210 C.2            1 <1>                0.0000
     11 O11         25.5480  37.0041  39.5939 O.2            1 <1>                0.0000
     12 H12         29.1424  40.5025  35.5249 H              1 <1>                0.0000
     13 H13         29.7694  41.0138  37.1102 H              1 <1>                0.0000
     14 H14         30.8985  40.5810  35.8041 H              1 <1>                0.0000
     15 H15         29.8098  34.9036  40.5574 H              1 <1>                0.0000
     16 H16         26.1535  38.0240  38.0002 H              1 <1>                0.0000
@<TRIPOS>BOND
    1    1    2 1     
    2    1   12 1     
    3    1   13 1     
    4    1   14 1     
    5    2    3 1     
    6    3    4 2     
    7    3    5 1     
    8    5    6 1     
    9    5    9 2     
   10    6    7 1     
   11    7    8 2     
   12    7   15 1     
   13    8    9 1     
   14    9   10 1     
   15   10   11 2     
   16   10   16 1     
@<TRIPOS>SUBSTRUCTURE
      1 ****           1
@<TRIPOS>COMMENT
> <Gold.Version>
2022.2.0

> <Gold.Id.Protein>
1qkm|1qkm_protein|mol2

> <Gold.Protein.RotatedTorsions>
[  496  491  490  487 ] final  109.27 input  -89.99 | X-H torsion

> <Gold.Protein.ActiveResidues>
 MET295  LEU298  THR299  LEU301  ALA302  GLU305  TRP335  MET336  LEU339  MET340 
 GLY342  LEU343  ARG346  PHE356  ILE373  ILE376  PHE377  LEU380  LYS471  GLY472 
 MET473  HIS475  LEU476  LEU477  ASN478  MET479  VAL484  VAL487 

> <Gold.Protein.RotatedAtoms>
   36.9931   32.9436   41.7719 H   0  0  0  0  0  0  0  0  0  0  0  0  # atno 496  bound_to 491 

> <Gold.Score>
     Score     S(PLP)   S(hbond)     S(cho)   S(metal)  DE(clash)   DE(tors)     intcor
     32.35     -30.31       0.00       0.95       0.00       0.00       0.40       0.00

> <Gold.PLP.Fitness>
32.3501

> <Gold.PLP.PLP>
-30.3056

> <Gold.PLP.part.hbond>
0.0000

> <Gold.PLP.part.metal>
0.0000

> <Gold.PLP.part.buried>
-4.3277

> <Gold.PLP.part.nonpolar>
-26.5383

> <Gold.PLP.part.repulsive>
0.1437

> <Gold.PLP.ligand.clash>
0.0000

> <Gold.PLP.ligand.torsion>
0.4003

> <Gold.PLP.Chemscore.Hbond>
0.0000

> <Gold.PLP.Chemscore.CHOScore>
0.9478

> <Gold.PLP.Chemscore.Metal>
0.0000

> <Gold.Chemscore.Hbonds>
donor molecule, donor type, donor heavy atom, donor atom, acceptor molecule, acceptor atom, score
      L1  C     7    15       P1   470  0.95

> <Gold.PLP.Chemscore.Internal.Correction>
0.0018

