#       Name:                EN300-180241_i001
#       Creating user name   aseyller
#       Creation time:       Fri Apr 21 19:46:17 2023


#       File generated by GOLD software.
#

@<TRIPOS>MOLECULE
EN300-180241_i001|benzaldehydes|mol2|935|dock18
    16    16     1
SMALL
USER_CHARGES


@<TRIPOS>ATOM
      1 C1          25.7895  37.2987  39.1010 C.3            1 <1>                0.0000
      2 O2          27.1286  37.2688  38.5405 O.3            1 <1>                0.0000
      3 C3          27.9804  36.3507  39.0393 C.2            1 <1>                0.0000
      4 O4          27.5758  35.5004  39.8077 O.2            1 <1>                0.0000
      5 C5          29.3997  36.3778  38.6536 C.2            1 <1>                0.0000
      6 S6          30.6041  35.1473  39.0274 S.3            1 <1>                0.0000
      7 C7          31.8032  36.0479  38.2093 C.2            1 <1>                0.0000
      8 N8          31.3151  37.1378  37.7266 N.2            1 <1>                0.0000
      9 C9          30.0302  37.3712  37.9261 C.2            1 <1>                0.0000
     10 C10         29.3407  38.5724  37.4321 C.2            1 <1>                0.0000
     11 O11         29.9768  39.4698  36.9214 O.2            1 <1>                0.0000
     12 H12         25.3070  36.3345  38.9413 H              1 <1>                0.0000
     13 H13         25.8475  37.5034  40.1700 H              1 <1>                0.0000
     14 H14         25.2085  38.0810  38.6124 H              1 <1>                0.0000
     15 H15         32.8348  35.7437  38.1102 H              1 <1>                0.0000
     16 H16         28.2678  38.6555  37.5241 H              1 <1>                0.0000
@<TRIPOS>BOND
    1    1    2 1     
    2    1   12 1     
    3    1   13 1     
    4    1   14 1     
    5    2    3 1     
    6    3    4 2     
    7    3    5 1     
    8    5    6 1     
    9    5    9 2     
   10    6    7 1     
   11    7    8 2     
   12    7   15 1     
   13    8    9 1     
   14    9   10 1     
   15   10   11 2     
   16   10   16 1     
@<TRIPOS>SUBSTRUCTURE
      1 ****           1
@<TRIPOS>COMMENT
> <Gold.Version>
2022.2.0

> <Gold.Id.Protein>
1qkm|1qkm_protein|mol2

> <Gold.Protein.RotatedTorsions>
[  496  491  490  487 ] final -160.63 input  -89.99 | X-H torsion

> <Gold.Protein.ActiveResidues>
 MET295  LEU298  THR299  LEU301  ALA302  GLU305  TRP335  MET336  LEU339  MET340 
 GLY342  LEU343  ARG346  PHE356  ILE373  ILE376  PHE377  LEU380  LYS471  GLY472 
 MET473  HIS475  LEU476  LEU477  ASN478  MET479  VAL484  VAL487 

> <Gold.Protein.RotatedAtoms>
   37.2775   33.7535   40.7494 H   0  0  0  0  0  0  0  0  0  0  0  0  # atno 496  bound_to 491 

> <Gold.Score>
     Score     S(PLP)   S(hbond)     S(cho)   S(metal)  DE(clash)   DE(tors)     intcor
     30.63     -30.86       0.00       0.00       0.00       0.00       0.11       0.00

> <Gold.PLP.Fitness>
30.6338

> <Gold.PLP.PLP>
-30.8585

> <Gold.PLP.part.hbond>
0.0000

> <Gold.PLP.part.metal>
0.0000

> <Gold.PLP.part.buried>
-4.2719

> <Gold.PLP.part.nonpolar>
-26.6664

> <Gold.PLP.part.repulsive>
0.0451

> <Gold.PLP.ligand.clash>
0.0000

> <Gold.PLP.ligand.torsion>
0.1125

> <Gold.PLP.Chemscore.Hbond>
0.0000

> <Gold.PLP.Chemscore.CHOScore>
0.0000

> <Gold.PLP.Chemscore.Metal>
0.0000

> <Gold.PLP.Chemscore.Internal.Correction>
0.0002

