#       Name:                EN300-180241_i001
#       Creating user name   aseyller
#       Creation time:       Fri Apr 21 19:46:18 2023


#       File generated by GOLD software.
#

@<TRIPOS>MOLECULE
EN300-180241_i001|benzaldehydes|mol2|935|dock20
    16    16     1
SMALL
USER_CHARGES


@<TRIPOS>ATOM
      1 C1          32.7032  37.6993  34.5271 C.3            1 <1>                0.0000
      2 O2          31.9633  37.6193  35.7739 O.3            1 <1>                0.0000
      3 C3          32.0216  36.4523  36.4464 C.2            1 <1>                0.0000
      4 O4          32.7812  35.5772  36.0801 O.2            1 <1>                0.0000
      5 C5          31.1659  36.2383  37.6237 C.2            1 <1>                0.0000
      6 S6          29.9917  37.3771  38.2783 S.3            1 <1>                0.0000
      7 C7          29.5818  36.2708  39.5138 C.2            1 <1>                0.0000
      8 N8          30.2688  35.1861  39.4108 N.2            1 <1>                0.0000
      9 C9          31.1326  35.1039  38.4145 C.2            1 <1>                0.0000
     10 C10         31.9813  33.9270  38.1757 C.2            1 <1>                0.0000
     11 O11         31.4970  32.8154  38.1990 O.2            1 <1>                0.0000
     12 H12         33.7616  37.5257  34.7209 H              1 <1>                0.0000
     13 H13         32.3317  36.9436  33.8350 H              1 <1>                0.0000
     14 H14         32.5715  38.6888  34.0894 H              1 <1>                0.0000
     15 H15         28.8441  36.4566  40.2805 H              1 <1>                0.0000
     16 H16         33.0359  34.0526  37.9796 H              1 <1>                0.0000
@<TRIPOS>BOND
    1    1    2 1     
    2    1   12 1     
    3    1   13 1     
    4    1   14 1     
    5    2    3 1     
    6    3    4 2     
    7    3    5 1     
    8    5    6 1     
    9    5    9 2     
   10    6    7 1     
   11    7    8 2     
   12    7   15 1     
   13    8    9 1     
   14    9   10 1     
   15   10   11 2     
   16   10   16 1     
@<TRIPOS>SUBSTRUCTURE
      1 ****           1
@<TRIPOS>COMMENT
> <Gold.Version>
2022.2.0

> <Gold.Id.Protein>
1qkm|1qkm_protein|mol2

> <Gold.Protein.RotatedTorsions>
[  496  491  490  487 ] final   97.63 input  -89.99 | X-H torsion

> <Gold.Protein.ActiveResidues>
 MET295  LEU298  THR299  LEU301  ALA302  GLU305  TRP335  MET336  LEU339  MET340 
 GLY342  LEU343  ARG346  PHE356  ILE373  ILE376  PHE377  LEU380  LYS471  GLY472 
 MET473  HIS475  LEU476  LEU477  ASN478  MET479  VAL484  VAL487 

> <Gold.Protein.RotatedAtoms>
   36.8902   32.9792   41.9291 H   0  0  0  0  0  0  0  0  0  0  0  0  # atno 496  bound_to 491 

> <Gold.Score>
     Score     S(PLP)   S(hbond)     S(cho)   S(metal)  DE(clash)   DE(tors)     intcor
     30.52     -31.44       0.00       0.00       0.00       0.00       0.46       0.00

> <Gold.PLP.Fitness>
30.5220

> <Gold.PLP.PLP>
-31.4369

> <Gold.PLP.part.hbond>
0.0000

> <Gold.PLP.part.metal>
0.0000

> <Gold.PLP.part.buried>
-4.9005

> <Gold.PLP.part.nonpolar>
-27.1325

> <Gold.PLP.part.repulsive>
0.4976

> <Gold.PLP.ligand.clash>
0.0000

> <Gold.PLP.ligand.torsion>
0.4576

> <Gold.PLP.Chemscore.Hbond>
0.0000

> <Gold.PLP.Chemscore.CHOScore>
0.0000

> <Gold.PLP.Chemscore.Metal>
0.0000

> <Gold.PLP.Chemscore.Internal.Correction>
0.0002

