#       Name:                EN300-180241_i001
#       Creating user name   aseyller
#       Creation time:       Fri Apr 21 19:46:18 2023


#       File generated by GOLD software.
#

@<TRIPOS>MOLECULE
EN300-180241_i001|benzaldehydes|mol2|935|dock19
    16    16     1
SMALL
USER_CHARGES


@<TRIPOS>ATOM
      1 C1          25.7884  36.7064  40.5028 C.3            1 <1>                0.0000
      2 O2          26.5650  37.2130  39.3855 O.3            1 <1>                0.0000
      3 C3          27.8038  36.7071  39.2218 C.2            1 <1>                0.0000
      4 O4          28.1379  35.7091  39.8297 O.2            1 <1>                0.0000
      5 C5          28.7513  37.3629  38.3074 C.2            1 <1>                0.0000
      6 S6          28.4090  38.7438  37.2681 S.3            1 <1>                0.0000
      7 C7          30.0130  38.7211  36.6806 C.2            1 <1>                0.0000
      8 N8          30.6927  37.7728  37.2263 N.2            1 <1>                0.0000
      9 C9          30.0747  37.0114  38.1116 C.2            1 <1>                0.0000
     10 C10         30.7265  35.8948  38.8123 C.2            1 <1>                0.0000
     11 O11         31.8469  35.5531  38.4981 O.2            1 <1>                0.0000
     12 H12         25.6531  35.6305  40.3932 H              1 <1>                0.0000
     13 H13         26.3146  36.9134  41.4346 H              1 <1>                0.0000
     14 H14         24.8142  37.1952  40.5194 H              1 <1>                0.0000
     15 H15         30.4053  39.4108  35.9479 H              1 <1>                0.0000
     16 H16         30.2074  35.3790  39.6065 H              1 <1>                0.0000
@<TRIPOS>BOND
    1    1    2 1     
    2    1   12 1     
    3    1   13 1     
    4    1   14 1     
    5    2    3 1     
    6    3    4 2     
    7    3    5 1     
    8    5    6 1     
    9    5    9 2     
   10    6    7 1     
   11    7    8 2     
   12    7   15 1     
   13    8    9 1     
   14    9   10 1     
   15   10   11 2     
   16   10   16 1     
@<TRIPOS>SUBSTRUCTURE
      1 ****           1
@<TRIPOS>COMMENT
> <Gold.Version>
2022.2.0

> <Gold.Id.Protein>
1qkm|1qkm_protein|mol2

> <Gold.Protein.RotatedTorsions>
[  496  491  490  487 ] final  -71.79 input  -89.99 | X-H torsion

> <Gold.Protein.ActiveResidues>
 MET295  LEU298  THR299  LEU301  ALA302  GLU305  TRP335  MET336  LEU339  MET340 
 GLY342  LEU343  ARG346  PHE356  ILE373  ILE376  PHE377  LEU380  LYS471  GLY472 
 MET473  HIS475  LEU476  LEU477  ASN478  MET479  VAL484  VAL487 

> <Gold.Protein.RotatedAtoms>
   36.5936   34.7300   41.3167 H   0  0  0  0  0  0  0  0  0  0  0  0  # atno 496  bound_to 491 

> <Gold.Score>
     Score     S(PLP)   S(hbond)     S(cho)   S(metal)  DE(clash)   DE(tors)     intcor
     29.08     -29.43       0.00       0.00       0.00       0.00       0.17       0.00

> <Gold.PLP.Fitness>
29.0830

> <Gold.PLP.PLP>
-29.4303

> <Gold.PLP.part.hbond>
0.0000

> <Gold.PLP.part.metal>
0.0000

> <Gold.PLP.part.buried>
-4.3324

> <Gold.PLP.part.nonpolar>
-25.3831

> <Gold.PLP.part.repulsive>
0.1630

> <Gold.PLP.ligand.clash>
0.0000

> <Gold.PLP.ligand.torsion>
0.1737

> <Gold.PLP.Chemscore.Hbond>
0.0000

> <Gold.PLP.Chemscore.CHOScore>
0.0000

> <Gold.PLP.Chemscore.Metal>
0.0000

> <Gold.PLP.Chemscore.Internal.Correction>
0.0002

