#       Name:                EN300-180241_i001
#       Creating user name   aseyller
#       Creation time:       Fri Apr 21 19:46:10 2023


#       File generated by GOLD software.
#

@<TRIPOS>MOLECULE
EN300-180241_i001|benzaldehydes|mol2|935|dock5
    16    16     1
SMALL
USER_CHARGES


@<TRIPOS>ATOM
      1 C1          28.2874  37.2951  38.5181 C.3            1 <1>                0.0000
      2 O2          29.5951  36.9268  38.0060 O.3            1 <1>                0.0000
      3 C3          30.1098  37.7000  37.0289 C.2            1 <1>                0.0000
      4 O4          29.5630  38.7427  36.7276 O.2            1 <1>                0.0000
      5 C5          31.3334  37.2818  36.3275 C.2            1 <1>                0.0000
      6 S6          32.0135  38.0297  34.8844 S.3            1 <1>                0.0000
      7 C7          33.2990  36.9045  34.8863 C.2            1 <1>                0.0000
      8 N8          33.1925  36.0814  35.8713 N.2            1 <1>                0.0000
      9 C9          32.1625  36.2337  36.6844 C.2            1 <1>                0.0000
     10 C10         31.9165  35.3688  37.8480 C.2            1 <1>                0.0000
     11 O11         32.0959  34.1724  37.7629 O.2            1 <1>                0.0000
     12 H12         28.3301  38.3018  38.9335 H              1 <1>                0.0000
     13 H13         27.5588  37.2669  37.7080 H              1 <1>                0.0000
     14 H14         27.9915  36.5927  39.2974 H              1 <1>                0.0000
     15 H15         34.0956  36.8855  34.1573 H              1 <1>                0.0000
     16 H16         31.5761  35.7990  38.7783 H              1 <1>                0.0000
@<TRIPOS>BOND
    1    1    2 1     
    2    1   12 1     
    3    1   13 1     
    4    1   14 1     
    5    2    3 1     
    6    3    4 2     
    7    3    5 1     
    8    5    6 1     
    9    5    9 2     
   10    6    7 1     
   11    7    8 2     
   12    7   15 1     
   13    8    9 1     
   14    9   10 1     
   15   10   11 2     
   16   10   16 1     
@<TRIPOS>SUBSTRUCTURE
      1 ****           1
@<TRIPOS>COMMENT
> <Gold.Version>
2022.2.0

> <Gold.Id.Protein>
1qkm|1qkm_protein|mol2

> <Gold.Protein.RotatedTorsions>
[  496  491  490  487 ] final   -2.48 input  -89.99 | X-H torsion

> <Gold.Protein.ActiveResidues>
 MET295  LEU298  THR299  LEU301  ALA302  GLU305  TRP335  MET336  LEU339  MET340 
 GLY342  LEU343  ARG346  PHE356  ILE373  ILE376  PHE377  LEU380  LYS471  GLY472 
 MET473  HIS475  LEU476  LEU477  ASN478  MET479  VAL484  VAL487 

> <Gold.Protein.RotatedAtoms>
   36.2588   34.2485   42.2150 H   0  0  0  0  0  0  0  0  0  0  0  0  # atno 496  bound_to 491 

> <Gold.Score>
     Score     S(PLP)   S(hbond)     S(cho)   S(metal)  DE(clash)   DE(tors)     intcor
     31.28     -29.17       0.00       1.00       0.00       0.00       0.44       0.00

> <Gold.PLP.Fitness>
31.2824

> <Gold.PLP.PLP>
-29.1673

> <Gold.PLP.part.hbond>
0.0000

> <Gold.PLP.part.metal>
0.0000

> <Gold.PLP.part.buried>
-4.7235

> <Gold.PLP.part.nonpolar>
-24.2629

> <Gold.PLP.part.repulsive>
0.0934

> <Gold.PLP.ligand.clash>
0.0000

> <Gold.PLP.ligand.torsion>
0.4425

> <Gold.PLP.Chemscore.Hbond>
0.0000

> <Gold.PLP.Chemscore.CHOScore>
1.0000

> <Gold.PLP.Chemscore.Metal>
0.0000

> <Gold.Chemscore.Hbonds>
donor molecule, donor type, donor heavy atom, donor atom, acceptor molecule, acceptor atom, score
      L1  C     7    15       P1  3229  1.00

> <Gold.PLP.Chemscore.Internal.Correction>
0.0002

