#       Name:                EN300-180241_i001
#       Creating user name   aseyller
#       Creation time:       Fri Apr 21 19:46:08 2023


#       File generated by GOLD software.
#

@<TRIPOS>MOLECULE
EN300-180241_i001|benzaldehydes|mol2|935|dock3
    16    16     1
SMALL
USER_CHARGES


@<TRIPOS>ATOM
      1 C1          29.4814  36.1611  39.7952 C.3            1 <1>                0.0000
      2 O2          30.1523  36.7498  38.6500 O.3            1 <1>                0.0000
      3 C3          31.2022  36.0740  38.1416 C.2            1 <1>                0.0000
      4 O4          31.6094  35.0743  38.7001 O.2            1 <1>                0.0000
      5 C5          31.8549  36.5463  36.9109 C.2            1 <1>                0.0000
      6 S6          33.2398  35.8025  36.1154 S.3            1 <1>                0.0000
      7 C7          33.2085  37.0029  34.9004 C.2            1 <1>                0.0000
      8 N8          32.2549  37.8443  35.1051 N.2            1 <1>                0.0000
      9 C9          31.4892  37.6519  36.1643 C.2            1 <1>                0.0000
     10 C10         30.3654  38.5313  36.5196 C.2            1 <1>                0.0000
     11 O11         30.0712  39.4608  35.7983 O.2            1 <1>                0.0000
     12 H12         29.0938  35.1791  39.5241 H              1 <1>                0.0000
     13 H13         30.1892  36.0580  40.6176 H              1 <1>                0.0000
     14 H14         28.6572  36.8044  40.1037 H              1 <1>                0.0000
     15 H15         33.8978  37.0504  34.0702 H              1 <1>                0.0000
     16 H16         29.8021  38.3494  37.4229 H              1 <1>                0.0000
@<TRIPOS>BOND
    1    1    2 1     
    2    1   12 1     
    3    1   13 1     
    4    1   14 1     
    5    2    3 1     
    6    3    4 2     
    7    3    5 1     
    8    5    6 1     
    9    5    9 2     
   10    6    7 1     
   11    7    8 2     
   12    7   15 1     
   13    8    9 1     
   14    9   10 1     
   15   10   11 2     
   16   10   16 1     
@<TRIPOS>SUBSTRUCTURE
      1 ****           1
@<TRIPOS>COMMENT
> <Gold.Version>
2022.2.0

> <Gold.Id.Protein>
1qkm|1qkm_protein|mol2

> <Gold.Protein.RotatedTorsions>
[  496  491  490  487 ] final  -82.35 input  -89.99 | X-H torsion

> <Gold.Protein.ActiveResidues>
 MET295  LEU298  THR299  LEU301  ALA302  GLU305  TRP335  MET336  LEU339  MET340 
 GLY342  LEU343  ARG346  PHE356  ILE373  ILE376  PHE377  LEU380  LYS471  GLY472 
 MET473  HIS475  LEU476  LEU477  ASN478  MET479  VAL484  VAL487 

> <Gold.Protein.RotatedAtoms>
   36.6872   34.6961   41.1746 H   0  0  0  0  0  0  0  0  0  0  0  0  # atno 496  bound_to 491 

> <Gold.Score>
     Score     S(PLP)   S(hbond)     S(cho)   S(metal)  DE(clash)   DE(tors)     intcor
     31.86     -28.92       0.00       1.00       0.00       0.00       0.03       0.00

> <Gold.PLP.Fitness>
31.8558

> <Gold.PLP.PLP>
-28.9172

> <Gold.PLP.part.hbond>
0.0000

> <Gold.PLP.part.metal>
0.0000

> <Gold.PLP.part.buried>
-4.9113

> <Gold.PLP.part.nonpolar>
-24.4112

> <Gold.PLP.part.repulsive>
0.2276

> <Gold.PLP.ligand.clash>
0.0000

> <Gold.PLP.ligand.torsion>
0.0308

> <Gold.PLP.Chemscore.Hbond>
0.0000

> <Gold.PLP.Chemscore.CHOScore>
1.0000

> <Gold.PLP.Chemscore.Metal>
0.0000

> <Gold.Chemscore.Hbonds>
donor molecule, donor type, donor heavy atom, donor atom, acceptor molecule, acceptor atom, score
      L1  C     7    15       P1  3229  1.00

> <Gold.PLP.Chemscore.Internal.Correction>
0.0002

