#       Name:                EN300-180241_i001
#       Creating user name   aseyller
#       Creation time:       Fri Apr 21 19:46:11 2023


#       File generated by GOLD software.
#

@<TRIPOS>MOLECULE
EN300-180241_i001|benzaldehydes|mol2|935|dock7
    16    16     1
SMALL
USER_CHARGES


@<TRIPOS>ATOM
      1 C1          33.5968  36.6860  34.8989 C.3            1 <1>                0.0000
      2 O2          32.8081  36.2320  36.0302 O.3            1 <1>                0.0000
      3 C3          31.9615  37.1235  36.5834 C.2            1 <1>                0.0000
      4 O4          31.8910  38.2519  36.1377 O.2            1 <1>                0.0000
      5 C5          31.1230  36.7304  37.7264 C.2            1 <1>                0.0000
      6 S6          29.8730  37.7120  38.4870 S.3            1 <1>                0.0000
      7 C7          29.5409  36.4583  39.5988 C.2            1 <1>                0.0000
      8 N8          30.3012  35.4399  39.3891 N.2            1 <1>                0.0000
      9 C9          31.1683  35.5207  38.3956 C.2            1 <1>                0.0000
     10 C10         32.0962  34.4360  38.0424 C.2            1 <1>                0.0000
     11 O11         31.8399  33.2928  38.3558 O.2            1 <1>                0.0000
     12 H12         32.9315  36.9967  34.0934 H              1 <1>                0.0000
     13 H13         34.2171  37.5290  35.2034 H              1 <1>                0.0000
     14 H14         34.2340  35.8731  34.5507 H              1 <1>                0.0000
     15 H15         28.7923  36.5125  40.3754 H              1 <1>                0.0000
     16 H16         33.0059  34.6574  37.5041 H              1 <1>                0.0000
@<TRIPOS>BOND
    1    1    2 1     
    2    1   12 1     
    3    1   13 1     
    4    1   14 1     
    5    2    3 1     
    6    3    4 2     
    7    3    5 1     
    8    5    6 1     
    9    5    9 2     
   10    6    7 1     
   11    7    8 2     
   12    7   15 1     
   13    8    9 1     
   14    9   10 1     
   15   10   11 2     
   16   10   16 1     
@<TRIPOS>SUBSTRUCTURE
      1 ****           1
@<TRIPOS>COMMENT
> <Gold.Version>
2022.2.0

> <Gold.Id.Protein>
1qkm|1qkm_protein|mol2

> <Gold.Protein.RotatedTorsions>
[  496  491  490  487 ] final -101.01 input  -89.99 | X-H torsion

> <Gold.Protein.ActiveResidues>
 MET295  LEU298  THR299  LEU301  ALA302  GLU305  TRP335  MET336  LEU339  MET340 
 GLY342  LEU343  ARG346  PHE356  ILE373  ILE376  PHE377  LEU380  LYS471  GLY472 
 MET473  HIS475  LEU476  LEU477  ASN478  MET479  VAL484  VAL487 

> <Gold.Protein.RotatedAtoms>
   36.8589   34.5665   40.9572 H   0  0  0  0  0  0  0  0  0  0  0  0  # atno 496  bound_to 491 

> <Gold.Score>
     Score     S(PLP)   S(hbond)     S(cho)   S(metal)  DE(clash)   DE(tors)     intcor
     31.27     -31.52       0.00       0.00       0.00       0.00       0.13       0.00

> <Gold.PLP.Fitness>
31.2706

> <Gold.PLP.PLP>
-31.5222

> <Gold.PLP.part.hbond>
0.0000

> <Gold.PLP.part.metal>
0.0000

> <Gold.PLP.part.buried>
-4.9936

> <Gold.PLP.part.nonpolar>
-26.6542

> <Gold.PLP.part.repulsive>
0.3771

> <Gold.PLP.ligand.clash>
0.0000

> <Gold.PLP.ligand.torsion>
0.1259

> <Gold.PLP.Chemscore.Hbond>
0.0000

> <Gold.PLP.Chemscore.CHOScore>
0.0000

> <Gold.PLP.Chemscore.Metal>
0.0000

> <Gold.PLP.Chemscore.Internal.Correction>
0.0002

