#       Name:                EN300-180241_i001
#       Creating user name   aseyller
#       Creation time:       Fri Apr 21 19:46:12 2023


#       File generated by GOLD software.
#

@<TRIPOS>MOLECULE
EN300-180241_i001|benzaldehydes|mol2|935|dock10
    16    16     1
SMALL
USER_CHARGES


@<TRIPOS>ATOM
      1 C1          32.1274  35.1725  38.1182 C.3            1 <1>                0.0000
      2 O2          31.0196  35.2668  39.0521 O.3            1 <1>                0.0000
      3 C3          30.1808  36.3116  38.9032 C.2            1 <1>                0.0000
      4 O4          30.5250  37.2794  38.2537 O.2            1 <1>                0.0000
      5 C5          28.8488  36.2802  39.5267 C.2            1 <1>                0.0000
      6 S6          28.4635  35.6560  41.1287 S.3            1 <1>                0.0000
      7 C7          26.8162  36.0490  40.9044 C.2            1 <1>                0.0000
      8 N8          26.6209  36.5842  39.7492 N.2            1 <1>                0.0000
      9 C9          27.6720  36.7408  38.9644 C.2            1 <1>                0.0000
     10 C10         27.5968  37.3370  37.6222 C.2            1 <1>                0.0000
     11 O11         28.3999  38.1821  37.2882 O.2            1 <1>                0.0000
     12 H12         31.7405  35.0947  37.1022 H              1 <1>                0.0000
     13 H13         32.7506  36.0627  38.2026 H              1 <1>                0.0000
     14 H14         32.7228  34.2890  38.3488 H              1 <1>                0.0000
     15 H15         26.0406  35.8717  41.6349 H              1 <1>                0.0000
     16 H16         26.8263  37.0223  36.9339 H              1 <1>                0.0000
@<TRIPOS>BOND
    1    1    2 1     
    2    1   12 1     
    3    1   13 1     
    4    1   14 1     
    5    2    3 1     
    6    3    4 2     
    7    3    5 1     
    8    5    6 1     
    9    5    9 2     
   10    6    7 1     
   11    7    8 2     
   12    7   15 1     
   13    8    9 1     
   14    9   10 1     
   15   10   11 2     
   16   10   16 1     
@<TRIPOS>SUBSTRUCTURE
      1 ****           1
@<TRIPOS>COMMENT
> <Gold.Version>
2022.2.0

> <Gold.Id.Protein>
1qkm|1qkm_protein|mol2

> <Gold.Protein.RotatedTorsions>
[  496  491  490  487 ] final   53.75 input  -89.99 | X-H torsion

> <Gold.Protein.ActiveResidues>
 MET295  LEU298  THR299  LEU301  ALA302  GLU305  TRP335  MET336  LEU339  MET340 
 GLY342  LEU343  ARG346  PHE356  ILE373  ILE376  PHE377  LEU380  LYS471  GLY472 
 MET473  HIS475  LEU476  LEU477  ASN478  MET479  VAL484  VAL487 

> <Gold.Protein.RotatedAtoms>
   36.5013   33.4022   42.3374 H   0  0  0  0  0  0  0  0  0  0  0  0  # atno 496  bound_to 491 

> <Gold.Score>
     Score     S(PLP)   S(hbond)     S(cho)   S(metal)  DE(clash)   DE(tors)     intcor
     32.73     -32.24       0.00       1.00       0.00       0.00       1.26       0.00

> <Gold.PLP.Fitness>
32.7290

> <Gold.PLP.PLP>
-32.2423

> <Gold.PLP.part.hbond>
0.0000

> <Gold.PLP.part.metal>
0.0000

> <Gold.PLP.part.buried>
-4.9851

> <Gold.PLP.part.nonpolar>
-28.4848

> <Gold.PLP.part.repulsive>
0.2416

> <Gold.PLP.ligand.clash>
0.0000

> <Gold.PLP.ligand.torsion>
1.2567

> <Gold.PLP.Chemscore.Hbond>
0.0000

> <Gold.PLP.Chemscore.CHOScore>
1.0000

> <Gold.PLP.Chemscore.Metal>
0.0000

> <Gold.Chemscore.Hbonds>
donor molecule, donor type, donor heavy atom, donor atom, acceptor molecule, acceptor atom, score
      L1  C     7    15       P1   582  1.00

> <Gold.PLP.Chemscore.Internal.Correction>
0.0002

