#       Name:                EN300-180241_i001
#       Creating user name   aseyller
#       Creation time:       Fri Apr 21 19:46:07 2023


#       File generated by GOLD software.
#

@<TRIPOS>MOLECULE
EN300-180241_i001|benzaldehydes|mol2|935|dock1
    16    16     1
SMALL
USER_CHARGES


@<TRIPOS>ATOM
      1 C1          31.6467  36.3252  37.9857 C.3            1 <1>                0.0000
      2 O2          30.4064  36.3416  38.7404 O.3            1 <1>                0.0000
      3 C3          29.3748  37.0267  38.2077 C.2            1 <1>                0.0000
      4 O4          29.5328  37.6663  37.1864 O.2            1 <1>                0.0000
      5 C5          28.0577  37.0000  38.8624 C.2            1 <1>                0.0000
      6 S6          26.5501  37.6204  38.1942 S.3            1 <1>                0.0000
      7 C7          25.7101  37.1465  39.6042 C.2            1 <1>                0.0000
      8 N8          26.5050  36.5913  40.4522 N.2            1 <1>                0.0000
      9 C9          27.7765  36.4779  40.1120 C.2            1 <1>                0.0000
     10 C10         28.7938  35.8659  40.9798 C.2            1 <1>                0.0000
     11 O11         28.4994  35.5091  42.1008 O.2            1 <1>                0.0000
     12 H12         31.4711  35.8766  37.0080 H              1 <1>                0.0000
     13 H13         32.0077  37.3456  37.8578 H              1 <1>                0.0000
     14 H14         32.3924  35.7409  38.5249 H              1 <1>                0.0000
     15 H15         24.6520  37.2933  39.7637 H              1 <1>                0.0000
     16 H16         29.8031  35.7342  40.6188 H              1 <1>                0.0000
@<TRIPOS>BOND
    1    1    2 1     
    2    1   12 1     
    3    1   13 1     
    4    1   14 1     
    5    2    3 1     
    6    3    4 2     
    7    3    5 1     
    8    5    6 1     
    9    5    9 2     
   10    6    7 1     
   11    7    8 2     
   12    7   15 1     
   13    8    9 1     
   14    9   10 1     
   15   10   11 2     
   16   10   16 1     
@<TRIPOS>SUBSTRUCTURE
      1 ****           1
@<TRIPOS>COMMENT
> <Gold.Version>
2022.2.0

> <Gold.Id.Protein>
1qkm|1qkm_protein|mol2

> <Gold.Protein.RotatedTorsions>
[  496  491  490  487 ] final -113.70 input  -89.99 | X-H torsion

> <Gold.Protein.ActiveResidues>
 MET295  LEU298  THR299  LEU301  ALA302  GLU305  TRP335  MET336  LEU339  MET340 
 GLY342  LEU343  ARG346  PHE356  ILE373  ILE376  PHE377  LEU380  LYS471  GLY472 
 MET473  HIS475  LEU476  LEU477  ASN478  MET479  VAL484  VAL487 

> <Gold.Protein.RotatedAtoms>
   36.9726   34.4334   40.8441 H   0  0  0  0  0  0  0  0  0  0  0  0  # atno 496  bound_to 491 

> <Gold.Score>
     Score     S(PLP)   S(hbond)     S(cho)   S(metal)  DE(clash)   DE(tors)     intcor
     34.50     -31.65       0.00       1.00       0.00       0.00       0.07       0.00

> <Gold.PLP.Fitness>
34.4954

> <Gold.PLP.PLP>
-31.6512

> <Gold.PLP.part.hbond>
-0.4461

> <Gold.PLP.part.metal>
0.0000

> <Gold.PLP.part.buried>
-5.0937

> <Gold.PLP.part.nonpolar>
-27.6707

> <Gold.PLP.part.repulsive>
0.6199

> <Gold.PLP.ligand.clash>
0.0000

> <Gold.PLP.ligand.torsion>
0.0717

> <Gold.PLP.Chemscore.Hbond>
0.0000

> <Gold.PLP.Chemscore.CHOScore>
0.9951

> <Gold.PLP.Chemscore.Metal>
0.0000

> <Gold.Chemscore.Hbonds>
donor molecule, donor type, donor heavy atom, donor atom, acceptor molecule, acceptor atom, score
      L1  C     7    15       P1  1131  1.00

> <Gold.PLP.Chemscore.Internal.Correction>
0.0024

