#       Name:                EN300-180241_i001
#       Creating user name   aseyller
#       Creation time:       Fri Apr 21 19:46:16 2023


#       File generated by GOLD software.
#

@<TRIPOS>MOLECULE
EN300-180241_i001|benzaldehydes|mol2|935|dock16
    16    16     1
SMALL
USER_CHARGES


@<TRIPOS>ATOM
      1 C1          29.7464  38.8722  36.1945 C.3            1 <1>                0.0000
      2 O2          29.5203  37.9746  37.3132 O.3            1 <1>                0.0000
      3 C3          28.2657  37.9102  37.8023 C.2            1 <1>                0.0000
      4 O4          27.3826  38.5770  37.2999 O.2            1 <1>                0.0000
      5 C5          27.9655  37.0326  38.9442 C.2            1 <1>                0.0000
      6 S6          26.3977  36.8388  39.7245 S.3            1 <1>                0.0000
      7 C7          27.0636  35.7106  40.8208 C.2            1 <1>                0.0000
      8 N8          28.3183  35.5289  40.5934 N.2            1 <1>                0.0000
      9 C9          28.8613  36.2050  39.5967 C.2            1 <1>                0.0000
     10 C10         30.2797  36.0957  39.2240 C.2            1 <1>                0.0000
     11 O11         30.5875  35.8195  38.0840 O.2            1 <1>                0.0000
     12 H12         29.1199  38.5713  35.3549 H              1 <1>                0.0000
     13 H13         29.4943  39.8908  36.4892 H              1 <1>                0.0000
     14 H14         30.7948  38.8282  35.8996 H              1 <1>                0.0000
     15 H15         26.5060  35.2153  41.6020 H              1 <1>                0.0000
     16 H16         31.0471  36.2614  39.9656 H              1 <1>                0.0000
@<TRIPOS>BOND
    1    1    2 1     
    2    1   12 1     
    3    1   13 1     
    4    1   14 1     
    5    2    3 1     
    6    3    4 2     
    7    3    5 1     
    8    5    6 1     
    9    5    9 2     
   10    6    7 1     
   11    7    8 2     
   12    7   15 1     
   13    8    9 1     
   14    9   10 1     
   15   10   11 2     
   16   10   16 1     
@<TRIPOS>SUBSTRUCTURE
      1 ****           1
@<TRIPOS>COMMENT
> <Gold.Version>
2022.2.0

> <Gold.Id.Protein>
1qkm|1qkm_protein|mol2

> <Gold.Protein.RotatedTorsions>
[  496  491  490  487 ] final   98.00 input  -89.99 | X-H torsion

> <Gold.Protein.ActiveResidues>
 MET295  LEU298  THR299  LEU301  ALA302  GLU305  TRP335  MET336  LEU339  MET340 
 GLY342  LEU343  ARG346  PHE356  ILE373  ILE376  PHE377  LEU380  LYS471  GLY472 
 MET473  HIS475  LEU476  LEU477  ASN478  MET479  VAL484  VAL487 

> <Gold.Protein.RotatedAtoms>
   36.8936   32.9775   41.9243 H   0  0  0  0  0  0  0  0  0  0  0  0  # atno 496  bound_to 491 

> <Gold.Score>
     Score     S(PLP)   S(hbond)     S(cho)   S(metal)  DE(clash)   DE(tors)     intcor
     31.41     -29.40       0.00       1.00       0.00       0.00       0.50       0.00

> <Gold.PLP.Fitness>
31.4053

> <Gold.PLP.PLP>
-29.4027

> <Gold.PLP.part.hbond>
0.0000

> <Gold.PLP.part.metal>
0.0000

> <Gold.PLP.part.buried>
-4.2939

> <Gold.PLP.part.nonpolar>
-25.4055

> <Gold.PLP.part.repulsive>
0.1514

> <Gold.PLP.ligand.clash>
0.0000

> <Gold.PLP.ligand.torsion>
0.4988

> <Gold.PLP.Chemscore.Hbond>
0.0000

> <Gold.PLP.Chemscore.CHOScore>
1.0000

> <Gold.PLP.Chemscore.Metal>
0.0000

> <Gold.Chemscore.Hbonds>
donor molecule, donor type, donor heavy atom, donor atom, acceptor molecule, acceptor atom, score
      L1  C     7    15       P1   582  1.00

> <Gold.PLP.Chemscore.Internal.Correction>
0.0002

