#       Name:                EN300-180241_i001
#       Creating user name   aseyller
#       Creation time:       Fri Apr 21 19:46:12 2023


#       File generated by GOLD software.
#

@<TRIPOS>MOLECULE
EN300-180241_i001|benzaldehydes|mol2|935|dock9
    16    16     1
SMALL
USER_CHARGES


@<TRIPOS>ATOM
      1 C1          28.0929  39.2022  37.0005 C.3            1 <1>                0.0000
      2 O2          29.3175  38.8184  36.3212 O.3            1 <1>                0.0000
      3 C3          30.1027  37.9137  36.9396 C.2            1 <1>                0.0000
      4 O4          29.8014  37.5003  38.0421 O.2            1 <1>                0.0000
      5 C5          31.3240  37.4267  36.2800 C.2            1 <1>                0.0000
      6 S6          32.0544  38.0903  34.8204 S.3            1 <1>                0.0000
      7 C7          33.3014  36.9250  34.8939 C.2            1 <1>                0.0000
      8 N8          33.1500  36.1482  35.9101 N.2            1 <1>                0.0000
      9 C9          32.1112  36.3682  36.6962 C.2            1 <1>                0.0000
     10 C10         31.8158  35.5618  37.8899 C.2            1 <1>                0.0000
     11 O11         32.1011  34.3833  37.9112 O.2            1 <1>                0.0000
     12 H12         27.4668  38.3220  37.1458 H              1 <1>                0.0000
     13 H13         28.3362  39.6390  37.9690 H              1 <1>                0.0000
     14 H14         27.5565  39.9340  36.3964 H              1 <1>                0.0000
     15 H15         34.1099  36.8493  34.1818 H              1 <1>                0.0000
     16 H16         31.3449  36.0190  38.7475 H              1 <1>                0.0000
@<TRIPOS>BOND
    1    1    2 1     
    2    1   12 1     
    3    1   13 1     
    4    1   14 1     
    5    2    3 1     
    6    3    4 2     
    7    3    5 1     
    8    5    6 1     
    9    5    9 2     
   10    6    7 1     
   11    7    8 2     
   12    7   15 1     
   13    8    9 1     
   14    9   10 1     
   15   10   11 2     
   16   10   16 1     
@<TRIPOS>SUBSTRUCTURE
      1 ****           1
@<TRIPOS>COMMENT
> <Gold.Version>
2022.2.0

> <Gold.Id.Protein>
1qkm|1qkm_protein|mol2

> <Gold.Protein.RotatedTorsions>
[  496  491  490  487 ] final   41.11 input  -89.99 | X-H torsion

> <Gold.Protein.ActiveResidues>
 MET295  LEU298  THR299  LEU301  ALA302  GLU305  TRP335  MET336  LEU339  MET340 
 GLY342  LEU343  ARG346  PHE356  ILE373  ILE376  PHE377  LEU380  LYS471  GLY472 
 MET473  HIS475  LEU476  LEU477  ASN478  MET479  VAL484  VAL487 

> <Gold.Protein.RotatedAtoms>
   36.4109   33.5846   42.3780 H   0  0  0  0  0  0  0  0  0  0  0  0  # atno 496  bound_to 491 

> <Gold.Score>
     Score     S(PLP)   S(hbond)     S(cho)   S(metal)  DE(clash)   DE(tors)     intcor
     32.32     -29.88       0.00       1.00       0.00       0.00       0.28       0.00

> <Gold.PLP.Fitness>
32.3246

> <Gold.PLP.PLP>
-29.8827

> <Gold.PLP.part.hbond>
0.0000

> <Gold.PLP.part.metal>
0.0000

> <Gold.PLP.part.buried>
-4.6713

> <Gold.PLP.part.nonpolar>
-24.9977

> <Gold.PLP.part.repulsive>
0.1008

> <Gold.PLP.ligand.clash>
0.0000

> <Gold.PLP.ligand.torsion>
0.2761

> <Gold.PLP.Chemscore.Hbond>
0.0000

> <Gold.PLP.Chemscore.CHOScore>
0.9980

> <Gold.PLP.Chemscore.Metal>
0.0000

> <Gold.Chemscore.Hbonds>
donor molecule, donor type, donor heavy atom, donor atom, acceptor molecule, acceptor atom, score
      L1  C     7    15       P1  3229  1.00

> <Gold.PLP.Chemscore.Internal.Correction>
0.0002

