#       Name:                EN300-180241_i001
#       Creating user name   aseyller
#       Creation time:       Fri Apr 21 19:46:15 2023


#       File generated by GOLD software.
#

@<TRIPOS>MOLECULE
EN300-180241_i001|benzaldehydes|mol2|935|dock15
    16    16     1
SMALL
USER_CHARGES


@<TRIPOS>ATOM
      1 C1          26.7185  37.0844  38.8001 C.3            1 <1>                0.0000
      2 O2          28.0892  37.2013  38.3357 O.3            1 <1>                0.0000
      3 C3          28.9972  36.3765  38.8948 C.2            1 <1>                0.0000
      4 O4          28.6720  35.6451  39.8093 O.2            1 <1>                0.0000
      5 C5          30.3818  36.3616  38.3980 C.2            1 <1>                0.0000
      6 S6          31.6005  35.1384  38.7481 S.3            1 <1>                0.0000
      7 C7          32.7394  35.9732  37.7868 C.2            1 <1>                0.0000
      8 N8          32.2247  37.0400  37.2805 N.2            1 <1>                0.0000
      9 C9          30.9618  37.3022  37.5660 C.2            1 <1>                0.0000
     10 C10         30.2464  38.4822  37.0577 C.2            1 <1>                0.0000
     11 O11         30.8328  39.3036  36.3852 O.2            1 <1>                0.0000
     12 H12         26.3545  36.0752  38.6080 H              1 <1>                0.0000
     13 H13         26.6788  37.2875  39.8702 H              1 <1>                0.0000
     14 H14         26.0930  37.8031  38.2704 H              1 <1>                0.0000
     15 H15         33.7571  35.6496  37.6252 H              1 <1>                0.0000
     16 H16         29.1990  38.6173  37.2833 H              1 <1>                0.0000
@<TRIPOS>BOND
    1    1    2 1     
    2    1   12 1     
    3    1   13 1     
    4    1   14 1     
    5    2    3 1     
    6    3    4 2     
    7    3    5 1     
    8    5    6 1     
    9    5    9 2     
   10    6    7 1     
   11    7    8 2     
   12    7   15 1     
   13    8    9 1     
   14    9   10 1     
   15   10   11 2     
   16   10   16 1     
@<TRIPOS>SUBSTRUCTURE
      1 ****           1
@<TRIPOS>COMMENT
> <Gold.Version>
2022.2.0

> <Gold.Id.Protein>
1qkm|1qkm_protein|mol2

> <Gold.Protein.RotatedTorsions>
[  496  491  490  487 ] final   -8.89 input  -89.99 | X-H torsion

> <Gold.Protein.ActiveResidues>
 MET295  LEU298  THR299  LEU301  ALA302  GLU305  TRP335  MET336  LEU339  MET340 
 GLY342  LEU343  ARG346  PHE356  ILE373  ILE376  PHE377  LEU380  LYS471  GLY472 
 MET473  HIS475  LEU476  LEU477  ASN478  MET479  VAL484  VAL487 

> <Gold.Protein.RotatedAtoms>
   36.2612   34.3351   42.1548 H   0  0  0  0  0  0  0  0  0  0  0  0  # atno 496  bound_to 491 

> <Gold.Score>
     Score     S(PLP)   S(hbond)     S(cho)   S(metal)  DE(clash)   DE(tors)     intcor
     29.73     -29.96       0.00       0.00       0.00       0.00       0.11       0.00

> <Gold.PLP.Fitness>
29.7319

> <Gold.PLP.PLP>
-29.9603

> <Gold.PLP.part.hbond>
0.0000

> <Gold.PLP.part.metal>
0.0000

> <Gold.PLP.part.buried>
-4.0301

> <Gold.PLP.part.nonpolar>
-26.6425

> <Gold.PLP.part.repulsive>
0.0599

> <Gold.PLP.ligand.clash>
0.0000

> <Gold.PLP.ligand.torsion>
0.1143

> <Gold.PLP.Chemscore.Hbond>
0.0000

> <Gold.PLP.Chemscore.CHOScore>
0.0000

> <Gold.PLP.Chemscore.Metal>
0.0000

> <Gold.PLP.Chemscore.Internal.Correction>
0.0002

