#       Name:                EN300-180241_i001
#       Creating user name   aseyller
#       Creation time:       Fri Apr 21 19:46:10 2023


#       File generated by GOLD software.
#

@<TRIPOS>MOLECULE
EN300-180241_i001|benzaldehydes|mol2|935|dock6
    16    16     1
SMALL
USER_CHARGES


@<TRIPOS>ATOM
      1 C1          31.7268  33.2969  38.5008 C.3            1 <1>                0.0000
      2 O2          32.2340  34.3045  37.5867 O.3            1 <1>                0.0000
      3 C3          31.6918  35.5359  37.6710 C.2            1 <1>                0.0000
      4 O4          30.9402  35.8075  38.5866 O.2            1 <1>                0.0000
      5 C5          32.0101  36.5510  36.6550 C.2            1 <1>                0.0000
      6 S6          33.2794  36.4434  35.4377 S.3            1 <1>                0.0000
      7 C7          32.8477  37.9794  34.8271 C.2            1 <1>                0.0000
      8 N8          31.8617  38.4800  35.4877 N.2            1 <1>                0.0000
      9 C9          31.3635  37.7608  36.4776 C.2            1 <1>                0.0000
     10 C10         30.2391  38.2065  37.3141 C.2            1 <1>                0.0000
     11 O11         29.6922  39.2637  37.0817 O.2            1 <1>                0.0000
     12 H12         31.8943  33.6208  39.5279 H              1 <1>                0.0000
     13 H13         30.6587  33.1587  38.3330 H              1 <1>                0.0000
     14 H14         32.2466  32.3546  38.3276 H              1 <1>                0.0000
     15 H15         33.3374  38.4668  33.9970 H              1 <1>                0.0000
     16 H16         29.9004  37.5923  38.1353 H              1 <1>                0.0000
@<TRIPOS>BOND
    1    1    2 1     
    2    1   12 1     
    3    1   13 1     
    4    1   14 1     
    5    2    3 1     
    6    3    4 2     
    7    3    5 1     
    8    5    6 1     
    9    5    9 2     
   10    6    7 1     
   11    7    8 2     
   12    7   15 1     
   13    8    9 1     
   14    9   10 1     
   15   10   11 2     
   16   10   16 1     
@<TRIPOS>SUBSTRUCTURE
      1 ****           1
@<TRIPOS>COMMENT
> <Gold.Version>
2022.2.0

> <Gold.Id.Protein>
1qkm|1qkm_protein|mol2

> <Gold.Protein.RotatedTorsions>
[  496  491  490  487 ] final  -84.07 input  -89.99 | X-H torsion

> <Gold.Protein.ActiveResidues>
 MET295  LEU298  THR299  LEU301  ALA302  GLU305  TRP335  MET336  LEU339  MET340 
 GLY342  LEU343  ARG346  PHE356  ILE373  ILE376  PHE377  LEU380  LYS471  GLY472 
 MET473  HIS475  LEU476  LEU477  ASN478  MET479  VAL484  VAL487 

> <Gold.Protein.RotatedAtoms>
   36.7028   34.6878   41.1525 H   0  0  0  0  0  0  0  0  0  0  0  0  # atno 496  bound_to 491 

> <Gold.Score>
     Score     S(PLP)   S(hbond)     S(cho)   S(metal)  DE(clash)   DE(tors)     intcor
     33.56     -30.84       0.00       1.00       0.00       0.00       0.14       0.00

> <Gold.PLP.Fitness>
33.5604

> <Gold.PLP.PLP>
-30.8413

> <Gold.PLP.part.hbond>
0.0000

> <Gold.PLP.part.metal>
0.0000

> <Gold.PLP.part.buried>
-5.0439

> <Gold.PLP.part.nonpolar>
-26.2100

> <Gold.PLP.part.repulsive>
0.1228

> <Gold.PLP.ligand.clash>
0.0000

> <Gold.PLP.ligand.torsion>
0.1405

> <Gold.PLP.Chemscore.Hbond>
0.0000

> <Gold.PLP.Chemscore.CHOScore>
1.0000

> <Gold.PLP.Chemscore.Metal>
0.0000

> <Gold.Chemscore.Hbonds>
donor molecule, donor type, donor heavy atom, donor atom, acceptor molecule, acceptor atom, score
      L1  C     7    15       P1  3229  1.00

> <Gold.PLP.Chemscore.Internal.Correction>
0.0002

