#       Name:                EN300-180241_i001
#       Creating user name   aseyller
#       Creation time:       Fri Apr 21 19:46:13 2023


#       File generated by GOLD software.
#

@<TRIPOS>MOLECULE
EN300-180241_i001|benzaldehydes|mol2|935|dock11
    16    16     1
SMALL
USER_CHARGES


@<TRIPOS>ATOM
      1 C1          31.6168  36.3438  37.8975 C.3            1 <1>                0.0000
      2 O2          30.5987  36.2540  38.9287 O.3            1 <1>                0.0000
      3 C3          29.4076  36.8276  38.6646 C.2            1 <1>                0.0000
      4 O4          29.2219  37.3787  37.5974 O.2            1 <1>                0.0000
      5 C5          28.3325  36.7862  39.6678 C.2            1 <1>                0.0000
      6 S6          28.5000  36.3037  41.3541 S.3            1 <1>                0.0000
      7 C7          26.8354  36.5832  41.6173 C.2            1 <1>                0.0000
      8 N8          26.2582  36.9901  40.5402 N.2            1 <1>                0.0000
      9 C9          27.0075  37.1248  39.4605 C.2            1 <1>                0.0000
     10 C10         26.4830  37.5803  38.1643 C.2            1 <1>                0.0000
     11 O11         26.9984  38.5210  37.5985 O.2            1 <1>                0.0000
     12 H12         31.2560  35.8637  36.9879 H              1 <1>                0.0000
     13 H13         31.8354  37.3919  37.6929 H              1 <1>                0.0000
     14 H14         32.5234  35.8433  38.2375 H              1 <1>                0.0000
     15 H15         26.3332  36.4374  42.5623 H              1 <1>                0.0000
     16 H16         25.6389  37.0772  37.7165 H              1 <1>                0.0000
@<TRIPOS>BOND
    1    1    2 1     
    2    1   12 1     
    3    1   13 1     
    4    1   14 1     
    5    2    3 1     
    6    3    4 2     
    7    3    5 1     
    8    5    6 1     
    9    5    9 2     
   10    6    7 1     
   11    7    8 2     
   12    7   15 1     
   13    8    9 1     
   14    9   10 1     
   15   10   11 2     
   16   10   16 1     
@<TRIPOS>SUBSTRUCTURE
      1 ****           1
@<TRIPOS>COMMENT
> <Gold.Version>
2022.2.0

> <Gold.Id.Protein>
1qkm|1qkm_protein|mol2

> <Gold.Protein.RotatedTorsions>
[  496  491  490  487 ] final   -7.92 input  -89.99 | X-H torsion

> <Gold.Protein.ActiveResidues>
 MET295  LEU298  THR299  LEU301  ALA302  GLU305  TRP335  MET336  LEU339  MET340 
 GLY342  LEU343  ARG346  PHE356  ILE373  ILE376  PHE377  LEU380  LYS471  GLY472 
 MET473  HIS475  LEU476  LEU477  ASN478  MET479  VAL484  VAL487 

> <Gold.Protein.RotatedAtoms>
   36.2604   34.3225   42.1644 H   0  0  0  0  0  0  0  0  0  0  0  0  # atno 496  bound_to 491 

> <Gold.Score>
     Score     S(PLP)   S(hbond)     S(cho)   S(metal)  DE(clash)   DE(tors)     intcor
     31.68     -29.80       0.00       1.00       0.00       0.01       0.56       0.00

> <Gold.PLP.Fitness>
31.6755

> <Gold.PLP.PLP>
-29.7984

> <Gold.PLP.part.hbond>
0.0000

> <Gold.PLP.part.metal>
0.0000

> <Gold.PLP.part.buried>
-2.8369

> <Gold.PLP.part.nonpolar>
-26.8920

> <Gold.PLP.part.repulsive>
0.1793

> <Gold.PLP.ligand.clash>
0.0119

> <Gold.PLP.ligand.torsion>
0.5556

> <Gold.PLP.Chemscore.Hbond>
0.0000

> <Gold.PLP.Chemscore.CHOScore>
1.0000

> <Gold.PLP.Chemscore.Metal>
0.0000

> <Gold.Chemscore.Hbonds>
donor molecule, donor type, donor heavy atom, donor atom, acceptor molecule, acceptor atom, score
      L1  C     7    15       P1   582  1.00

> <Gold.PLP.Chemscore.Internal.Correction>
0.0002

