#       Name:                EN300-180241_i001
#       Creating user name   aseyller
#       Creation time:       Fri Apr 21 19:46:13 2023


#       File generated by GOLD software.
#

@<TRIPOS>MOLECULE
EN300-180241_i001|benzaldehydes|mol2|935|dock12
    16    16     1
SMALL
USER_CHARGES


@<TRIPOS>ATOM
      1 C1          27.9530  36.1370  41.4804 C.3            1 <1>                0.0000
      2 O2          29.1030  35.7463  40.6849 O.3            1 <1>                0.0000
      3 C3          29.2516  36.3475  39.4874 C.2            1 <1>                0.0000
      4 O4          28.4017  37.1170  39.0841 O.2            1 <1>                0.0000
      5 C5          30.4426  36.0724  38.6689 C.2            1 <1>                0.0000
      6 S6          31.4991  34.6692  38.8065 S.3            1 <1>                0.0000
      7 C7          32.4727  35.2556  37.5312 C.2            1 <1>                0.0000
      8 N8          32.0227  36.3760  37.0825 N.2            1 <1>                0.0000
      9 C9          30.9332  36.8654  37.6472 C.2            1 <1>                0.0000
     10 C10         30.3094  38.1322  37.2366 C.2            1 <1>                0.0000
     11 O11         30.6896  38.6982  36.2338 O.2            1 <1>                0.0000
     12 H12         28.0042  37.2047  41.6933 H              1 <1>                0.0000
     13 H13         27.0386  35.9200  40.9283 H              1 <1>                0.0000
     14 H14         27.9528  35.5794  42.4170 H              1 <1>                0.0000
     15 H15         33.3502  34.7533  37.1515 H              1 <1>                0.0000
     16 H16         29.5128  38.5585  37.8283 H              1 <1>                0.0000
@<TRIPOS>BOND
    1    1    2 1     
    2    1   12 1     
    3    1   13 1     
    4    1   14 1     
    5    2    3 1     
    6    3    4 2     
    7    3    5 1     
    8    5    6 1     
    9    5    9 2     
   10    6    7 1     
   11    7    8 2     
   12    7   15 1     
   13    8    9 1     
   14    9   10 1     
   15   10   11 2     
   16   10   16 1     
@<TRIPOS>SUBSTRUCTURE
      1 ****           1
@<TRIPOS>COMMENT
> <Gold.Version>
2022.2.0

> <Gold.Id.Protein>
1qkm|1qkm_protein|mol2

> <Gold.Protein.RotatedTorsions>
[  496  491  490  487 ] final   84.12 input  -89.99 | X-H torsion

> <Gold.Protein.ActiveResidues>
 MET295  LEU298  THR299  LEU301  ALA302  GLU305  TRP335  MET336  LEU339  MET340 
 GLY342  LEU343  ARG346  PHE356  ILE373  ILE376  PHE377  LEU380  LYS471  GLY472 
 MET473  HIS475  LEU476  LEU477  ASN478  MET479  VAL484  VAL487 

> <Gold.Protein.RotatedAtoms>
   36.7659   33.0648   42.0918 H   0  0  0  0  0  0  0  0  0  0  0  0  # atno 496  bound_to 491 

> <Gold.Score>
     Score     S(PLP)   S(hbond)     S(cho)   S(metal)  DE(clash)   DE(tors)     intcor
     30.27     -30.71       0.00       0.00       0.00       0.00       0.22       0.00

> <Gold.PLP.Fitness>
30.2708

> <Gold.PLP.PLP>
-30.7120

> <Gold.PLP.part.hbond>
0.0000

> <Gold.PLP.part.metal>
0.0000

> <Gold.PLP.part.buried>
-3.4335

> <Gold.PLP.part.nonpolar>
-28.0296

> <Gold.PLP.part.repulsive>
0.2104

> <Gold.PLP.ligand.clash>
0.0000

> <Gold.PLP.ligand.torsion>
0.2207

> <Gold.PLP.Chemscore.Hbond>
0.0000

> <Gold.PLP.Chemscore.CHOScore>
0.0000

> <Gold.PLP.Chemscore.Metal>
0.0000

> <Gold.PLP.Chemscore.Internal.Correction>
0.0002

