#       Name:                EN300-180241_i001
#       Creating user name   aseyller
#       Creation time:       Fri Apr 21 19:46:07 2023


#       File generated by GOLD software.
#

@<TRIPOS>MOLECULE
EN300-180241_i001
    16    16     1
SMALL
USER_CHARGES


@<TRIPOS>ATOM
      1 C1           3.2033  -0.1077   0.0001 C.3            1 <1>                0.0000
      2 O2           1.9336   0.5966   0.0004 O.3            1 <1>                0.0000
      3 C3           0.8157  -0.1569   0.0015 C.2            1 <1>                0.0000
      4 O4           0.9001  -1.3693   0.0023 O.2            1 <1>                0.0000
      5 C5          -0.5063   0.4883   0.0019 C.2            1 <1>                0.0000
      6 S6          -0.8186   2.2223   0.0003 S.3            1 <1>                0.0000
      7 C7          -2.5028   1.9364   0.0009 C.2            1 <1>                0.0000
      8 N8          -2.7582   0.6739   0.0021 N.2            1 <1>                0.0000
      9 C9          -1.7303  -0.1560  -0.0025 C.2            1 <1>                0.0000
     10 C10         -1.8732  -1.6196  -0.0026 C.2            1 <1>                0.0000
     11 O11         -2.9774  -2.1210   0.0022 O.2            1 <1>                0.0000
     12 H12          3.2724  -0.7326   0.8904 H              1 <1>                0.0000
     13 H13          3.2713  -0.7338  -0.8895 H              1 <1>                0.0000
     14 H14          4.0195   0.6148  -0.0009 H              1 <1>                0.0000
     15 H15         -3.2544   2.7120   0.0008 H              1 <1>                0.0000
     16 H16         -0.9948  -2.2479  -0.0069 H              1 <1>                0.0000
@<TRIPOS>BOND
    1    1    2 1     
    2    1   12 1     
    3    1   13 1     
    4    1   14 1     
    5    2    3 1     
    6    3    4 2     
    7    3    5 1     
    8    5    6 1     
    9    5    9 2     
   10    6    7 1     
   11    7    8 2     
   12    7   15 1     
   13    8    9 1     
   14    9   10 1     
   15   10   11 2     
   16   10   16 1     
@<TRIPOS>SUBSTRUCTURE
      1 ****           1
