#       Name:                EN300-180241_i001
#       Creating user name   aseyller
#       Creation time:       Fri Apr 21 19:46:09 2023


#       File generated by GOLD software.
#

@<TRIPOS>MOLECULE
EN300-180241_i001|benzaldehydes|mol2|935|dock4
    16    16     1
SMALL
USER_CHARGES


@<TRIPOS>ATOM
      1 C1          30.7354  38.2046  36.6392 C.3            1 <1>                0.0000
      2 O2          29.4086  38.1026  37.2201 O.3            1 <1>                0.0000
      3 C3          29.2751  37.3162  38.3069 C.2            1 <1>                0.0000
      4 O4          30.2293  36.6904  38.7250 O.2            1 <1>                0.0000
      5 C5          27.9744  37.2156  38.9867 C.2            1 <1>                0.0000
      6 S6          26.4351  37.8261  38.3851 S.3            1 <1>                0.0000
      7 C7          25.6410  37.2527  39.7847 C.2            1 <1>                0.0000
      8 N8          26.4703  36.6766  40.5844 N.2            1 <1>                0.0000
      9 C9          27.7365  36.6191  40.2119 C.2            1 <1>                0.0000
     10 C10         28.7901  35.9917  41.0235 C.2            1 <1>                0.0000
     11 O11         28.5161  35.5001  42.0977 O.2            1 <1>                0.0000
     12 H12         31.4260  38.6084  37.3793 H              1 <1>                0.0000
     13 H13         31.0730  37.2159  36.3285 H              1 <1>                0.0000
     14 H14         30.7031  38.8662  35.7734 H              1 <1>                0.0000
     15 H15         24.5831  37.3595  39.9743 H              1 <1>                0.0000
     16 H16         29.8079  35.9687  40.6629 H              1 <1>                0.0000
@<TRIPOS>BOND
    1    1    2 1     
    2    1   12 1     
    3    1   13 1     
    4    1   14 1     
    5    2    3 1     
    6    3    4 2     
    7    3    5 1     
    8    5    6 1     
    9    5    9 2     
   10    6    7 1     
   11    7    8 2     
   12    7   15 1     
   13    8    9 1     
   14    9   10 1     
   15   10   11 2     
   16   10   16 1     
@<TRIPOS>SUBSTRUCTURE
      1 ****           1
@<TRIPOS>COMMENT
> <Gold.Version>
2022.2.0

> <Gold.Id.Protein>
1qkm|1qkm_protein|mol2

> <Gold.Protein.RotatedTorsions>
[  496  491  490  487 ] final  -52.89 input  -89.99 | X-H torsion

> <Gold.Protein.ActiveResidues>
 MET295  LEU298  THR299  LEU301  ALA302  GLU305  TRP335  MET336  LEU339  MET340 
 GLY342  LEU343  ARG346  PHE356  ILE373  ILE376  PHE377  LEU380  LYS471  GLY472 
 MET473  HIS475  LEU476  LEU477  ASN478  MET479  VAL484  VAL487 

> <Gold.Protein.RotatedAtoms>
   36.4445   34.7150   41.5878 H   0  0  0  0  0  0  0  0  0  0  0  0  # atno 496  bound_to 491 

> <Gold.Score>
     Score     S(PLP)   S(hbond)     S(cho)   S(metal)  DE(clash)   DE(tors)     intcor
     33.58     -30.70       0.00       1.00       0.00       0.00       0.06       0.00

> <Gold.PLP.Fitness>
33.5819

> <Gold.PLP.PLP>
-30.7001

> <Gold.PLP.part.hbond>
-0.4927

> <Gold.PLP.part.metal>
0.0000

> <Gold.PLP.part.buried>
-5.1303

> <Gold.PLP.part.nonpolar>
-25.9360

> <Gold.PLP.part.repulsive>
0.5396

> <Gold.PLP.ligand.clash>
0.0000

> <Gold.PLP.ligand.torsion>
0.0592

> <Gold.PLP.Chemscore.Hbond>
0.0000

> <Gold.PLP.Chemscore.CHOScore>
1.0000

> <Gold.PLP.Chemscore.Metal>
0.0000

> <Gold.Chemscore.Hbonds>
donor molecule, donor type, donor heavy atom, donor atom, acceptor molecule, acceptor atom, score
      L1  C     7    15       P1  1131  1.00

> <Gold.PLP.Chemscore.Internal.Correction>
0.0002

