#       Name:                EN300-180241_i001
#       Creating user name   aseyller
#       Creation time:       Fri Apr 21 19:46:11 2023


#       File generated by GOLD software.
#

@<TRIPOS>MOLECULE
EN300-180241_i001|benzaldehydes|mol2|935|dock8
    16    16     1
SMALL
USER_CHARGES


@<TRIPOS>ATOM
      1 C1          30.1957  39.9606  36.5885 C.3            1 <1>                0.0000
      2 O2          30.2401  38.6945  37.2977 O.3            1 <1>                0.0000
      3 C3          31.1752  37.8059  36.9059 C.2            1 <1>                0.0000
      4 O4          31.9211  38.0751  35.9850 O.2            1 <1>                0.0000
      5 C5          31.2927  36.5105  37.5931 C.2            1 <1>                0.0000
      6 S6          32.4192  35.2169  37.1907 S.3            1 <1>                0.0000
      7 C7          31.8001  34.2589  38.4625 C.2            1 <1>                0.0000
      8 N8          30.8595  34.8750  39.0908 N.2            1 <1>                0.0000
      9 C9          30.5432  36.0890  38.6766 C.2            1 <1>                0.0000
     10 C10         29.4920  36.9072  39.2995 C.2            1 <1>                0.0000
     11 O11         28.8054  36.4415  40.1840 O.2            1 <1>                0.0000
     12 H12         31.1512  40.4730  36.6996 H              1 <1>                0.0000
     13 H13         30.0018  39.7784  35.5315 H              1 <1>                0.0000
     14 H14         29.4005  40.5810  37.0020 H              1 <1>                0.0000
     15 H15         32.1509  33.2672  38.7072 H              1 <1>                0.0000
     16 H16         29.3314  37.9229  38.9692 H              1 <1>                0.0000
@<TRIPOS>BOND
    1    1    2 1     
    2    1   12 1     
    3    1   13 1     
    4    1   14 1     
    5    2    3 1     
    6    3    4 2     
    7    3    5 1     
    8    5    6 1     
    9    5    9 2     
   10    6    7 1     
   11    7    8 2     
   12    7   15 1     
   13    8    9 1     
   14    9   10 1     
   15   10   11 2     
   16   10   16 1     
@<TRIPOS>SUBSTRUCTURE
      1 ****           1
@<TRIPOS>COMMENT
> <Gold.Version>
2022.2.0

> <Gold.Id.Protein>
1qkm|1qkm_protein|mol2

> <Gold.Protein.RotatedTorsions>
[  496  491  490  487 ] final   56.48 input  -89.99 | X-H torsion

> <Gold.Protein.ActiveResidues>
 MET295  LEU298  THR299  LEU301  ALA302  GLU305  TRP335  MET336  LEU339  MET340 
 GLY342  LEU343  ARG346  PHE356  ILE373  ILE376  PHE377  LEU380  LYS471  GLY472 
 MET473  HIS475  LEU476  LEU477  ASN478  MET479  VAL484  VAL487 

> <Gold.Protein.RotatedAtoms>
   36.5229   33.3652   42.3235 H   0  0  0  0  0  0  0  0  0  0  0  0  # atno 496  bound_to 491 

> <Gold.Score>
     Score     S(PLP)   S(hbond)     S(cho)   S(metal)  DE(clash)   DE(tors)     intcor
     30.47     -30.49       0.00       0.00       0.00       0.00       0.01       0.00

> <Gold.PLP.Fitness>
30.4697

> <Gold.PLP.PLP>
-30.4873

> <Gold.PLP.part.hbond>
0.0000

> <Gold.PLP.part.metal>
0.0000

> <Gold.PLP.part.buried>
-4.2005

> <Gold.PLP.part.nonpolar>
-27.1132

> <Gold.PLP.part.repulsive>
0.1732

> <Gold.PLP.ligand.clash>
0.0000

> <Gold.PLP.ligand.torsion>
0.0088

> <Gold.PLP.Chemscore.Hbond>
0.0000

> <Gold.PLP.Chemscore.CHOScore>
0.0000

> <Gold.PLP.Chemscore.Metal>
0.0000

> <Gold.PLP.Chemscore.Internal.Correction>
0.0002

