#       Name:                EN300-180241_i001
#       Creating user name   aseyller
#       Creation time:       Fri Apr 21 19:46:17 2023


#       File generated by GOLD software.
#

@<TRIPOS>MOLECULE
EN300-180241_i001|benzaldehydes|mol2|935|dock17
    16    16     1
SMALL
USER_CHARGES


@<TRIPOS>ATOM
      1 C1          31.8565  37.0160  37.4480 C.3            1 <1>                0.0000
      2 O2          30.5809  37.2074  38.1147 O.3            1 <1>                0.0000
      3 C3          30.1662  36.2228  38.9369 C.2            1 <1>                0.0000
      4 O4          30.8581  35.2374  39.1023 O.2            1 <1>                0.0000
      5 C5          28.8761  36.3410  39.6339 C.2            1 <1>                0.0000
      6 S6          28.5004  35.7234  41.2407 S.3            1 <1>                0.0000
      7 C7          26.9070  36.3272  41.1189 C.2            1 <1>                0.0000
      8 N8          26.7202  36.9165  39.9889 N.2            1 <1>                0.0000
      9 C9          27.7393  36.9625  39.1495 C.2            1 <1>                0.0000
     10 C10         27.6692  37.6027  37.8275 C.2            1 <1>                0.0000
     11 O11         26.8637  38.4860  37.6235 O.2            1 <1>                0.0000
     12 H12         32.6436  36.9065  38.1940 H              1 <1>                0.0000
     13 H13         31.8130  36.1184  36.8312 H              1 <1>                0.0000
     14 H14         32.0704  37.8795  36.8182 H              1 <1>                0.0000
     15 H15         26.1552  36.2275  41.8879 H              1 <1>                0.0000
     16 H16         28.3350  37.2861  37.0383 H              1 <1>                0.0000
@<TRIPOS>BOND
    1    1    2 1     
    2    1   12 1     
    3    1   13 1     
    4    1   14 1     
    5    2    3 1     
    6    3    4 2     
    7    3    5 1     
    8    5    6 1     
    9    5    9 2     
   10    6    7 1     
   11    7    8 2     
   12    7   15 1     
   13    8    9 1     
   14    9   10 1     
   15   10   11 2     
   16   10   16 1     
@<TRIPOS>SUBSTRUCTURE
      1 ****           1
@<TRIPOS>COMMENT
> <Gold.Version>
2022.2.0

> <Gold.Id.Protein>
1qkm|1qkm_protein|mol2

> <Gold.Protein.RotatedTorsions>
[  496  491  490  487 ] final  132.96 input  -89.99 | X-H torsion

> <Gold.Protein.ActiveResidues>
 MET295  LEU298  THR299  LEU301  ALA302  GLU305  TRP335  MET336  LEU339  MET340 
 GLY342  LEU343  ARG346  PHE356  ILE373  ILE376  PHE377  LEU380  LYS471  GLY472 
 MET473  HIS475  LEU476  LEU477  ASN478  MET479  VAL484  VAL487 

> <Gold.Protein.RotatedAtoms>
   37.1724   32.9845   41.4312 H   0  0  0  0  0  0  0  0  0  0  0  0  # atno 496  bound_to 491 

> <Gold.Score>
     Score     S(PLP)   S(hbond)     S(cho)   S(metal)  DE(clash)   DE(tors)     intcor
     31.70     -29.97       0.00       0.97       0.00       0.00       0.59       0.00

> <Gold.PLP.Fitness>
31.7005

> <Gold.PLP.PLP>
-29.9700

> <Gold.PLP.part.hbond>
0.0000

> <Gold.PLP.part.metal>
0.0000

> <Gold.PLP.part.buried>
-4.0734

> <Gold.PLP.part.nonpolar>
-26.4138

> <Gold.PLP.part.repulsive>
0.2410

> <Gold.PLP.ligand.clash>
0.0000

> <Gold.PLP.ligand.torsion>
0.5893

> <Gold.PLP.Chemscore.Hbond>
0.0000

> <Gold.PLP.Chemscore.CHOScore>
0.9697

> <Gold.PLP.Chemscore.Metal>
0.0000

> <Gold.Chemscore.Hbonds>
donor molecule, donor type, donor heavy atom, donor atom, acceptor molecule, acceptor atom, score
      L1  C     7    15       P1   582  0.97

> <Gold.PLP.Chemscore.Internal.Correction>
0.0002

