#       Name:                EN300-180241_i001
#       Creating user name   aseyller
#       Creation time:       Fri Apr 21 19:46:14 2023


#       File generated by GOLD software.
#

@<TRIPOS>MOLECULE
EN300-180241_i001|benzaldehydes|mol2|935|dock13
    16    16     1
SMALL
USER_CHARGES


@<TRIPOS>ATOM
      1 C1          29.3934  39.3436  36.0929 C.3            1 <1>                0.0000
      2 O2          28.3935  38.8659  37.0310 O.3            1 <1>                0.0000
      3 C3          28.7297  37.8103  37.7992 C.2            1 <1>                0.0000
      4 O4          29.8412  37.3262  37.7138 O.2            1 <1>                0.0000
      5 C5          27.7514  37.2444  38.7408 C.2            1 <1>                0.0000
      6 S6          26.0301  37.6155  38.8021 S.3            1 <1>                0.0000
      7 C7          25.8274  36.5402  40.1139 C.2            1 <1>                0.0000
      8 N8          26.9453  35.9879  40.4369 N.2            1 <1>                0.0000
      9 C9          28.0144  36.3196  39.7353 C.2            1 <1>                0.0000
     10 C10         29.3530  35.7677  39.9922 C.2            1 <1>                0.0000
     11 O11         29.9680  35.2272  39.0975 O.2            1 <1>                0.0000
     12 H12         30.2858  39.6508  36.6381 H              1 <1>                0.0000
     13 H13         29.6497  38.5449  35.3970 H              1 <1>                0.0000
     14 H14         28.9952  40.1940  35.5393 H              1 <1>                0.0000
     15 H15         24.8861  36.3490  40.6077 H              1 <1>                0.0000
     16 H16         29.7885  35.8437  40.9776 H              1 <1>                0.0000
@<TRIPOS>BOND
    1    1    2 1     
    2    1   12 1     
    3    1   13 1     
    4    1   14 1     
    5    2    3 1     
    6    3    4 2     
    7    3    5 1     
    8    5    6 1     
    9    5    9 2     
   10    6    7 1     
   11    7    8 2     
   12    7   15 1     
   13    8    9 1     
   14    9   10 1     
   15   10   11 2     
   16   10   16 1     
@<TRIPOS>SUBSTRUCTURE
      1 ****           1
@<TRIPOS>COMMENT
> <Gold.Version>
2022.2.0

> <Gold.Id.Protein>
1qkm|1qkm_protein|mol2

> <Gold.Protein.RotatedTorsions>
[  496  491  490  487 ] final  -53.62 input  -89.99 | X-H torsion

> <Gold.Protein.ActiveResidues>
 MET295  LEU298  THR299  LEU301  ALA302  GLU305  TRP335  MET336  LEU339  MET340 
 GLY342  LEU343  ARG346  PHE356  ILE373  ILE376  PHE377  LEU380  LYS471  GLY472 
 MET473  HIS475  LEU476  LEU477  ASN478  MET479  VAL484  VAL487 

> <Gold.Protein.RotatedAtoms>
   36.4496   34.7173   41.5773 H   0  0  0  0  0  0  0  0  0  0  0  0  # atno 496  bound_to 491 

> <Gold.Score>
     Score     S(PLP)   S(hbond)     S(cho)   S(metal)  DE(clash)   DE(tors)     intcor
     32.42     -30.56       0.00       1.00       0.00       0.00       0.57       0.00

> <Gold.PLP.Fitness>
32.4169

> <Gold.PLP.PLP>
-30.5572

> <Gold.PLP.part.hbond>
0.0000

> <Gold.PLP.part.metal>
0.0000

> <Gold.PLP.part.buried>
-4.3897

> <Gold.PLP.part.nonpolar>
-26.2575

> <Gold.PLP.part.repulsive>
0.1718

> <Gold.PLP.ligand.clash>
0.0000

> <Gold.PLP.ligand.torsion>
0.5702

> <Gold.PLP.Chemscore.Hbond>
0.0000

> <Gold.PLP.Chemscore.CHOScore>
1.0000

> <Gold.PLP.Chemscore.Metal>
0.0000

> <Gold.Chemscore.Hbonds>
donor molecule, donor type, donor heavy atom, donor atom, acceptor molecule, acceptor atom, score
      L1  C     7    15       P1  1131  1.00

> <Gold.PLP.Chemscore.Internal.Correction>
0.0002

