#       Name:                EN300-180241_i001
#       Creating user name   aseyller
#       Creation time:       Fri Apr 21 19:46:15 2023


#       File generated by GOLD software.
#

@<TRIPOS>MOLECULE
EN300-180241_i001|benzaldehydes|mol2|935|dock14
    16    16     1
SMALL
USER_CHARGES


@<TRIPOS>ATOM
      1 C1          31.7972  34.0668  38.2396 C.3            1 <1>                0.0000
      2 O2          30.6315  34.6617  38.8685 O.3            1 <1>                0.0000
      3 C3          30.3070  35.9156  38.4941 C.2            1 <1>                0.0000
      4 O4          31.1725  36.6795  38.1143 O.2            1 <1>                0.0000
      5 C5          28.9053  36.3590  38.5452 C.2            1 <1>                0.0000
      6 S6          27.5691  35.5012  39.3087 S.3            1 <1>                0.0000
      7 C7          26.4876  36.7409  38.8483 C.2            1 <1>                0.0000
      8 N8          27.0985  37.6710  38.1995 N.2            1 <1>                0.0000
      9 C9          28.3978  37.5281  38.0078 C.2            1 <1>                0.0000
     10 C10         29.2211  38.5101  37.2864 C.2            1 <1>                0.0000
     11 O11         28.7141  39.5202  36.8467 O.2            1 <1>                0.0000
     12 H12         31.6442  34.0201  37.1614 H              1 <1>                0.0000
     13 H13         32.6763  34.6738  38.4559 H              1 <1>                0.0000
     14 H14         31.9461  33.0598  38.6294 H              1 <1>                0.0000
     15 H15         25.4309  36.7442  39.0715 H              1 <1>                0.0000
     16 H16         30.2772  38.3317  37.1481 H              1 <1>                0.0000
@<TRIPOS>BOND
    1    1    2 1     
    2    1   12 1     
    3    1   13 1     
    4    1   14 1     
    5    2    3 1     
    6    3    4 2     
    7    3    5 1     
    8    5    6 1     
    9    5    9 2     
   10    6    7 1     
   11    7    8 2     
   12    7   15 1     
   13    8    9 1     
   14    9   10 1     
   15   10   11 2     
   16   10   16 1     
@<TRIPOS>SUBSTRUCTURE
      1 ****           1
@<TRIPOS>COMMENT
> <Gold.Version>
2022.2.0

> <Gold.Id.Protein>
1qkm|1qkm_protein|mol2

> <Gold.Protein.RotatedTorsions>
[  496  491  490  487 ] final   89.41 input  -89.99 | X-H torsion

> <Gold.Protein.ActiveResidues>
 MET295  LEU298  THR299  LEU301  ALA302  GLU305  TRP335  MET336  LEU339  MET340 
 GLY342  LEU343  ARG346  PHE356  ILE373  ILE376  PHE377  LEU380  LYS471  GLY472 
 MET473  HIS475  LEU476  LEU477  ASN478  MET479  VAL484  VAL487 

> <Gold.Protein.RotatedAtoms>
   36.8148   33.0259   42.0313 H   0  0  0  0  0  0  0  0  0  0  0  0  # atno 496  bound_to 491 

> <Gold.Score>
     Score     S(PLP)   S(hbond)     S(cho)   S(metal)  DE(clash)   DE(tors)     intcor
     30.07     -30.92       0.00       0.00       0.00       0.00       0.43       0.00

> <Gold.PLP.Fitness>
30.0722

> <Gold.PLP.PLP>
-30.9235

> <Gold.PLP.part.hbond>
0.0000

> <Gold.PLP.part.metal>
0.0000

> <Gold.PLP.part.buried>
-4.1725

> <Gold.PLP.part.nonpolar>
-27.1314

> <Gold.PLP.part.repulsive>
0.1182

> <Gold.PLP.ligand.clash>
0.0000

> <Gold.PLP.ligand.torsion>
0.4258

> <Gold.PLP.Chemscore.Hbond>
0.0000

> <Gold.PLP.Chemscore.CHOScore>
0.0000

> <Gold.PLP.Chemscore.Metal>
0.0000

> <Gold.PLP.Chemscore.Internal.Correction>
0.0002

