#       Name:                EN300-115689_i001
#       Creating user name   aseyller
#       Creation time:       Fri Apr 21 19:44:10 2023


#       File generated by GOLD software.
#

@<TRIPOS>MOLECULE
EN300-115689_i001|benzaldehydes|mol2|925|dock9
    16    16     1
SMALL
USER_CHARGES


@<TRIPOS>ATOM
      1 O1          25.7793  37.5971  39.1164 O.2            1 <1>                0.0000
      2 C2          26.4854  36.7506  39.6224 C.2            1 <1>                0.0000
      3 C3          27.8844  36.6099  39.1956 C.ar           1 <1>                0.0000
      4 C4          28.7004  35.6330  39.7795 C.ar           1 <1>                0.0000
      5 C5          30.0002  35.5029  39.3816 C.ar           1 <1>                0.0000
      6 C6          30.5165  36.3446  38.3922 C.ar           1 <1>                0.0000
      7 C7          31.8798  36.2071  37.9759 C.1            1 <1>                0.0000
      8 C8          32.9973  36.0943  37.6346 C.1            1 <1>                0.0000
      9 C9          29.7031  37.3202  37.8084 C.ar           1 <1>                0.0000
     10 C10         28.4014  37.4486  38.2004 C.ar           1 <1>                0.0000
     11 H11         26.0871  36.1034  40.3898 H              1 <1>                0.0000
     12 H12         28.3020  34.9830  40.5445 H              1 <1>                0.0000
     13 H13         30.6297  34.7496  39.8318 H              1 <1>                0.0000
     14 H14         33.9969  35.9935  37.3294 H              1 <1>                0.0000
     15 H15         30.1034  37.9698  37.0441 H              1 <1>                0.0000
     16 H16         27.7732  38.2025  37.7492 H              1 <1>                0.0000
@<TRIPOS>BOND
    1    1    2 2     
    2    2    3 1     
    3    2   11 1     
    4    3    4 ar    
    5    3   10 ar    
    6    4    5 ar    
    7    4   12 1     
    8    5    6 ar    
    9    5   13 1     
   10    6    7 1     
   11    6    9 ar    
   12    7    8 3     
   13    8   14 1     
   14    9   10 ar    
   15    9   15 1     
   16   10   16 1     
@<TRIPOS>SUBSTRUCTURE
      1 ****           1
@<TRIPOS>COMMENT
> <Gold.Version>
2022.2.0

> <Gold.Id.Protein>
1qkm|1qkm_protein|mol2

> <Gold.Protein.RotatedTorsions>
[  496  491  490  487 ] final  -23.66 input  -89.99 | X-H torsion

> <Gold.Protein.ActiveResidues>
 MET295  LEU298  THR299  LEU301  ALA302  GLU305  TRP335  MET336  LEU339  MET340 
 GLY342  LEU343  ARG346  PHE356  ILE373  ILE376  PHE377  LEU380  LYS471  GLY472 
 MET473  HIS475  LEU476  LEU477  ASN478  MET479  VAL484  VAL487 

> <Gold.Protein.RotatedAtoms>
   36.2916   34.5094   41.9888 H   0  0  0  0  0  0  0  0  0  0  0  0  # atno 496  bound_to 491 

> <Gold.Score>
     Score     S(PLP)   S(hbond)     S(cho)   S(metal)  DE(clash)   DE(tors)     intcor
     35.00     -35.00       0.00       0.00       0.00       0.00       0.00       0.00

> <Gold.PLP.Fitness>
34.9983

> <Gold.PLP.PLP>
-34.9983

> <Gold.PLP.part.hbond>
0.0000

> <Gold.PLP.part.metal>
0.0000

> <Gold.PLP.part.buried>
-2.0625

> <Gold.PLP.part.nonpolar>
-32.8472

> <Gold.PLP.part.repulsive>
0.0677

> <Gold.PLP.ligand.clash>
0.0000

> <Gold.PLP.ligand.torsion>
0.0000

> <Gold.PLP.Chemscore.Hbond>
0.0000

> <Gold.PLP.Chemscore.CHOScore>
0.0000

> <Gold.PLP.Chemscore.Metal>
0.0000

> <Gold.PLP.Chemscore.Internal.Correction>
0.0000

