#       Name:                EN300-115689_i001
#       Creating user name   aseyller
#       Creation time:       Fri Apr 21 19:44:12 2023


#       File generated by GOLD software.
#

@<TRIPOS>MOLECULE
EN300-115689_i001|benzaldehydes|mol2|925|dock15
    16    16     1
SMALL
USER_CHARGES


@<TRIPOS>ATOM
      1 O1          30.2906  37.4777  35.9542 O.2            1 <1>                0.0000
      2 C2          30.4688  37.1368  37.1045 C.2            1 <1>                0.0000
      3 C3          29.3370  37.0895  38.0404 C.ar           1 <1>                0.0000
      4 C4          28.0469  37.4057  37.5967 C.ar           1 <1>                0.0000
      5 C5          26.9959  37.3609  38.4674 C.ar           1 <1>                0.0000
      6 C6          27.2073  37.0002  39.8012 C.ar           1 <1>                0.0000
      7 C7          26.1042  36.9537  40.7132 C.1            1 <1>                0.0000
      8 C8          25.1999  36.9156  41.4608 C.1            1 <1>                0.0000
      9 C9          28.4945  36.6843  40.2455 C.ar           1 <1>                0.0000
     10 C10         29.5464  36.7227  39.3757 C.ar           1 <1>                0.0000
     11 H11         31.4585  36.8636  37.4395 H              1 <1>                0.0000
     12 H12         27.8833  37.6851  36.5663 H              1 <1>                0.0000
     13 H13         26.0008  37.6047  38.1254 H              1 <1>                0.0000
     14 H14         24.3911  36.8815  42.1295 H              1 <1>                0.0000
     15 H15         28.6564  36.4058  41.2764 H              1 <1>                0.0000
     16 H16         30.5408  36.4786  39.7192 H              1 <1>                0.0000
@<TRIPOS>BOND
    1    1    2 2     
    2    2    3 1     
    3    2   11 1     
    4    3    4 ar    
    5    3   10 ar    
    6    4    5 ar    
    7    4   12 1     
    8    5    6 ar    
    9    5   13 1     
   10    6    7 1     
   11    6    9 ar    
   12    7    8 3     
   13    8   14 1     
   14    9   10 ar    
   15    9   15 1     
   16   10   16 1     
@<TRIPOS>SUBSTRUCTURE
      1 ****           1
@<TRIPOS>COMMENT
> <Gold.Version>
2022.2.0

> <Gold.Id.Protein>
1qkm|1qkm_protein|mol2

> <Gold.Protein.RotatedTorsions>
[  496  491  490  487 ] final -168.36 input  -89.99 | X-H torsion

> <Gold.Protein.ActiveResidues>
 MET295  LEU298  THR299  LEU301  ALA302  GLU305  TRP335  MET336  LEU339  MET340 
 GLY342  LEU343  ARG346  PHE356  ILE373  ILE376  PHE377  LEU380  LYS471  GLY472 
 MET473  HIS475  LEU476  LEU477  ASN478  MET479  VAL484  VAL487 

> <Gold.Protein.RotatedAtoms>
   37.3006   33.6340   40.7861 H   0  0  0  0  0  0  0  0  0  0  0  0  # atno 496  bound_to 491 

> <Gold.Score>
     Score     S(PLP)   S(hbond)     S(cho)   S(metal)  DE(clash)   DE(tors)     intcor
     34.96     -34.96       0.00       0.00       0.00       0.00       0.00       0.00

> <Gold.PLP.Fitness>
34.9602

> <Gold.PLP.PLP>
-34.9613

> <Gold.PLP.part.hbond>
0.0000

> <Gold.PLP.part.metal>
0.0000

> <Gold.PLP.part.buried>
0.2644

> <Gold.PLP.part.nonpolar>
-34.6636

> <Gold.PLP.part.repulsive>
0.0042

> <Gold.PLP.ligand.clash>
0.0000

> <Gold.PLP.ligand.torsion>
0.0006

> <Gold.PLP.Chemscore.Hbond>
0.0000

> <Gold.PLP.Chemscore.CHOScore>
0.0000

> <Gold.PLP.Chemscore.Metal>
0.0000

> <Gold.PLP.Chemscore.Internal.Correction>
0.0000

