#       Name:                EN300-115689_i001
#       Creating user name   aseyller
#       Creation time:       Fri Apr 21 19:44:14 2023


#       File generated by GOLD software.
#

@<TRIPOS>MOLECULE
EN300-115689_i001|benzaldehydes|mol2|925|dock19
    16    16     1
SMALL
USER_CHARGES


@<TRIPOS>ATOM
      1 O1          30.8828  36.1690  37.3154 O.2            1 <1>                0.0000
      2 C2          30.8431  36.1262  38.5269 C.2            1 <1>                0.0000
      3 C3          29.5666  36.3243  39.2275 C.ar           1 <1>                0.0000
      4 C4          29.5441  36.4439  40.6226 C.ar           1 <1>                0.0000
      5 C5          28.3573  36.6285  41.2724 C.ar           1 <1>                0.0000
      6 C6          27.1652  36.6975  40.5457 C.ar           1 <1>                0.0000
      7 C7          25.9214  36.8910  41.2284 C.1            1 <1>                0.0000
      8 C8          24.9018  37.0497  41.7882 C.1            1 <1>                0.0000
      9 C9          27.1862  36.5782  39.1531 C.ar           1 <1>                0.0000
     10 C10         28.3722  36.3994  38.5003 C.ar           1 <1>                0.0000
     11 H11         31.7449  35.9381  39.0905 H              1 <1>                0.0000
     12 H12         30.4650  36.3900  41.1845 H              1 <1>                0.0000
     13 H13         28.3397  36.7208  42.3484 H              1 <1>                0.0000
     14 H14         23.9897  37.1916  42.2887 H              1 <1>                0.0000
     15 H15         26.2644  36.6317  38.5929 H              1 <1>                0.0000
     16 H16         28.3881  36.3072  37.4243 H              1 <1>                0.0000
@<TRIPOS>BOND
    1    1    2 2     
    2    2    3 1     
    3    2   11 1     
    4    3    4 ar    
    5    3   10 ar    
    6    4    5 ar    
    7    4   12 1     
    8    5    6 ar    
    9    5   13 1     
   10    6    7 1     
   11    6    9 ar    
   12    7    8 3     
   13    8   14 1     
   14    9   10 ar    
   15    9   15 1     
   16   10   16 1     
@<TRIPOS>SUBSTRUCTURE
      1 ****           1
@<TRIPOS>COMMENT
> <Gold.Version>
2022.2.0

> <Gold.Id.Protein>
1qkm|1qkm_protein|mol2

> <Gold.Protein.RotatedTorsions>
[  496  491  490  487 ] final  -29.33 input  -89.99 | X-H torsion

> <Gold.Protein.ActiveResidues>
 MET295  LEU298  THR299  LEU301  ALA302  GLU305  TRP335  MET336  LEU339  MET340 
 GLY342  LEU343  ARG346  PHE356  ILE373  ILE376  PHE377  LEU380  LYS471  GLY472 
 MET473  HIS475  LEU476  LEU477  ASN478  MET479  VAL484  VAL487 

> <Gold.Protein.RotatedAtoms>
   36.3121   34.5650   41.9169 H   0  0  0  0  0  0  0  0  0  0  0  0  # atno 496  bound_to 491 

> <Gold.Score>
     Score     S(PLP)   S(hbond)     S(cho)   S(metal)  DE(clash)   DE(tors)     intcor
     34.49     -34.52       0.00       0.00       0.00       0.00       0.01       0.00

> <Gold.PLP.Fitness>
34.4865

> <Gold.PLP.PLP>
-34.5153

> <Gold.PLP.part.hbond>
0.0000

> <Gold.PLP.part.metal>
0.0000

> <Gold.PLP.part.buried>
4.2259

> <Gold.PLP.part.nonpolar>
-39.0996

> <Gold.PLP.part.repulsive>
0.0000

> <Gold.PLP.ligand.clash>
0.0000

> <Gold.PLP.ligand.torsion>
0.0144

> <Gold.PLP.Chemscore.Hbond>
0.0000

> <Gold.PLP.Chemscore.CHOScore>
0.0000

> <Gold.PLP.Chemscore.Metal>
0.0000

> <Gold.PLP.Chemscore.Internal.Correction>
0.0000

