#       Name:                EN300-115689_i001
#       Creating user name   aseyller
#       Creation time:       Fri Apr 21 19:44:08 2023


#       File generated by GOLD software.
#

@<TRIPOS>MOLECULE
EN300-115689_i001|benzaldehydes|mol2|925|dock2
    16    16     1
SMALL
USER_CHARGES


@<TRIPOS>ATOM
      1 O1          33.0276  37.1692  34.6330 O.2            1 <1>                0.0000
      2 C2          33.2039  36.4118  35.5638 C.2            1 <1>                0.0000
      3 C3          32.2572  36.3960  36.6876 C.ar           1 <1>                0.0000
      4 C4          32.3452  35.3960  37.6640 C.ar           1 <1>                0.0000
      5 C5          31.4651  35.3827  38.7081 C.ar           1 <1>                0.0000
      6 C6          30.4764  36.3663  38.8022 C.ar           1 <1>                0.0000
      7 C7          29.5541  36.3511  39.8975 C.1            1 <1>                0.0000
      8 C8          28.7981  36.3386  40.7956 C.1            1 <1>                0.0000
      9 C9          30.3874  37.3650  37.8282 C.ar           1 <1>                0.0000
     10 C10         31.2697  37.3841  36.7862 C.ar           1 <1>                0.0000
     11 H11         34.0542  35.7460  35.5645 H              1 <1>                0.0000
     12 H12         33.1086  34.6354  37.5912 H              1 <1>                0.0000
     13 H13         31.5327  34.6116  39.4613 H              1 <1>                0.0000
     14 H14         28.1219  36.3275  41.5987 H              1 <1>                0.0000
     15 H15         29.6229  38.1244  37.9021 H              1 <1>                0.0000
     16 H16         31.2007  38.1558  36.0339 H              1 <1>                0.0000
@<TRIPOS>BOND
    1    1    2 2     
    2    2    3 1     
    3    2   11 1     
    4    3    4 ar    
    5    3   10 ar    
    6    4    5 ar    
    7    4   12 1     
    8    5    6 ar    
    9    5   13 1     
   10    6    7 1     
   11    6    9 ar    
   12    7    8 3     
   13    8   14 1     
   14    9   10 ar    
   15    9   15 1     
   16   10   16 1     
@<TRIPOS>SUBSTRUCTURE
      1 ****           1
@<TRIPOS>COMMENT
> <Gold.Version>
2022.2.0

> <Gold.Id.Protein>
1qkm|1qkm_protein|mol2

> <Gold.Protein.RotatedTorsions>
[  496  491  490  487 ] final   94.43 input  -89.99 | X-H torsion

> <Gold.Protein.ActiveResidues>
 MET295  LEU298  THR299  LEU301  ALA302  GLU305  TRP335  MET336  LEU339  MET340 
 GLY342  LEU343  ARG346  PHE356  ILE373  ILE376  PHE377  LEU380  LYS471  GLY472 
 MET473  HIS475  LEU476  LEU477  ASN478  MET479  VAL484  VAL487 

> <Gold.Protein.RotatedAtoms>
   36.8610   32.9954   41.9700 H   0  0  0  0  0  0  0  0  0  0  0  0  # atno 496  bound_to 491 

> <Gold.Score>
     Score     S(PLP)   S(hbond)     S(cho)   S(metal)  DE(clash)   DE(tors)     intcor
     36.41     -36.45       0.00       0.00       0.00       0.00       0.02       0.00

> <Gold.PLP.Fitness>
36.4064

> <Gold.PLP.PLP>
-36.4468

> <Gold.PLP.part.hbond>
0.0000

> <Gold.PLP.part.metal>
0.0000

> <Gold.PLP.part.buried>
-2.6285

> <Gold.PLP.part.nonpolar>
-34.3643

> <Gold.PLP.part.repulsive>
0.1685

> <Gold.PLP.ligand.clash>
0.0000

> <Gold.PLP.ligand.torsion>
0.0202

> <Gold.PLP.Chemscore.Hbond>
0.0000

> <Gold.PLP.Chemscore.CHOScore>
0.0000

> <Gold.PLP.Chemscore.Metal>
0.0000

> <Gold.PLP.Chemscore.Internal.Correction>
0.0000

