#       Name:                EN300-115689_i001
#       Creating user name   aseyller
#       Creation time:       Fri Apr 21 19:44:13 2023


#       File generated by GOLD software.
#

@<TRIPOS>MOLECULE
EN300-115689_i001|benzaldehydes|mol2|925|dock18
    16    16     1
SMALL
USER_CHARGES


@<TRIPOS>ATOM
      1 O1          25.4974  37.3759  40.1814 O.2            1 <1>                0.0000
      2 C2          26.0302  37.4278  39.0930 C.2            1 <1>                0.0000
      3 C3          27.3350  36.7855  38.8824 C.ar           1 <1>                0.0000
      4 C4          27.5709  35.4980  39.3802 C.ar           1 <1>                0.0000
      5 C5          28.7837  34.9021  39.1835 C.ar           1 <1>                0.0000
      6 C6          29.7897  35.5769  38.4860 C.ar           1 <1>                0.0000
      7 C7          31.0611  34.9508  38.2804 C.1            1 <1>                0.0000
      8 C8          32.1034  34.4375  38.1119 C.1            1 <1>                0.0000
      9 C9          29.5557  36.8622  37.9886 C.ar           1 <1>                0.0000
     10 C10         28.3419  37.4581  38.1789 C.ar           1 <1>                0.0000
     11 H11         25.5435  37.9421  38.2775 H              1 <1>                0.0000
     12 H12         26.7939  34.9766  39.9198 H              1 <1>                0.0000
     13 H13         28.9658  33.9091  39.5672 H              1 <1>                0.0000
     14 H14         33.0356  33.9785  37.9611 H              1 <1>                0.0000
     15 H15         30.3339  37.3824  37.4499 H              1 <1>                0.0000
     16 H16         28.1614  38.4511  37.7945 H              1 <1>                0.0000
@<TRIPOS>BOND
    1    1    2 2     
    2    2    3 1     
    3    2   11 1     
    4    3    4 ar    
    5    3   10 ar    
    6    4    5 ar    
    7    4   12 1     
    8    5    6 ar    
    9    5   13 1     
   10    6    7 1     
   11    6    9 ar    
   12    7    8 3     
   13    8   14 1     
   14    9   10 ar    
   15    9   15 1     
   16   10   16 1     
@<TRIPOS>SUBSTRUCTURE
      1 ****           1
@<TRIPOS>COMMENT
> <Gold.Version>
2022.2.0

> <Gold.Id.Protein>
1qkm|1qkm_protein|mol2

> <Gold.Protein.RotatedTorsions>
[  496  491  490  487 ] final  174.71 input  -89.99 | X-H torsion

> <Gold.Protein.ActiveResidues>
 MET295  LEU298  THR299  LEU301  ALA302  GLU305  TRP335  MET336  LEU339  MET340 
 GLY342  LEU343  ARG346  PHE356  ILE373  ILE376  PHE377  LEU380  LYS471  GLY472 
 MET473  HIS475  LEU476  LEU477  ASN478  MET479  VAL484  VAL487 

> <Gold.Protein.RotatedAtoms>
   37.3185   33.3881   40.9139 H   0  0  0  0  0  0  0  0  0  0  0  0  # atno 496  bound_to 491 

> <Gold.Score>
     Score     S(PLP)   S(hbond)     S(cho)   S(metal)  DE(clash)   DE(tors)     intcor
     33.82     -34.55       0.00       0.00       0.00       0.00       0.37       0.00

> <Gold.PLP.Fitness>
33.8151

> <Gold.PLP.PLP>
-34.5510

> <Gold.PLP.part.hbond>
0.0000

> <Gold.PLP.part.metal>
0.0000

> <Gold.PLP.part.buried>
-2.2216

> <Gold.PLP.part.nonpolar>
-32.7011

> <Gold.PLP.part.repulsive>
0.1067

> <Gold.PLP.ligand.clash>
0.0000

> <Gold.PLP.ligand.torsion>
0.3680

> <Gold.PLP.Chemscore.Hbond>
0.0000

> <Gold.PLP.Chemscore.CHOScore>
0.0000

> <Gold.PLP.Chemscore.Metal>
0.0000

> <Gold.PLP.Chemscore.Internal.Correction>
0.0000

