#       Name:                EN300-115689_i001
#       Creating user name   aseyller
#       Creation time:       Fri Apr 21 19:44:09 2023


#       File generated by GOLD software.
#

@<TRIPOS>MOLECULE
EN300-115689_i001|benzaldehydes|mol2|925|dock5
    16    16     1
SMALL
USER_CHARGES


@<TRIPOS>ATOM
      1 O1          25.4953  37.0940  41.0407 O.2            1 <1>                0.0000
      2 C2          25.8014  37.2200  39.8738 C.2            1 <1>                0.0000
      3 C3          27.1878  36.9828  39.4483 C.ar           1 <1>                0.0000
      4 C4          28.1238  36.4776  40.3593 C.ar           1 <1>                0.0000
      5 C5          29.4117  36.2572  39.9624 C.ar           1 <1>                0.0000
      6 C6          29.7961  36.5360  38.6477 C.ar           1 <1>                0.0000
      7 C7          31.1470  36.3043  38.2329 C.1            1 <1>                0.0000
      8 C8          32.2545  36.1143  37.8929 C.1            1 <1>                0.0000
      9 C9          28.8628  37.0402  37.7373 C.ar           1 <1>                0.0000
     10 C10         27.5729  37.2562  38.1299 C.ar           1 <1>                0.0000
     11 H11         25.0542  37.5021  39.1470 H              1 <1>                0.0000
     12 H12         27.8273  36.2628  41.3754 H              1 <1>                0.0000
     13 H13         30.1338  35.8676  40.6648 H              1 <1>                0.0000
     14 H14         33.2449  35.9445  37.5887 H              1 <1>                0.0000
     15 H15         29.1611  37.2552  36.7218 H              1 <1>                0.0000
     16 H16         26.8520  37.6458  37.4263 H              1 <1>                0.0000
@<TRIPOS>BOND
    1    1    2 2     
    2    2    3 1     
    3    2   11 1     
    4    3    4 ar    
    5    3   10 ar    
    6    4    5 ar    
    7    4   12 1     
    8    5    6 ar    
    9    5   13 1     
   10    6    7 1     
   11    6    9 ar    
   12    7    8 3     
   13    8   14 1     
   14    9   10 ar    
   15    9   15 1     
   16   10   16 1     
@<TRIPOS>SUBSTRUCTURE
      1 ****           1
@<TRIPOS>COMMENT
> <Gold.Version>
2022.2.0

> <Gold.Id.Protein>
1qkm|1qkm_protein|mol2

> <Gold.Protein.RotatedTorsions>
[  496  491  490  487 ] final  -82.55 input  -89.99 | X-H torsion

> <Gold.Protein.ActiveResidues>
 MET295  LEU298  THR299  LEU301  ALA302  GLU305  TRP335  MET336  LEU339  MET340 
 GLY342  LEU343  ARG346  PHE356  ILE373  ILE376  PHE377  LEU380  LYS471  GLY472 
 MET473  HIS475  LEU476  LEU477  ASN478  MET479  VAL484  VAL487 

> <Gold.Protein.RotatedAtoms>
   36.6890   34.6952   41.1720 H   0  0  0  0  0  0  0  0  0  0  0  0  # atno 496  bound_to 491 

> <Gold.Score>
     Score     S(PLP)   S(hbond)     S(cho)   S(metal)  DE(clash)   DE(tors)     intcor
     36.66     -36.68       0.00       0.00       0.00       0.00       0.01       0.00

> <Gold.PLP.Fitness>
36.6591

> <Gold.PLP.PLP>
-36.6787

> <Gold.PLP.part.hbond>
0.0000

> <Gold.PLP.part.metal>
0.0000

> <Gold.PLP.part.buried>
-2.9542

> <Gold.PLP.part.nonpolar>
-34.0189

> <Gold.PLP.part.repulsive>
0.1716

> <Gold.PLP.ligand.clash>
0.0000

> <Gold.PLP.ligand.torsion>
0.0098

> <Gold.PLP.Chemscore.Hbond>
0.0000

> <Gold.PLP.Chemscore.CHOScore>
0.0000

> <Gold.PLP.Chemscore.Metal>
0.0000

> <Gold.PLP.Chemscore.Internal.Correction>
0.0000

