#       Name:                EN300-115689_i001
#       Creating user name   aseyller
#       Creation time:       Fri Apr 21 19:44:13 2023


#       File generated by GOLD software.
#

@<TRIPOS>MOLECULE
EN300-115689_i001|benzaldehydes|mol2|925|dock17
    16    16     1
SMALL
USER_CHARGES


@<TRIPOS>ATOM
      1 O1          32.6874  37.6253  36.4320 O.2            1 <1>                0.0000
      2 C2          32.3583  37.0289  37.4356 C.2            1 <1>                0.0000
      3 C3          30.9507  37.0210  37.8573 C.ar           1 <1>                0.0000
      4 C4          30.0248  37.8597  37.2244 C.ar           1 <1>                0.0000
      5 C5          28.7169  37.8510  37.6169 C.ar           1 <1>                0.0000
      6 C6          28.3021  37.0059  38.6502 C.ar           1 <1>                0.0000
      7 C7          26.9303  36.9979  39.0607 C.1            1 <1>                0.0000
      8 C8          25.8056  36.9914  39.3972 C.1            1 <1>                0.0000
      9 C9          29.2253  36.1682  39.2828 C.ar           1 <1>                0.0000
     10 C10         30.5326  36.1706  38.8884 C.ar           1 <1>                0.0000
     11 H11         33.0992  36.5000  38.0168 H              1 <1>                0.0000
     12 H12         30.3451  38.5133  36.4265 H              1 <1>                0.0000
     13 H13         28.0026  38.4977  37.1289 H              1 <1>                0.0000
     14 H14         24.7997  36.9855  39.6982 H              1 <1>                0.0000
     15 H15         28.9034  35.5157  40.0810 H              1 <1>                0.0000
     16 H16         31.2456  35.5233  39.3774 H              1 <1>                0.0000
@<TRIPOS>BOND
    1    1    2 2     
    2    2    3 1     
    3    2   11 1     
    4    3    4 ar    
    5    3   10 ar    
    6    4    5 ar    
    7    4   12 1     
    8    5    6 ar    
    9    5   13 1     
   10    6    7 1     
   11    6    9 ar    
   12    7    8 3     
   13    8   14 1     
   14    9   10 ar    
   15    9   15 1     
   16   10   16 1     
@<TRIPOS>SUBSTRUCTURE
      1 ****           1
@<TRIPOS>COMMENT
> <Gold.Version>
2022.2.0

> <Gold.Id.Protein>
1qkm|1qkm_protein|mol2

> <Gold.Protein.RotatedTorsions>
[  496  491  490  487 ] final -122.70 input  -89.99 | X-H torsion

> <Gold.Protein.ActiveResidues>
 MET295  LEU298  THR299  LEU301  ALA302  GLU305  TRP335  MET336  LEU339  MET340 
 GLY342  LEU343  ARG346  PHE356  ILE373  ILE376  PHE377  LEU380  LYS471  GLY472 
 MET473  HIS475  LEU476  LEU477  ASN478  MET479  VAL484  VAL487 

> <Gold.Protein.RotatedAtoms>
   37.0481   34.3210   40.7845 H   0  0  0  0  0  0  0  0  0  0  0  0  # atno 496  bound_to 491 

> <Gold.Score>
     Score     S(PLP)   S(hbond)     S(cho)   S(metal)  DE(clash)   DE(tors)     intcor
     34.29     -34.33       0.00       0.00       0.00       0.00       0.02       0.00

> <Gold.PLP.Fitness>
34.2857

> <Gold.PLP.PLP>
-34.3286

> <Gold.PLP.part.hbond>
0.0000

> <Gold.PLP.part.metal>
0.0000

> <Gold.PLP.part.buried>
-1.4694

> <Gold.PLP.part.nonpolar>
-33.1348

> <Gold.PLP.part.repulsive>
0.0151

> <Gold.PLP.ligand.clash>
0.0000

> <Gold.PLP.ligand.torsion>
0.0215

> <Gold.PLP.Chemscore.Hbond>
0.0000

> <Gold.PLP.Chemscore.CHOScore>
0.0000

> <Gold.PLP.Chemscore.Metal>
0.0000

> <Gold.PLP.Chemscore.Internal.Correction>
0.0000

