#       Name:                EN300-115689_i001
#       Creating user name   aseyller
#       Creation time:       Fri Apr 21 19:44:08 2023


#       File generated by GOLD software.
#

@<TRIPOS>MOLECULE
EN300-115689_i001|benzaldehydes|mol2|925|dock3
    16    16     1
SMALL
USER_CHARGES


@<TRIPOS>ATOM
      1 O1          32.2014  36.3540  37.8383 O.2            1 <1>                0.0000
      2 C2          31.1829  36.8523  37.4076 C.2            1 <1>                0.0000
      3 C3          29.9586  36.8403  38.2202 C.ar           1 <1>                0.0000
      4 C4          28.7482  37.2805  37.6704 C.ar           1 <1>                0.0000
      5 C5          27.6111  37.2684  38.4264 C.ar           1 <1>                0.0000
      6 C6          27.6549  36.8174  39.7487 C.ar           1 <1>                0.0000
      7 C7          26.4617  36.8053  40.5404 C.1            1 <1>                0.0000
      8 C8          25.4835  36.7954  41.1894 C.1            1 <1>                0.0000
      9 C9          28.8625  36.3778  40.2989 C.ar           1 <1>                0.0000
     10 C10         29.9999  36.3834  39.5434 C.ar           1 <1>                0.0000
     11 H11         31.1771  37.3088  36.4289 H              1 <1>                0.0000
     12 H12         28.7141  37.6296  36.6488 H              1 <1>                0.0000
     13 H13         26.6774  37.6077  38.0025 H              1 <1>                0.0000
     14 H14         24.6086  36.7865  41.7698 H              1 <1>                0.0000
     15 H15         28.8949  36.0296  41.3207 H              1 <1>                0.0000
     16 H16         30.9327  36.0437  39.9687 H              1 <1>                0.0000
@<TRIPOS>BOND
    1    1    2 2     
    2    2    3 1     
    3    2   11 1     
    4    3    4 ar    
    5    3   10 ar    
    6    4    5 ar    
    7    4   12 1     
    8    5    6 ar    
    9    5   13 1     
   10    6    7 1     
   11    6    9 ar    
   12    7    8 3     
   13    8   14 1     
   14    9   10 ar    
   15    9   15 1     
   16   10   16 1     
@<TRIPOS>SUBSTRUCTURE
      1 ****           1
@<TRIPOS>COMMENT
> <Gold.Version>
2022.2.0

> <Gold.Id.Protein>
1qkm|1qkm_protein|mol2

> <Gold.Protein.RotatedTorsions>
[  496  491  490  487 ] final -112.88 input  -89.99 | X-H torsion

> <Gold.Protein.ActiveResidues>
 MET295  LEU298  THR299  LEU301  ALA302  GLU305  TRP335  MET336  LEU339  MET340 
 GLY342  LEU343  ARG346  PHE356  ILE373  ILE376  PHE377  LEU380  LYS471  GLY472 
 MET473  HIS475  LEU476  LEU477  ASN478  MET479  VAL484  VAL487 

> <Gold.Protein.RotatedAtoms>
   36.9655   34.4429   40.8503 H   0  0  0  0  0  0  0  0  0  0  0  0  # atno 496  bound_to 491 

> <Gold.Score>
     Score     S(PLP)   S(hbond)     S(cho)   S(metal)  DE(clash)   DE(tors)     intcor
     35.14     -35.16       0.00       0.00       0.00       0.00       0.01       0.00

> <Gold.PLP.Fitness>
35.1398

> <Gold.PLP.PLP>
-35.1618

> <Gold.PLP.part.hbond>
0.0000

> <Gold.PLP.part.metal>
0.0000

> <Gold.PLP.part.buried>
-2.3016

> <Gold.PLP.part.nonpolar>
-33.4976

> <Gold.PLP.part.repulsive>
0.0293

> <Gold.PLP.ligand.clash>
0.0000

> <Gold.PLP.ligand.torsion>
0.0110

> <Gold.PLP.Chemscore.Hbond>
0.0000

> <Gold.PLP.Chemscore.CHOScore>
0.0000

> <Gold.PLP.Chemscore.Metal>
0.0000

> <Gold.PLP.Chemscore.Internal.Correction>
0.0000

