#       Name:                EN300-115689_i001
#       Creating user name   aseyller
#       Creation time:       Fri Apr 21 19:44:12 2023


#       File generated by GOLD software.
#

@<TRIPOS>MOLECULE
EN300-115689_i001|benzaldehydes|mol2|925|dock14
    16    16     1
SMALL
USER_CHARGES


@<TRIPOS>ATOM
      1 O1          33.1376  36.4508  35.5185 O.2            1 <1>                0.0000
      2 C2          33.2296  35.8088  36.5434 C.2            1 <1>                0.0000
      3 C3          32.1234  35.8066  37.5107 C.ar           1 <1>                0.0000
      4 C4          31.7986  34.6323  38.2012 C.ar           1 <1>                0.0000
      5 C5          30.7707  34.6317  39.1002 C.ar           1 <1>                0.0000
      6 C6          30.0426  35.8023  39.3311 C.ar           1 <1>                0.0000
      7 C7          28.9649  35.8002  40.2741 C.1            1 <1>                0.0000
      8 C8          28.0815  35.7984  41.0473 C.1            1 <1>                0.0000
      9 C9          30.3657  36.9752  38.6426 C.ar           1 <1>                0.0000
     10 C10         31.3968  36.9801  37.7473 C.ar           1 <1>                0.0000
     11 H11         34.1226  35.2352  36.7429 H              1 <1>                0.0000
     12 H12         32.3606  33.7274  38.0225 H              1 <1>                0.0000
     13 H13         30.5200  33.7262  39.6328 H              1 <1>                0.0000
     14 H14         27.2913  35.7969  41.7387 H              1 <1>                0.0000
     15 H15         29.8023  37.8790  38.8220 H              1 <1>                0.0000
     16 H16         31.6462  37.8864  37.2155 H              1 <1>                0.0000
@<TRIPOS>BOND
    1    1    2 2     
    2    2    3 1     
    3    2   11 1     
    4    3    4 ar    
    5    3   10 ar    
    6    4    5 ar    
    7    4   12 1     
    8    5    6 ar    
    9    5   13 1     
   10    6    7 1     
   11    6    9 ar    
   12    7    8 3     
   13    8   14 1     
   14    9   10 ar    
   15    9   15 1     
   16   10   16 1     
@<TRIPOS>SUBSTRUCTURE
      1 ****           1
@<TRIPOS>COMMENT
> <Gold.Version>
2022.2.0

> <Gold.Id.Protein>
1qkm|1qkm_protein|mol2

> <Gold.Protein.RotatedTorsions>
[  496  491  490  487 ] final   82.00 input  -89.99 | X-H torsion

> <Gold.Protein.ActiveResidues>
 MET295  LEU298  THR299  LEU301  ALA302  GLU305  TRP335  MET336  LEU339  MET340 
 GLY342  LEU343  ARG346  PHE356  ILE373  ILE376  PHE377  LEU380  LYS471  GLY472 
 MET473  HIS475  LEU476  LEU477  ASN478  MET479  VAL484  VAL487 

> <Gold.Protein.RotatedAtoms>
   36.7463   33.0822   42.1148 H   0  0  0  0  0  0  0  0  0  0  0  0  # atno 496  bound_to 491 

> <Gold.Score>
     Score     S(PLP)   S(hbond)     S(cho)   S(metal)  DE(clash)   DE(tors)     intcor
     36.30     -36.86       0.00       0.00       0.00       0.00       0.28       0.00

> <Gold.PLP.Fitness>
36.2990

> <Gold.PLP.PLP>
-36.8634

> <Gold.PLP.part.hbond>
0.0000

> <Gold.PLP.part.metal>
0.0000

> <Gold.PLP.part.buried>
-1.8668

> <Gold.PLP.part.nonpolar>
-35.0946

> <Gold.PLP.part.repulsive>
0.0989

> <Gold.PLP.ligand.clash>
0.0000

> <Gold.PLP.ligand.torsion>
0.2822

> <Gold.PLP.Chemscore.Hbond>
0.0000

> <Gold.PLP.Chemscore.CHOScore>
0.0000

> <Gold.PLP.Chemscore.Metal>
0.0000

> <Gold.PLP.Chemscore.Internal.Correction>
0.0000

