#       Name:                EN300-115689_i001
#       Creating user name   aseyller
#       Creation time:       Fri Apr 21 19:44:13 2023


#       File generated by GOLD software.
#

@<TRIPOS>MOLECULE
EN300-115689_i001|benzaldehydes|mol2|925|dock16
    16    16     1
SMALL
USER_CHARGES


@<TRIPOS>ATOM
      1 O1          25.5319  36.5592  40.9401 O.2            1 <1>                0.0000
      2 C2          26.5581  36.0832  40.5025 C.2            1 <1>                0.0000
      3 C3          27.3295  36.8101  39.4847 C.ar           1 <1>                0.0000
      4 C4          28.7250  36.6986  39.4509 C.ar           1 <1>                0.0000
      5 C5          29.4407  37.3742  38.5043 C.ar           1 <1>                0.0000
      6 C6          28.7809  38.1774  37.5696 C.ar           1 <1>                0.0000
      7 C7          29.5327  38.8853  36.5775 C.1            1 <1>                0.0000
      8 C8          30.1490  39.4658  35.7642 C.1            1 <1>                0.0000
      9 C9          27.3879  38.2897  37.6022 C.ar           1 <1>                0.0000
     10 C10         26.6694  37.6106  38.5440 C.ar           1 <1>                0.0000
     11 H11         26.9071  35.1273  40.8640 H              1 <1>                0.0000
     12 H12         29.2351  36.0786  40.1734 H              1 <1>                0.0000
     13 H13         30.5170  37.2883  38.4779 H              1 <1>                0.0000
     14 H14         30.7002  39.9849  35.0367 H              1 <1>                0.0000
     15 H15         26.8795  38.9106  36.8794 H              1 <1>                0.0000
     16 H16         25.5932  37.6976  38.5690 H              1 <1>                0.0000
@<TRIPOS>BOND
    1    1    2 2     
    2    2    3 1     
    3    2   11 1     
    4    3    4 ar    
    5    3   10 ar    
    6    4    5 ar    
    7    4   12 1     
    8    5    6 ar    
    9    5   13 1     
   10    6    7 1     
   11    6    9 ar    
   12    7    8 3     
   13    8   14 1     
   14    9   10 ar    
   15    9   15 1     
   16   10   16 1     
@<TRIPOS>SUBSTRUCTURE
      1 ****           1
@<TRIPOS>COMMENT
> <Gold.Version>
2022.2.0

> <Gold.Id.Protein>
1qkm|1qkm_protein|mol2

> <Gold.Protein.RotatedTorsions>
[  496  491  490  487 ] final   27.51 input  -89.99 | X-H torsion

> <Gold.Protein.ActiveResidues>
 MET295  LEU298  THR299  LEU301  ALA302  GLU305  TRP335  MET336  LEU339  MET340 
 GLY342  LEU343  ARG346  PHE356  ILE373  ILE376  PHE377  LEU380  LYS471  GLY472 
 MET473  HIS475  LEU476  LEU477  ASN478  MET479  VAL484  VAL487 

> <Gold.Protein.RotatedAtoms>
   36.3341   33.7943   42.3769 H   0  0  0  0  0  0  0  0  0  0  0  0  # atno 496  bound_to 491 

> <Gold.Score>
     Score     S(PLP)   S(hbond)     S(cho)   S(metal)  DE(clash)   DE(tors)     intcor
     34.90     -35.33       0.00       0.00       0.00       0.00       0.22       0.00

> <Gold.PLP.Fitness>
34.8968

> <Gold.PLP.PLP>
-35.3307

> <Gold.PLP.part.hbond>
0.0000

> <Gold.PLP.part.metal>
0.0000

> <Gold.PLP.part.buried>
-2.2066

> <Gold.PLP.part.nonpolar>
-32.8401

> <Gold.PLP.part.repulsive>
0.1964

> <Gold.PLP.ligand.clash>
0.0000

> <Gold.PLP.ligand.torsion>
0.2170

> <Gold.PLP.Chemscore.Hbond>
0.0000

> <Gold.PLP.Chemscore.CHOScore>
0.0000

> <Gold.PLP.Chemscore.Metal>
0.0000

> <Gold.PLP.Chemscore.Internal.Correction>
0.0000

