#       Name:                EN300-115689_i001
#       Creating user name   aseyller
#       Creation time:       Fri Apr 21 19:44:08 2023


#       File generated by GOLD software.
#

@<TRIPOS>MOLECULE
EN300-115689_i001|benzaldehydes|mol2|925|dock4
    16    16     1
SMALL
USER_CHARGES


@<TRIPOS>ATOM
      1 O1          25.3445  37.2969  42.2287 O.2            1 <1>                0.0000
      2 C2          25.4282  36.8317  41.1117 C.2            1 <1>                0.0000
      3 C3          26.7388  36.7282  40.4553 C.ar           1 <1>                0.0000
      4 C4          26.8420  36.8857  39.0675 C.ar           1 <1>                0.0000
      5 C5          28.0606  36.7898  38.4588 C.ar           1 <1>                0.0000
      6 C6          29.2047  36.5340  39.2201 C.ar           1 <1>                0.0000
      7 C7          30.4819  36.4336  38.5804 C.1            1 <1>                0.0000
      8 C8          31.5290  36.3513  38.0561 C.1            1 <1>                0.0000
      9 C9          29.1031  36.3765  40.6054 C.ar           1 <1>                0.0000
     10 C10         27.8867  36.4777  41.2174 C.ar           1 <1>                0.0000
     11 H11         24.5401  36.4895  40.6014 H              1 <1>                0.0000
     12 H12         25.9581  37.0827  38.4790 H              1 <1>                0.0000
     13 H13         28.1404  36.9112  37.3886 H              1 <1>                0.0000
     14 H14         32.4655  36.2777  37.5870 H              1 <1>                0.0000
     15 H15         29.9879  36.1789  41.1924 H              1 <1>                0.0000
     16 H16         27.8085  36.3559  42.2877 H              1 <1>                0.0000
@<TRIPOS>BOND
    1    1    2 2     
    2    2    3 1     
    3    2   11 1     
    4    3    4 ar    
    5    3   10 ar    
    6    4    5 ar    
    7    4   12 1     
    8    5    6 ar    
    9    5   13 1     
   10    6    7 1     
   11    6    9 ar    
   12    7    8 3     
   13    8   14 1     
   14    9   10 ar    
   15    9   15 1     
   16   10   16 1     
@<TRIPOS>SUBSTRUCTURE
      1 ****           1
@<TRIPOS>COMMENT
> <Gold.Version>
2022.2.0

> <Gold.Id.Protein>
1qkm|1qkm_protein|mol2

> <Gold.Protein.RotatedTorsions>
[  496  491  490  487 ] final  -25.99 input  -89.99 | X-H torsion

> <Gold.Protein.ActiveResidues>
 MET295  LEU298  THR299  LEU301  ALA302  GLU305  TRP335  MET336  LEU339  MET340 
 GLY342  LEU343  ARG346  PHE356  ILE373  ILE376  PHE377  LEU380  LYS471  GLY472 
 MET473  HIS475  LEU476  LEU477  ASN478  MET479  VAL484  VAL487 

> <Gold.Protein.RotatedAtoms>
   36.2994   34.5330   41.9598 H   0  0  0  0  0  0  0  0  0  0  0  0  # atno 496  bound_to 491 

> <Gold.Score>
     Score     S(PLP)   S(hbond)     S(cho)   S(metal)  DE(clash)   DE(tors)     intcor
     40.07     -40.15       0.13       0.00       0.00       0.00       0.23       0.00

> <Gold.PLP.Fitness>
40.0744

> <Gold.PLP.PLP>
-40.1488

> <Gold.PLP.part.hbond>
-0.6779

> <Gold.PLP.part.metal>
0.0000

> <Gold.PLP.part.buried>
-3.3721

> <Gold.PLP.part.nonpolar>
-37.3818

> <Gold.PLP.part.repulsive>
0.2756

> <Gold.PLP.ligand.clash>
0.0000

> <Gold.PLP.ligand.torsion>
0.2292

> <Gold.PLP.Chemscore.Hbond>
0.1280

> <Gold.PLP.Chemscore.CHOScore>
0.0000

> <Gold.PLP.Chemscore.Metal>
0.0000

> <Gold.Chemscore.Hbonds>
donor molecule, donor type, donor heavy atom, donor atom, acceptor molecule, acceptor atom, score
      P1  H  1258  1270       L1     1  0.13

> <Gold.PLP.Chemscore.Internal.Correction>
0.0000

