#       Name:                EN300-115689_i001
#       Creating user name   aseyller
#       Creation time:       Fri Apr 21 19:44:12 2023


#       File generated by GOLD software.
#

@<TRIPOS>MOLECULE
EN300-115689_i001|benzaldehydes|mol2|925|dock13
    16    16     1
SMALL
USER_CHARGES


@<TRIPOS>ATOM
      1 O1          31.2740  38.3277  34.4322 O.2            1 <1>                0.0000
      2 C2          31.6778  37.4507  35.1663 C.2            1 <1>                0.0000
      3 C3          31.0326  37.2266  36.4674 C.ar           1 <1>                0.0000
      4 C4          31.5789  36.3072  37.3715 C.ar           1 <1>                0.0000
      5 C5          30.9786  36.1003  38.5805 C.ar           1 <1>                0.0000
      6 C6          29.8191  36.8053  38.9156 C.ar           1 <1>                0.0000
      7 C7          29.1906  36.5873  40.1837 C.1            1 <1>                0.0000
      8 C8          28.6754  36.4086  41.2233 C.1            1 <1>                0.0000
      9 C9          29.2726  37.7234  38.0140 C.ar           1 <1>                0.0000
     10 C10         29.8741  37.9364  36.8068 C.ar           1 <1>                0.0000
     11 H11         32.5087  36.8316  34.8618 H              1 <1>                0.0000
     12 H12         32.4745  35.7618  37.1126 H              1 <1>                0.0000
     13 H13         31.3998  35.3913  39.2779 H              1 <1>                0.0000
     14 H14         28.2146  36.2487  42.1531 H              1 <1>                0.0000
     15 H15         28.3767  38.2674  38.2742 H              1 <1>                0.0000
     16 H16         29.4517  38.6458  36.1104 H              1 <1>                0.0000
@<TRIPOS>BOND
    1    1    2 2     
    2    2    3 1     
    3    2   11 1     
    4    3    4 ar    
    5    3   10 ar    
    6    4    5 ar    
    7    4   12 1     
    8    5    6 ar    
    9    5   13 1     
   10    6    7 1     
   11    6    9 ar    
   12    7    8 3     
   13    8   14 1     
   14    9   10 ar    
   15    9   15 1     
   16   10   16 1     
@<TRIPOS>SUBSTRUCTURE
      1 ****           1
@<TRIPOS>COMMENT
> <Gold.Version>
2022.2.0

> <Gold.Id.Protein>
1qkm|1qkm_protein|mol2

> <Gold.Protein.RotatedTorsions>
[  496  491  490  487 ] final  -75.85 input  -89.99 | X-H torsion

> <Gold.Protein.ActiveResidues>
 MET295  LEU298  THR299  LEU301  ALA302  GLU305  TRP335  MET336  LEU339  MET340 
 GLY342  LEU343  ARG346  PHE356  ILE373  ILE376  PHE377  LEU380  LYS471  GLY472 
 MET473  HIS475  LEU476  LEU477  ASN478  MET479  VAL484  VAL487 

> <Gold.Protein.RotatedAtoms>
   36.6289   34.7205   41.2609 H   0  0  0  0  0  0  0  0  0  0  0  0  # atno 496  bound_to 491 

> <Gold.Score>
     Score     S(PLP)   S(hbond)     S(cho)   S(metal)  DE(clash)   DE(tors)     intcor
     34.12     -34.13       0.00       0.00       0.00       0.00       0.01       0.00

> <Gold.PLP.Fitness>
34.1156

> <Gold.PLP.PLP>
-34.1334

> <Gold.PLP.part.hbond>
0.0000

> <Gold.PLP.part.metal>
0.0000

> <Gold.PLP.part.buried>
-2.1665

> <Gold.PLP.part.nonpolar>
-32.5776

> <Gold.PLP.part.repulsive>
0.0749

> <Gold.PLP.ligand.clash>
0.0000

> <Gold.PLP.ligand.torsion>
0.0089

> <Gold.PLP.Chemscore.Hbond>
0.0000

> <Gold.PLP.Chemscore.CHOScore>
0.0000

> <Gold.PLP.Chemscore.Metal>
0.0000

> <Gold.PLP.Chemscore.Internal.Correction>
0.0000

