#       Name:                EN300-115689_i001
#       Creating user name   aseyller
#       Creation time:       Fri Apr 21 19:44:11 2023


#       File generated by GOLD software.
#

@<TRIPOS>MOLECULE
EN300-115689_i001|benzaldehydes|mol2|925|dock12
    16    16     1
SMALL
USER_CHARGES


@<TRIPOS>ATOM
      1 O1          31.6865  33.1486  38.1732 O.2            1 <1>                0.0000
      2 C2          31.7863  34.1207  38.8917 C.2            1 <1>                0.0000
      3 C3          31.3228  35.4332  38.4207 C.ar           1 <1>                0.0000
      4 C4          31.9094  36.0201  37.2925 C.ar           1 <1>                0.0000
      5 C5          31.4774  37.2396  36.8555 C.ar           1 <1>                0.0000
      6 C6          30.4505  37.9023  37.5340 C.ar           1 <1>                0.0000
      7 C7          29.9985  39.1811  37.0746 C.1            1 <1>                0.0000
      8 C8          29.6280  40.2294  36.6979 C.1            1 <1>                0.0000
      9 C9          29.8641  37.3176  38.6602 C.ar           1 <1>                0.0000
     10 C10         30.2902  36.0957  39.0959 C.ar           1 <1>                0.0000
     11 H11         32.2117  34.0207  39.8793 H              1 <1>                0.0000
     12 H12         32.7033  35.5086  36.7685 H              1 <1>                0.0000
     13 H13         31.9296  37.6924  35.9855 H              1 <1>                0.0000
     14 H14         29.2966  41.1671  36.3611 H              1 <1>                0.0000
     15 H15         29.0708  37.8308  39.1834 H              1 <1>                0.0000
     16 H16         29.8370  35.6442  39.9661 H              1 <1>                0.0000
@<TRIPOS>BOND
    1    1    2 2     
    2    2    3 1     
    3    2   11 1     
    4    3    4 ar    
    5    3   10 ar    
    6    4    5 ar    
    7    4   12 1     
    8    5    6 ar    
    9    5   13 1     
   10    6    7 1     
   11    6    9 ar    
   12    7    8 3     
   13    8   14 1     
   14    9   10 ar    
   15    9   15 1     
   16   10   16 1     
@<TRIPOS>SUBSTRUCTURE
      1 ****           1
@<TRIPOS>COMMENT
> <Gold.Version>
2022.2.0

> <Gold.Id.Protein>
1qkm|1qkm_protein|mol2

> <Gold.Protein.RotatedTorsions>
[  496  491  490  487 ] final  -37.15 input  -89.99 | X-H torsion

> <Gold.Protein.ActiveResidues>
 MET295  LEU298  THR299  LEU301  ALA302  GLU305  TRP335  MET336  LEU339  MET340 
 GLY342  LEU343  ARG346  PHE356  ILE373  ILE376  PHE377  LEU380  LYS471  GLY472 
 MET473  HIS475  LEU476  LEU477  ASN478  MET479  VAL484  VAL487 

> <Gold.Protein.RotatedAtoms>
   36.3481   34.6299   41.8118 H   0  0  0  0  0  0  0  0  0  0  0  0  # atno 496  bound_to 491 

> <Gold.Score>
     Score     S(PLP)   S(hbond)     S(cho)   S(metal)  DE(clash)   DE(tors)     intcor
     34.66     -35.82       0.00       0.00       0.00       0.00       0.58       0.00

> <Gold.PLP.Fitness>
34.6613

> <Gold.PLP.PLP>
-35.8228

> <Gold.PLP.part.hbond>
0.0000

> <Gold.PLP.part.metal>
0.0000

> <Gold.PLP.part.buried>
-2.2016

> <Gold.PLP.part.nonpolar>
-34.0832

> <Gold.PLP.part.repulsive>
0.0325

> <Gold.PLP.ligand.clash>
0.0000

> <Gold.PLP.ligand.torsion>
0.5808

> <Gold.PLP.Chemscore.Hbond>
0.0000

> <Gold.PLP.Chemscore.CHOScore>
0.0000

> <Gold.PLP.Chemscore.Metal>
0.0000

> <Gold.PLP.Chemscore.Internal.Correction>
0.0000

