#       Name:                EN300-115689_i001
#       Creating user name   aseyller
#       Creation time:       Fri Apr 21 19:44:09 2023


#       File generated by GOLD software.
#

@<TRIPOS>MOLECULE
EN300-115689_i001|benzaldehydes|mol2|925|dock6
    16    16     1
SMALL
USER_CHARGES


@<TRIPOS>ATOM
      1 O1          28.2769  36.6952  40.6500 O.2            1 <1>                0.0000
      2 C2          29.0974  35.8292  40.4312 C.2            1 <1>                0.0000
      3 C3          30.0321  35.9703  39.3061 C.ar           1 <1>                0.0000
      4 C4          30.0408  37.1460  38.5453 C.ar           1 <1>                0.0000
      5 C5          30.9102  37.2760  37.5003 C.ar           1 <1>                0.0000
      6 C6          31.7909  36.2360  37.1895 C.ar           1 <1>                0.0000
      7 C7          32.7021  36.3737  36.0934 C.1            1 <1>                0.0000
      8 C8          33.4491  36.4866  35.1948 C.1            1 <1>                0.0000
      9 C9          31.7834  35.0618  37.9481 C.ar           1 <1>                0.0000
     10 C10         30.9190  34.9315  38.9971 C.ar           1 <1>                0.0000
     11 H11         29.1440  34.9567  41.0658 H              1 <1>                0.0000
     12 H12         29.3599  37.9495  38.7848 H              1 <1>                0.0000
     13 H13         30.9171  38.1827  36.9135 H              1 <1>                0.0000
     14 H14         34.1171  36.5875  34.3911 H              1 <1>                0.0000
     15 H15         32.4644  34.2591  37.7068 H              1 <1>                0.0000
     16 H16         30.9134  34.0242  39.5830 H              1 <1>                0.0000
@<TRIPOS>BOND
    1    1    2 2     
    2    2    3 1     
    3    2   11 1     
    4    3    4 ar    
    5    3   10 ar    
    6    4    5 ar    
    7    4   12 1     
    8    5    6 ar    
    9    5   13 1     
   10    6    7 1     
   11    6    9 ar    
   12    7    8 3     
   13    8   14 1     
   14    9   10 ar    
   15    9   15 1     
   16   10   16 1     
@<TRIPOS>SUBSTRUCTURE
      1 ****           1
@<TRIPOS>COMMENT
> <Gold.Version>
2022.2.0

> <Gold.Id.Protein>
1qkm|1qkm_protein|mol2

> <Gold.Protein.RotatedTorsions>
[  496  491  490  487 ] final  147.37 input  -89.99 | X-H torsion

> <Gold.Protein.ActiveResidues>
 MET295  LEU298  THR299  LEU301  ALA302  GLU305  TRP335  MET336  LEU339  MET340 
 GLY342  LEU343  ARG346  PHE356  ILE373  ILE376  PHE377  LEU380  LYS471  GLY472 
 MET473  HIS475  LEU476  LEU477  ASN478  MET479  VAL484  VAL487 

> <Gold.Protein.RotatedAtoms>
   37.2513   33.0812   41.2302 H   0  0  0  0  0  0  0  0  0  0  0  0  # atno 496  bound_to 491 

> <Gold.Score>
     Score     S(PLP)   S(hbond)     S(cho)   S(metal)  DE(clash)   DE(tors)     intcor
     36.10     -36.11       0.00       0.00       0.00       0.00       0.00       0.00

> <Gold.PLP.Fitness>
36.0995

> <Gold.PLP.PLP>
-36.1085

> <Gold.PLP.part.hbond>
0.0000

> <Gold.PLP.part.metal>
0.0000

> <Gold.PLP.part.buried>
-1.2555

> <Gold.PLP.part.nonpolar>
-34.8230

> <Gold.PLP.part.repulsive>
0.0747

> <Gold.PLP.ligand.clash>
0.0000

> <Gold.PLP.ligand.torsion>
0.0045

> <Gold.PLP.Chemscore.Hbond>
0.0000

> <Gold.PLP.Chemscore.CHOScore>
0.0000

> <Gold.PLP.Chemscore.Metal>
0.0000

> <Gold.PLP.Chemscore.Internal.Correction>
0.0000

