#       Name:                EN300-115689_i001
#       Creating user name   aseyller
#       Creation time:       Fri Apr 21 19:44:11 2023


#       File generated by GOLD software.
#

@<TRIPOS>MOLECULE
EN300-115689_i001|benzaldehydes|mol2|925|dock11
    16    16     1
SMALL
USER_CHARGES


@<TRIPOS>ATOM
      1 O1          28.8060  35.8035  41.2210 O.2            1 <1>                0.0000
      2 C2          28.5794  36.6188  40.3521 C.2            1 <1>                0.0000
      3 C3          29.4859  36.7376  39.2016 C.ar           1 <1>                0.0000
      4 C4          30.6033  35.8995  39.1004 C.ar           1 <1>                0.0000
      5 C5          31.4446  36.0106  38.0306 C.ar           1 <1>                0.0000
      6 C6          31.1912  36.9606  37.0370 C.ar           1 <1>                0.0000
      7 C7          32.0744  37.0760  35.9156 C.1            1 <1>                0.0000
      8 C8          32.7984  37.1705  34.9963 C.1            1 <1>                0.0000
      9 C9          30.0762  37.7978  37.1367 C.ar           1 <1>                0.0000
     10 C10         29.2301  37.6850  38.2025 C.ar           1 <1>                0.0000
     11 H11         27.7090  37.2543  40.4217 H              1 <1>                0.0000
     12 H12         30.7997  35.1658  39.8683 H              1 <1>                0.0000
     13 H13         32.3064  35.3644  37.9522 H              1 <1>                0.0000
     14 H14         33.4459  37.2551  34.1741 H              1 <1>                0.0000
     15 H15         29.8816  38.5314  36.3683 H              1 <1>                0.0000
     16 H16         28.3687  38.3320  38.2794 H              1 <1>                0.0000
@<TRIPOS>BOND
    1    1    2 2     
    2    2    3 1     
    3    2   11 1     
    4    3    4 ar    
    5    3   10 ar    
    6    4    5 ar    
    7    4   12 1     
    8    5    6 ar    
    9    5   13 1     
   10    6    7 1     
   11    6    9 ar    
   12    7    8 3     
   13    8   14 1     
   14    9   10 ar    
   15    9   15 1     
   16   10   16 1     
@<TRIPOS>SUBSTRUCTURE
      1 ****           1
@<TRIPOS>COMMENT
> <Gold.Version>
2022.2.0

> <Gold.Id.Protein>
1qkm|1qkm_protein|mol2

> <Gold.Protein.RotatedTorsions>
[  496  491  490  487 ] final  158.41 input  -89.99 | X-H torsion

> <Gold.Protein.ActiveResidues>
 MET295  LEU298  THR299  LEU301  ALA302  GLU305  TRP335  MET336  LEU339  MET340 
 GLY342  LEU343  ARG346  PHE356  ILE373  ILE376  PHE377  LEU380  LYS471  GLY472 
 MET473  HIS475  LEU476  LEU477  ASN478  MET479  VAL484  VAL487 

> <Gold.Protein.RotatedAtoms>
   37.2923   33.1879   41.0892 H   0  0  0  0  0  0  0  0  0  0  0  0  # atno 496  bound_to 491 

> <Gold.Score>
     Score     S(PLP)   S(hbond)     S(cho)   S(metal)  DE(clash)   DE(tors)     intcor
     33.77     -33.77       0.00       0.00       0.00       0.00       0.00       0.00

> <Gold.PLP.Fitness>
33.7729

> <Gold.PLP.PLP>
-33.7731

> <Gold.PLP.part.hbond>
0.0000

> <Gold.PLP.part.metal>
0.0000

> <Gold.PLP.part.buried>
-2.3256

> <Gold.PLP.part.nonpolar>
-31.4911

> <Gold.PLP.part.repulsive>
0.1509

> <Gold.PLP.ligand.clash>
0.0000

> <Gold.PLP.ligand.torsion>
0.0001

> <Gold.PLP.Chemscore.Hbond>
0.0000

> <Gold.PLP.Chemscore.CHOScore>
0.0000

> <Gold.PLP.Chemscore.Metal>
0.0000

> <Gold.PLP.Chemscore.Internal.Correction>
0.0000

