#       Name:                EN300-115689_i001
#       Creating user name   aseyller
#       Creation time:       Fri Apr 21 19:44:07 2023


#       File generated by GOLD software.
#

@<TRIPOS>MOLECULE
EN300-115689_i001|benzaldehydes|mol2|925|dock1
    16    16     1
SMALL
USER_CHARGES


@<TRIPOS>ATOM
      1 O1          24.8030  36.6698  41.9508 O.2            1 <1>                0.0000
      2 C2          25.4995  37.3039  41.1867 C.2            1 <1>                0.0000
      3 C3          26.7280  36.7068  40.6450 C.ar           1 <1>                0.0000
      4 C4          27.8415  36.5211  41.4738 C.ar           1 <1>                0.0000
      5 C5          28.9824  35.9657  40.9692 C.ar           1 <1>                0.0000
      6 C6          29.0395  35.5830  39.6260 C.ar           1 <1>                0.0000
      7 C7          30.2365  35.0007  39.0983 C.1            1 <1>                0.0000
      8 C8          31.2180  34.5233  38.6657 C.1            1 <1>                0.0000
      9 C9          27.9288  35.7678  38.7976 C.ar           1 <1>                0.0000
     10 C10         26.7847  36.3176  39.3009 C.ar           1 <1>                0.0000
     11 H11         25.2144  38.3055  40.9010 H              1 <1>                0.0000
     12 H12         27.7980  36.8173  42.5115 H              1 <1>                0.0000
     13 H13         29.8413  35.8223  41.6082 H              1 <1>                0.0000
     14 H14         32.0957  34.0963  38.2787 H              1 <1>                0.0000
     15 H15         27.9742  35.4717  37.7599 H              1 <1>                0.0000
     16 H16         25.9267  36.4603  38.6606 H              1 <1>                0.0000
@<TRIPOS>BOND
    1    1    2 2     
    2    2    3 1     
    3    2   11 1     
    4    3    4 ar    
    5    3   10 ar    
    6    4    5 ar    
    7    4   12 1     
    8    5    6 ar    
    9    5   13 1     
   10    6    7 1     
   11    6    9 ar    
   12    7    8 3     
   13    8   14 1     
   14    9   10 ar    
   15    9   15 1     
   16   10   16 1     
@<TRIPOS>SUBSTRUCTURE
      1 ****           1
@<TRIPOS>COMMENT
> <Gold.Version>
2022.2.0

> <Gold.Id.Protein>
1qkm|1qkm_protein|mol2

> <Gold.Protein.RotatedTorsions>
[  496  491  490  487 ] final  -18.04 input  -89.99 | X-H torsion

> <Gold.Protein.ActiveResidues>
 MET295  LEU298  THR299  LEU301  ALA302  GLU305  TRP335  MET336  LEU339  MET340 
 GLY342  LEU343  ARG346  PHE356  ILE373  ILE376  PHE377  LEU380  LYS471  GLY472 
 MET473  HIS475  LEU476  LEU477  ASN478  MET479  VAL484  VAL487 

> <Gold.Protein.RotatedAtoms>
   36.2760   34.4477   42.0561 H   0  0  0  0  0  0  0  0  0  0  0  0  # atno 496  bound_to 491 

> <Gold.Score>
     Score     S(PLP)   S(hbond)     S(cho)   S(metal)  DE(clash)   DE(tors)     intcor
     40.81     -40.30       0.62       0.00       0.00       0.00       0.68       0.00

> <Gold.PLP.Fitness>
40.8149

> <Gold.PLP.PLP>
-40.2955

> <Gold.PLP.part.hbond>
-0.7740

> <Gold.PLP.part.metal>
0.0000

> <Gold.PLP.part.buried>
-2.1719

> <Gold.PLP.part.nonpolar>
-38.4785

> <Gold.PLP.part.repulsive>
0.7778

> <Gold.PLP.ligand.clash>
0.0000

> <Gold.PLP.ligand.torsion>
0.6764

> <Gold.PLP.Chemscore.Hbond>
0.6240

> <Gold.PLP.Chemscore.CHOScore>
0.0000

> <Gold.PLP.Chemscore.Metal>
0.0000

> <Gold.Chemscore.Hbonds>
donor molecule, donor type, donor heavy atom, donor atom, acceptor molecule, acceptor atom, score
      P1  H  1258  1270       L1     1  0.62

> <Gold.PLP.Chemscore.Internal.Correction>
0.0000

