#       Name:                EN300-115689_i001
#       Creating user name   aseyller
#       Creation time:       Fri Apr 21 19:44:10 2023


#       File generated by GOLD software.
#

@<TRIPOS>MOLECULE
EN300-115689_i001|benzaldehydes|mol2|925|dock8
    16    16     1
SMALL
USER_CHARGES


@<TRIPOS>ATOM
      1 O1          32.9265  36.4402  37.5835 O.2            1 <1>                0.0000
      2 C2          32.2383  35.7582  38.3131 C.2            1 <1>                0.0000
      3 C3          30.8201  36.0904  38.5072 C.ar           1 <1>                0.0000
      4 C4          30.2767  37.2276  37.8967 C.ar           1 <1>                0.0000
      5 C5          28.9586  37.5350  38.0775 C.ar           1 <1>                0.0000
      6 C6          28.1517  36.7153  38.8720 C.ar           1 <1>                0.0000
      7 C7          26.7695  37.0389  39.0607 C.1            1 <1>                0.0000
      8 C8          25.6364  37.3041  39.2155 C.1            1 <1>                0.0000
      9 C9          28.6927  35.5799  39.4820 C.ar           1 <1>                0.0000
     10 C10         30.0091  35.2670  39.2982 C.ar           1 <1>                0.0000
     11 H11         32.6667  34.9042  38.8165 H              1 <1>                0.0000
     12 H12         30.9001  37.8615  37.2834 H              1 <1>                0.0000
     13 H13         28.5393  38.4119  37.6068 H              1 <1>                0.0000
     14 H14         24.6230  37.5413  39.3538 H              1 <1>                0.0000
     15 H15         28.0682  34.9475  40.0955 H              1 <1>                0.0000
     16 H16         30.4269  34.3897  39.7696 H              1 <1>                0.0000
@<TRIPOS>BOND
    1    1    2 2     
    2    2    3 1     
    3    2   11 1     
    4    3    4 ar    
    5    3   10 ar    
    6    4    5 ar    
    7    4   12 1     
    8    5    6 ar    
    9    5   13 1     
   10    6    7 1     
   11    6    9 ar    
   12    7    8 3     
   13    8   14 1     
   14    9   10 ar    
   15    9   15 1     
   16   10   16 1     
@<TRIPOS>SUBSTRUCTURE
      1 ****           1
@<TRIPOS>COMMENT
> <Gold.Version>
2022.2.0

> <Gold.Id.Protein>
1qkm|1qkm_protein|mol2

> <Gold.Protein.RotatedTorsions>
[  496  491  490  487 ] final  -60.98 input  -89.99 | X-H torsion

> <Gold.Protein.ActiveResidues>
 MET295  LEU298  THR299  LEU301  ALA302  GLU305  TRP335  MET336  LEU339  MET340 
 GLY342  LEU343  ARG346  PHE356  ILE373  ILE376  PHE377  LEU380  LYS471  GLY472 
 MET473  HIS475  LEU476  LEU477  ASN478  MET479  VAL484  VAL487 

> <Gold.Protein.RotatedAtoms>
   36.5046   34.7333   41.4705 H   0  0  0  0  0  0  0  0  0  0  0  0  # atno 496  bound_to 491 

> <Gold.Score>
     Score     S(PLP)   S(hbond)     S(cho)   S(metal)  DE(clash)   DE(tors)     intcor
     36.31     -36.32       0.00       0.00       0.00       0.00       0.00       0.00

> <Gold.PLP.Fitness>
36.3144

> <Gold.PLP.PLP>
-36.3181

> <Gold.PLP.part.hbond>
0.0000

> <Gold.PLP.part.metal>
0.0000

> <Gold.PLP.part.buried>
-2.2672

> <Gold.PLP.part.nonpolar>
-34.7891

> <Gold.PLP.part.repulsive>
0.0086

> <Gold.PLP.ligand.clash>
0.0000

> <Gold.PLP.ligand.torsion>
0.0018

> <Gold.PLP.Chemscore.Hbond>
0.0000

> <Gold.PLP.Chemscore.CHOScore>
0.0000

> <Gold.PLP.Chemscore.Metal>
0.0000

> <Gold.PLP.Chemscore.Internal.Correction>
0.0000

