#       Name:                EN300-115689_i001
#       Creating user name   aseyller
#       Creation time:       Fri Apr 21 19:44:09 2023


#       File generated by GOLD software.
#

@<TRIPOS>MOLECULE
EN300-115689_i001|benzaldehydes|mol2|925|dock7
    16    16     1
SMALL
USER_CHARGES


@<TRIPOS>ATOM
      1 O1          25.2094  37.3003  41.6128 O.2            1 <1>                0.0000
      2 C2          25.7673  36.4116  41.0043 C.2            1 <1>                0.0000
      3 C3          26.8442  36.7331  40.0577 C.ar           1 <1>                0.0000
      4 C4          26.5375  37.2901  38.8099 C.ar           1 <1>                0.0000
      5 C5          27.5392  37.5889  37.9313 C.ar           1 <1>                0.0000
      6 C6          28.8704  37.3385  38.2767 C.ar           1 <1>                0.0000
      7 C7          29.9199  37.6523  37.3543 C.1            1 <1>                0.0000
      8 C8          30.7803  37.9097  36.5982 C.1            1 <1>                0.0000
      9 C9          29.1781  36.7826  39.5218 C.ar           1 <1>                0.0000
     10 C10         28.1787  36.4882  40.4045 C.ar           1 <1>                0.0000
     11 H11         25.4755  35.3838  41.1616 H              1 <1>                0.0000
     12 H12         25.5089  37.4830  38.5425 H              1 <1>                0.0000
     13 H13         27.3029  38.0184  36.9690 H              1 <1>                0.0000
     14 H14         31.5498  38.1397  35.9219 H              1 <1>                0.0000
     15 H15         30.2070  36.5897  39.7873 H              1 <1>                0.0000
     16 H16         28.4167  36.0587  41.3665 H              1 <1>                0.0000
@<TRIPOS>BOND
    1    1    2 2     
    2    2    3 1     
    3    2   11 1     
    4    3    4 ar    
    5    3   10 ar    
    6    4    5 ar    
    7    4   12 1     
    8    5    6 ar    
    9    5   13 1     
   10    6    7 1     
   11    6    9 ar    
   12    7    8 3     
   13    8   14 1     
   14    9   10 ar    
   15    9   15 1     
   16   10   16 1     
@<TRIPOS>SUBSTRUCTURE
      1 ****           1
@<TRIPOS>COMMENT
> <Gold.Version>
2022.2.0

> <Gold.Id.Protein>
1qkm|1qkm_protein|mol2

> <Gold.Protein.RotatedTorsions>
[  496  491  490  487 ] final  -87.94 input  -89.99 | X-H torsion

> <Gold.Protein.ActiveResidues>
 MET295  LEU298  THR299  LEU301  ALA302  GLU305  TRP335  MET336  LEU339  MET340 
 GLY342  LEU343  ARG346  PHE356  ILE373  ILE376  PHE377  LEU380  LYS471  GLY472 
 MET473  HIS475  LEU476  LEU477  ASN478  MET479  VAL484  VAL487 

> <Gold.Protein.RotatedAtoms>
   36.7383   34.6663   41.1041 H   0  0  0  0  0  0  0  0  0  0  0  0  # atno 496  bound_to 491 

> <Gold.Score>
     Score     S(PLP)   S(hbond)     S(cho)   S(metal)  DE(clash)   DE(tors)     intcor
     36.61     -37.50       0.17       0.00       0.00       0.00       0.70       0.00

> <Gold.PLP.Fitness>
36.6139

> <Gold.PLP.PLP>
-37.4954

> <Gold.PLP.part.hbond>
-1.0000

> <Gold.PLP.part.metal>
0.0000

> <Gold.PLP.part.buried>
-2.8438

> <Gold.PLP.part.nonpolar>
-34.4273

> <Gold.PLP.part.repulsive>
0.2291

> <Gold.PLP.ligand.clash>
0.0000

> <Gold.PLP.ligand.torsion>
0.6994

> <Gold.PLP.Chemscore.Hbond>
0.1724

> <Gold.PLP.Chemscore.CHOScore>
0.0000

> <Gold.PLP.Chemscore.Metal>
0.0000

> <Gold.Chemscore.Hbonds>
donor molecule, donor type, donor heavy atom, donor atom, acceptor molecule, acceptor atom, score
      P1  H  1258  1270       L1     1  0.17

> <Gold.PLP.Chemscore.Internal.Correction>
0.0000

