#       Name:                EN300-115689_i001
#       Creating user name   aseyller
#       Creation time:       Fri Apr 21 19:44:14 2023


#       File generated by GOLD software.
#

@<TRIPOS>MOLECULE
EN300-115689_i001|benzaldehydes|mol2|925|dock20
    16    16     1
SMALL
USER_CHARGES


@<TRIPOS>ATOM
      1 O1          30.4335  40.3002  36.1452 O.2            1 <1>                0.0000
      2 C2          29.8762  39.6748  37.0223 C.2            1 <1>                0.0000
      3 C3          30.3116  38.3077  37.3400 C.ar           1 <1>                0.0000
      4 C4          31.2624  37.6698  36.5336 C.ar           1 <1>                0.0000
      5 C5          31.6665  36.3995  36.8302 C.ar           1 <1>                0.0000
      6 C6          31.1311  35.7358  37.9379 C.ar           1 <1>                0.0000
      7 C7          31.5558  34.4038  38.2477 C.1            1 <1>                0.0000
      8 C8          31.9039  33.3117  38.5016 C.1            1 <1>                0.0000
      9 C9          30.1820  36.3714  38.7436 C.ar           1 <1>                0.0000
     10 C10         29.7804  37.6436  38.4527 C.ar           1 <1>                0.0000
     11 H11         29.0630  40.1242  37.5728 H              1 <1>                0.0000
     12 H12         31.6756  38.1821  35.6773 H              1 <1>                0.0000
     13 H13         32.3997  35.9073  36.2085 H              1 <1>                0.0000
     14 H14         32.2153  32.3351  38.7288 H              1 <1>                0.0000
     15 H15         29.7692  35.8574  39.5991 H              1 <1>                0.0000
     16 H16         29.0470  38.1344  39.0754 H              1 <1>                0.0000
@<TRIPOS>BOND
    1    1    2 2     
    2    2    3 1     
    3    2   11 1     
    4    3    4 ar    
    5    3   10 ar    
    6    4    5 ar    
    7    4   12 1     
    8    5    6 ar    
    9    5   13 1     
   10    6    7 1     
   11    6    9 ar    
   12    7    8 3     
   13    8   14 1     
   14    9   10 ar    
   15    9   15 1     
   16   10   16 1     
@<TRIPOS>SUBSTRUCTURE
      1 ****           1
@<TRIPOS>COMMENT
> <Gold.Version>
2022.2.0

> <Gold.Id.Protein>
1qkm|1qkm_protein|mol2

> <Gold.Protein.RotatedTorsions>
[  496  491  490  487 ] final  -84.82 input  -89.99 | X-H torsion

> <Gold.Protein.ActiveResidues>
 MET295  LEU298  THR299  LEU301  ALA302  GLU305  TRP335  MET336  LEU339  MET340 
 GLY342  LEU343  ARG346  PHE356  ILE373  ILE376  PHE377  LEU380  LYS471  GLY472 
 MET473  HIS475  LEU476  LEU477  ASN478  MET479  VAL484  VAL487 

> <Gold.Protein.RotatedAtoms>
   36.7097   34.6839   41.1429 H   0  0  0  0  0  0  0  0  0  0  0  0  # atno 496  bound_to 491 

> <Gold.Score>
     Score     S(PLP)   S(hbond)     S(cho)   S(metal)  DE(clash)   DE(tors)     intcor
     35.15     -35.18       0.00       0.00       0.00       0.00       0.01       0.00

> <Gold.PLP.Fitness>
35.1540

> <Gold.PLP.PLP>
-35.1791

> <Gold.PLP.part.hbond>
0.0000

> <Gold.PLP.part.metal>
0.0000

> <Gold.PLP.part.buried>
-2.0796

> <Gold.PLP.part.nonpolar>
-33.6075

> <Gold.PLP.part.repulsive>
0.0000

> <Gold.PLP.ligand.clash>
0.0000

> <Gold.PLP.ligand.torsion>
0.0126

> <Gold.PLP.Chemscore.Hbond>
0.0000

> <Gold.PLP.Chemscore.CHOScore>
0.0000

> <Gold.PLP.Chemscore.Metal>
0.0000

> <Gold.PLP.Chemscore.Internal.Correction>
0.0000

