#       Name:                EN300-115689_i001
#       Creating user name   aseyller
#       Creation time:       Fri Apr 21 19:44:10 2023


#       File generated by GOLD software.
#

@<TRIPOS>MOLECULE
EN300-115689_i001|benzaldehydes|mol2|925|dock10
    16    16     1
SMALL
USER_CHARGES


@<TRIPOS>ATOM
      1 O1          32.8284  36.4024  35.4789 O.2            1 <1>                0.0000
      2 C2          31.8708  37.1028  35.7307 C.2            1 <1>                0.0000
      3 C3          31.1451  36.9277  36.9964 C.ar           1 <1>                0.0000
      4 C4          31.5236  35.9154  37.8871 C.ar           1 <1>                0.0000
      5 C5          30.8487  35.7540  39.0631 C.ar           1 <1>                0.0000
      6 C6          29.7801  36.5984  39.3781 C.ar           1 <1>                0.0000
      7 C7          29.0732  36.4280  40.6117 C.1            1 <1>                0.0000
      8 C8          28.4938  36.2883  41.6231 C.1            1 <1>                0.0000
      9 C9          29.4012  37.6092  38.4900 C.ar           1 <1>                0.0000
     10 C10         30.0780  37.7765  37.3159 C.ar           1 <1>                0.0000
     11 H11         31.5543  37.8582  35.0268 H              1 <1>                0.0000
     12 H12         32.3488  35.2624  37.6437 H              1 <1>                0.0000
     13 H13         31.1404  34.9735  39.7502 H              1 <1>                0.0000
     14 H14         27.9755  36.1634  42.5276 H              1 <1>                0.0000
     15 H15         28.5753  38.2608  38.7345 H              1 <1>                0.0000
     16 H16         29.7850  38.5575  36.6299 H              1 <1>                0.0000
@<TRIPOS>BOND
    1    1    2 2     
    2    2    3 1     
    3    2   11 1     
    4    3    4 ar    
    5    3   10 ar    
    6    4    5 ar    
    7    4   12 1     
    8    5    6 ar    
    9    5   13 1     
   10    6    7 1     
   11    6    9 ar    
   12    7    8 3     
   13    8   14 1     
   14    9   10 ar    
   15    9   15 1     
   16   10   16 1     
@<TRIPOS>SUBSTRUCTURE
      1 ****           1
@<TRIPOS>COMMENT
> <Gold.Version>
2022.2.0

> <Gold.Id.Protein>
1qkm|1qkm_protein|mol2

> <Gold.Protein.RotatedTorsions>
[  496  491  490  487 ] final  -14.15 input  -89.99 | X-H torsion

> <Gold.Protein.ActiveResidues>
 MET295  LEU298  THR299  LEU301  ALA302  GLU305  TRP335  MET336  LEU339  MET340 
 GLY342  LEU343  ARG346  PHE356  ILE373  ILE376  PHE377  LEU380  LYS471  GLY472 
 MET473  HIS475  LEU476  LEU477  ASN478  MET479  VAL484  VAL487 

> <Gold.Protein.RotatedAtoms>
   36.2681   34.4016   42.0998 H   0  0  0  0  0  0  0  0  0  0  0  0  # atno 496  bound_to 491 

> <Gold.Score>
     Score     S(PLP)   S(hbond)     S(cho)   S(metal)  DE(clash)   DE(tors)     intcor
     34.97     -34.98       0.00       0.00       0.00       0.00       0.00       0.00

> <Gold.PLP.Fitness>
34.9722

> <Gold.PLP.PLP>
-34.9756

> <Gold.PLP.part.hbond>
0.0000

> <Gold.PLP.part.metal>
0.0000

> <Gold.PLP.part.buried>
-1.6101

> <Gold.PLP.part.nonpolar>
-33.3642

> <Gold.PLP.part.repulsive>
0.0968

> <Gold.PLP.ligand.clash>
0.0000

> <Gold.PLP.ligand.torsion>
0.0017

> <Gold.PLP.Chemscore.Hbond>
0.0000

> <Gold.PLP.Chemscore.CHOScore>
0.0000

> <Gold.PLP.Chemscore.Metal>
0.0000

> <Gold.PLP.Chemscore.Internal.Correction>
0.0000

