#       Name:                plp ligand
#       Creating user name   aseyller
#       Creation time:       Fri Apr 21 19:44:07 2023


#       File generated by GOLD software.
#

@<TRIPOS>MOLECULE
plp ligand
    16    16     1
SMALL
USER_CHARGES


@<TRIPOS>ATOM
      1 O1          -3.6736  -0.7079  -0.0011 ACCEPTOR       1 <1>                0.0000
      2 C2          -2.9730   0.2822  -0.0002 NONPOLAR       1 <1>                0.0000
      3 C3          -1.5098   0.1468  -0.0005 NONPOLAR       1 <1>                0.0000
      4 C4          -0.7002   1.2895   0.0005 NONPOLAR       1 <1>                0.0000
      5 C5           0.6594   1.1623   0.0007 NONPOLAR       1 <1>                0.0000
      6 C6           1.2432  -0.1078  -0.0006 NONPOLAR       1 <1>                0.0000
      7 C7           2.6691  -0.2397  -0.0004 NONPOLAR       1 <1>                0.0000
      8 C8           3.8381  -0.3478  -0.0003 NONPOLAR       1 <1>                0.0000
      9 C9           0.4363  -1.2493  -0.0016 NONPOLAR       1 <1>                0.0000
     10 C10         -0.9235  -1.1250   0.0040 NONPOLAR       1 <1>                0.0000
     11 H11         -3.4246   1.2632  -0.0037                1 <1>                0.0000
     12 H12         -1.1510   2.2710   0.0008                1 <1>                0.0000
     13 H13          1.2840   2.0434   0.0015                1 <1>                0.0000
     14 H14          4.8836  -0.4445  -0.0001                1 <1>                0.0000
     15 H15          0.8887  -2.2300  -0.0026                1 <1>                0.0000
     16 H16         -1.5467  -2.0071   0.0032                1 <1>                0.0000
@<TRIPOS>BOND
    1    1    2 2     
    2    2    3 1     
    3    2   11 1     
    4    3    4 ar    
    5    3   10 ar    
    6    4    5 ar    
    7    4   12 1     
    8    5    6 ar    
    9    5   13 1     
   10    6    7 1     
   11    6    9 ar    
   12    7    8 3     
   13    8   14 1     
   14    9   10 ar    
   15    9   15 1     
   16   10   16 1     
@<TRIPOS>SUBSTRUCTURE
      1 ****           1
@<TRIPOS>SET
DONOR_HYDROGENS      STATIC     ATOMS    <user>   **** ""
0
ATOM$RED        STATIC     ATOMS    COLORGROUP SYSTEM
0
