#       Name:                EN300-102141_i001
#       Creating user name   aseyller
#       Creation time:       Fri Apr 21 18:15:18 2023


#       File generated by GOLD software.
#

@<TRIPOS>MOLECULE
EN300-102141_i001|benzaldehydes|mol2|480|dock5
    17    18     1
SMALL
USER_CHARGES


@<TRIPOS>ATOM
      1 O1          32.8813  37.0541  35.7889 O.2            1 <1>                0.0000
      2 C2          33.0165  36.3352  36.7591 C.2            1 <1>                0.0000
      3 C3          31.9295  36.1128  37.6282 C.2            1 <1>                0.0000
      4 C4          31.8279  35.1045  38.5580 C.2            1 <1>                0.0000
      5 N5          30.7162  35.1207  39.2375 N.2            1 <1>                0.0000
      6 C6          29.8569  36.0674  38.9600 C.2            1 <1>                0.0000
      7 S7          30.4607  37.0813  37.7234 S.3            1 <1>                0.0000
      8 C8          28.5584  36.2384  39.6219 C.2            1 <1>                0.0000
      9 C9          27.4768  36.8805  39.0901 C.2            1 <1>                0.0000
     10 C10         26.3851  36.8932  39.9295 C.2            1 <1>                0.0000
     11 C11         26.5668  36.2838  41.1050 C.2            1 <1>                0.0000
     12 S12         28.1435  35.6429  41.2233 S.3            1 <1>                0.0000
     13 H13         33.9682  35.8631  36.9530 H              1 <1>                0.0000
     14 H14         32.6002  34.3652  38.7110 H              1 <1>                0.0000
     15 H15         27.4776  37.3333  38.1097 H              1 <1>                0.0000
     16 H16         25.4506  37.3617  39.6579 H              1 <1>                0.0000
     17 H17         25.8145  36.2039  41.8755 H              1 <1>                0.0000
@<TRIPOS>BOND
    1    1    2 2     
    2    2    3 1     
    3    2   13 1     
    4    3    4 2     
    5    3    7 1     
    6    4    5 1     
    7    4   14 1     
    8    5    6 2     
    9    6    7 1     
   10    6    8 1     
   11    8    9 2     
   12    8   12 1     
   13    9   10 1     
   14    9   15 1     
   15   10   11 2     
   16   10   16 1     
   17   11   12 1     
   18   11   17 1     
@<TRIPOS>SUBSTRUCTURE
      1 ****           1
@<TRIPOS>COMMENT
> <Gold.Version>
2022.2.0

> <Gold.Id.Protein>
1qkm|1qkm_protein|mol2

> <Gold.Protein.RotatedTorsions>
[  496  491  490  487 ] final  -23.99 input  -89.99 | X-H torsion

> <Gold.Protein.ActiveResidues>
 MET295  LEU298  THR299  LEU301  ALA302  GLU305  TRP335  MET336  LEU339  MET340 
 GLY342  LEU343  ARG346  PHE356  ILE373  ILE376  PHE377  LEU380  LYS471  GLY472 
 MET473  HIS475  LEU476  LEU477  ASN478  MET479  VAL484  VAL487 

> <Gold.Protein.RotatedAtoms>
   36.2926   34.5128   41.9848 H   0  0  0  0  0  0  0  0  0  0  0  0  # atno 496  bound_to 491 

> <Gold.Score>
     Score     S(PLP)   S(hbond)     S(cho)   S(metal)  DE(clash)   DE(tors)     intcor
     42.71     -40.82       0.00       0.83       0.00       0.00       0.30       0.00

> <Gold.PLP.Fitness>
42.7053

> <Gold.PLP.PLP>
-40.8247

> <Gold.PLP.part.hbond>
0.0000

> <Gold.PLP.part.metal>
0.0000

> <Gold.PLP.part.buried>
-3.0737

> <Gold.PLP.part.nonpolar>
-39.1429

> <Gold.PLP.part.repulsive>
0.7376

> <Gold.PLP.ligand.clash>
0.0000

> <Gold.PLP.ligand.torsion>
0.3041

> <Gold.PLP.Chemscore.Hbond>
0.0000

> <Gold.PLP.Chemscore.CHOScore>
0.8295

> <Gold.PLP.Chemscore.Metal>
0.0000

> <Gold.Chemscore.Hbonds>
donor molecule, donor type, donor heavy atom, donor atom, acceptor molecule, acceptor atom, score
      L1  C    11    17       P1   582  0.83

> <Gold.PLP.Chemscore.Internal.Correction>
0.0001

