#       Name:                EN300-102141_i001
#       Creating user name   aseyller
#       Creation time:       Fri Apr 21 18:15:23 2023


#       File generated by GOLD software.
#

@<TRIPOS>MOLECULE
EN300-102141_i001|benzaldehydes|mol2|480|dock18
    17    18     1
SMALL
USER_CHARGES


@<TRIPOS>ATOM
      1 O1          32.2996  38.0569  34.9364 O.2            1 <1>                0.0000
      2 C2          31.3627  38.8257  35.0229 C.2            1 <1>                0.0000
      3 C3          30.3172  38.5630  35.9308 C.2            1 <1>                0.0000
      4 C4          29.1785  39.3164  36.0961 C.2            1 <1>                0.0000
      5 N5          28.3661  38.8557  37.0048 N.2            1 <1>                0.0000
      6 C6          28.7228  37.7639  37.6309 C.2            1 <1>                0.0000
      7 S7          30.2312  37.2064  37.0518 S.3            1 <1>                0.0000
      8 C8          27.9352  37.1062  38.6802 C.2            1 <1>                0.0000
      9 C9          26.5783  37.1792  38.8152 C.2            1 <1>                0.0000
     10 C10         26.0995  36.4637  39.8900 C.2            1 <1>                0.0000
     11 C11         27.0306  35.8285  40.6081 C.2            1 <1>                0.0000
     12 S12         28.5867  36.0919  39.9601 S.3            1 <1>                0.0000
     13 H13         31.3333  39.7126  34.4074 H              1 <1>                0.0000
     14 H14         28.9760  40.2100  35.5244 H              1 <1>                0.0000
     15 H15         25.9443  37.7420  38.1463 H              1 <1>                0.0000
     16 H16         25.0485  36.4194  40.1350 H              1 <1>                0.0000
     17 H17         26.8250  35.2252  41.4799 H              1 <1>                0.0000
@<TRIPOS>BOND
    1    1    2 2     
    2    2    3 1     
    3    2   13 1     
    4    3    4 2     
    5    3    7 1     
    6    4    5 1     
    7    4   14 1     
    8    5    6 2     
    9    6    7 1     
   10    6    8 1     
   11    8    9 2     
   12    8   12 1     
   13    9   10 1     
   14    9   15 1     
   15   10   11 2     
   16   10   16 1     
   17   11   12 1     
   18   11   17 1     
@<TRIPOS>SUBSTRUCTURE
      1 ****           1
@<TRIPOS>COMMENT
> <Gold.Version>
2022.2.0

> <Gold.Id.Protein>
1qkm|1qkm_protein|mol2

> <Gold.Protein.RotatedTorsions>
[  496  491  490  487 ] final  175.96 input  -89.99 | X-H torsion

> <Gold.Protein.ActiveResidues>
 MET295  LEU298  THR299  LEU301  ALA302  GLU305  TRP335  MET336  LEU339  MET340 
 GLY342  LEU343  ARG346  PHE356  ILE373  ILE376  PHE377  LEU380  LYS471  GLY472 
 MET473  HIS475  LEU476  LEU477  ASN478  MET479  VAL484  VAL487 

> <Gold.Protein.RotatedAtoms>
   37.3188   33.4051   40.9024 H   0  0  0  0  0  0  0  0  0  0  0  0  # atno 496  bound_to 491 

> <Gold.Score>
     Score     S(PLP)   S(hbond)     S(cho)   S(metal)  DE(clash)   DE(tors)     intcor
     41.65     -39.25       0.00       1.00       0.00       0.00       0.30       0.00

> <Gold.PLP.Fitness>
41.6499

> <Gold.PLP.PLP>
-39.2502

> <Gold.PLP.part.hbond>
0.0000

> <Gold.PLP.part.metal>
0.0000

> <Gold.PLP.part.buried>
-3.2773

> <Gold.PLP.part.nonpolar>
-36.7693

> <Gold.PLP.part.repulsive>
0.1043

> <Gold.PLP.ligand.clash>
0.0000

> <Gold.PLP.ligand.torsion>
0.3002

> <Gold.PLP.Chemscore.Hbond>
0.0000

> <Gold.PLP.Chemscore.CHOScore>
1.0000

> <Gold.PLP.Chemscore.Metal>
0.0000

> <Gold.Chemscore.Hbonds>
donor molecule, donor type, donor heavy atom, donor atom, acceptor molecule, acceptor atom, score
      L1  C    11    17       P1   582  1.00

> <Gold.PLP.Chemscore.Internal.Correction>
0.0001

