#       Name:                EN300-102141_i001
#       Creating user name   aseyller
#       Creation time:       Fri Apr 21 18:15:16 2023


#       File generated by GOLD software.
#

@<TRIPOS>MOLECULE
EN300-102141_i001
    17    18     1
SMALL
USER_CHARGES


@<TRIPOS>ATOM
      1 O1          -4.4270  -1.6381  -0.0037 O.2            1 <1>                0.0000
      2 C2          -4.0611  -0.4795  -0.0011 C.2            1 <1>                0.0000
      3 C3          -2.6850  -0.1751  -0.0004 C.2            1 <1>                0.0000
      4 C4          -2.1332   1.0847   0.0025 C.2            1 <1>                0.0000
      5 N5          -0.8302   1.0921   0.0025 N.2            1 <1>                0.0000
      6 C6          -0.2234  -0.0669  -0.0002 C.2            1 <1>                0.0000
      7 S7          -1.3634  -1.3404   0.0046 S.3            1 <1>                0.0000
      8 C8           1.2329  -0.2484  -0.0014 C.2            1 <1>                0.0000
      9 C9           2.1564   0.7575   0.0006 C.2            1 <1>                0.0000
     10 C10          3.4562   0.3024  -0.0007 C.2            1 <1>                0.0000
     11 C11          3.5911  -1.0272  -0.0036 C.2            1 <1>                0.0000
     12 S12          2.0679  -1.7957   0.0021 S.3            1 <1>                0.0000
     13 H13         -4.7903   0.3171  -0.0038 H              1 <1>                0.0000
     14 H14         -2.7267   1.9870   0.0042 H              1 <1>                0.0000
     15 H15          1.8938   1.8050   0.0026 H              1 <1>                0.0000
     16 H16          4.3044   0.9710   0.0002 H              1 <1>                0.0000
     17 H17          4.5382  -1.5461  -0.0050 H              1 <1>                0.0000
@<TRIPOS>BOND
    1    1    2 2     
    2    2    3 1     
    3    2   13 1     
    4    3    4 2     
    5    3    7 1     
    6    4    5 1     
    7    4   14 1     
    8    5    6 2     
    9    6    7 1     
   10    6    8 1     
   11    8    9 2     
   12    8   12 1     
   13    9   10 1     
   14    9   15 1     
   15   10   11 2     
   16   10   16 1     
   17   11   12 1     
   18   11   17 1     
@<TRIPOS>SUBSTRUCTURE
      1 ****           1
