#       Name:                EN300-102141_i001
#       Creating user name   aseyller
#       Creation time:       Fri Apr 21 18:15:22 2023


#       File generated by GOLD software.
#

@<TRIPOS>MOLECULE
EN300-102141_i001|benzaldehydes|mol2|480|dock14
    17    18     1
SMALL
USER_CHARGES


@<TRIPOS>ATOM
      1 O1          32.9793  37.0074  34.8345 O.2            1 <1>                0.0000
      2 C2          32.8362  36.6839  35.9969 C.2            1 <1>                0.0000
      3 C3          31.5698  36.7878  36.6065 C.2            1 <1>                0.0000
      4 C4          30.4419  37.3386  36.0442 C.2            1 <1>                0.0000
      5 N5          29.3958  37.3113  36.8205 N.2            1 <1>                0.0000
      6 C6          29.5421  36.7785  38.0064 C.2            1 <1>                0.0000
      7 S7          31.1459  36.2285  38.2227 S.3            1 <1>                0.0000
      8 C8          28.4765  36.6638  39.0089 C.2            1 <1>                0.0000
      9 C9          27.1387  36.7749  38.7590 C.2            1 <1>                0.0000
     10 C10         26.3607  36.6240  39.8853 C.2            1 <1>                0.0000
     11 C11         27.0374  36.3977  41.0153 C.2            1 <1>                0.0000
     12 S12         28.7176  36.3538  40.7227 S.3            1 <1>                0.0000
     13 H13         33.6785  36.3125  36.5616 H              1 <1>                0.0000
     14 H14         30.4249  37.7565  35.0485 H              1 <1>                0.0000
     15 H15         26.7315  36.9626  37.7766 H              1 <1>                0.0000
     16 H16         25.2827  36.6844  39.8575 H              1 <1>                0.0000
     17 H17         26.5812  36.2570  41.9840 H              1 <1>                0.0000
@<TRIPOS>BOND
    1    1    2 2     
    2    2    3 1     
    3    2   13 1     
    4    3    4 2     
    5    3    7 1     
    6    4    5 1     
    7    4   14 1     
    8    5    6 2     
    9    6    7 1     
   10    6    8 1     
   11    8    9 2     
   12    8   12 1     
   13    9   10 1     
   14    9   15 1     
   15   10   11 2     
   16   10   16 1     
   17   11   12 1     
   18   11   17 1     
@<TRIPOS>SUBSTRUCTURE
      1 ****           1
@<TRIPOS>COMMENT
> <Gold.Version>
2022.2.0

> <Gold.Id.Protein>
1qkm|1qkm_protein|mol2

> <Gold.Protein.RotatedTorsions>
[  496  491  490  487 ] final  -50.99 input  -89.99 | X-H torsion

> <Gold.Protein.ActiveResidues>
 MET295  LEU298  THR299  LEU301  ALA302  GLU305  TRP335  MET336  LEU339  MET340 
 GLY342  LEU343  ARG346  PHE356  ILE373  ILE376  PHE377  LEU380  LYS471  GLY472 
 MET473  HIS475  LEU476  LEU477  ASN478  MET479  VAL484  VAL487 

> <Gold.Protein.RotatedAtoms>
   36.4313   34.7081   41.6154 H   0  0  0  0  0  0  0  0  0  0  0  0  # atno 496  bound_to 491 

> <Gold.Score>
     Score     S(PLP)   S(hbond)     S(cho)   S(metal)  DE(clash)   DE(tors)     intcor
     41.44     -38.72       0.00       1.00       0.00       0.00       0.14       0.00

> <Gold.PLP.Fitness>
41.4381

> <Gold.PLP.PLP>
-38.7162

> <Gold.PLP.part.hbond>
0.0000

> <Gold.PLP.part.metal>
0.0000

> <Gold.PLP.part.buried>
-3.6853

> <Gold.PLP.part.nonpolar>
-35.5257

> <Gold.PLP.part.repulsive>
0.1536

> <Gold.PLP.ligand.clash>
0.0000

> <Gold.PLP.ligand.torsion>
0.1391

> <Gold.PLP.Chemscore.Hbond>
0.0000

> <Gold.PLP.Chemscore.CHOScore>
1.0000

> <Gold.PLP.Chemscore.Metal>
0.0000

> <Gold.Chemscore.Hbonds>
donor molecule, donor type, donor heavy atom, donor atom, acceptor molecule, acceptor atom, score
      L1  C    11    17       P1   582  1.00

> <Gold.PLP.Chemscore.Internal.Correction>
0.0001

