#       Name:                EN300-102141_i001
#       Creating user name   aseyller
#       Creation time:       Fri Apr 21 18:15:16 2023


#       File generated by GOLD software.
#

@<TRIPOS>MOLECULE
EN300-102141_i001|benzaldehydes|mol2|480|dock1
    17    18     1
SMALL
USER_CHARGES


@<TRIPOS>ATOM
      1 O1          24.9208  36.7005  41.7915 O.2            1 <1>                0.0000
      2 C2          25.4983  37.1785  40.8353 C.2            1 <1>                0.0000
      3 C3          26.7883  36.7260  40.4928 C.2            1 <1>                0.0000
      4 C4          27.6059  35.9413  41.2722 C.2            1 <1>                0.0000
      5 N5          28.7533  35.6617  40.7216 N.2            1 <1>                0.0000
      6 C6          28.9809  36.1479  39.5286 C.2            1 <1>                0.0000
      7 S7          27.6396  37.0579  38.9862 S.3            1 <1>                0.0000
      8 C8          30.2135  35.9367  38.7606 C.2            1 <1>                0.0000
      9 C9          30.7772  36.8383  37.9039 C.2            1 <1>                0.0000
     10 C10         31.9346  36.3792  37.3155 C.2            1 <1>                0.0000
     11 C11         32.3043  35.1470  37.6777 C.2            1 <1>                0.0000
     12 S12         31.2050  34.4852  38.8021 S.3            1 <1>                0.0000
     13 H13         25.0213  37.9470  40.2452 H              1 <1>                0.0000
     14 H14         27.3224  35.5888  42.2529 H              1 <1>                0.0000
     15 H15         30.3573  37.8136  37.7072 H              1 <1>                0.0000
     16 H16         32.5018  36.9714  36.6126 H              1 <1>                0.0000
     17 H17         33.1841  34.6395  37.3107 H              1 <1>                0.0000
@<TRIPOS>BOND
    1    1    2 2     
    2    2    3 1     
    3    2   13 1     
    4    3    4 2     
    5    3    7 1     
    6    4    5 1     
    7    4   14 1     
    8    5    6 2     
    9    6    7 1     
   10    6    8 1     
   11    8    9 2     
   12    8   12 1     
   13    9   10 1     
   14    9   15 1     
   15   10   11 2     
   16   10   16 1     
   17   11   12 1     
   18   11   17 1     
@<TRIPOS>SUBSTRUCTURE
      1 ****           1
@<TRIPOS>COMMENT
> <Gold.Version>
2022.2.0

> <Gold.Id.Protein>
1qkm|1qkm_protein|mol2

> <Gold.Protein.RotatedTorsions>
[  496  491  490  487 ] final  149.08 input  -89.99 | X-H torsion

> <Gold.Protein.ActiveResidues>
 MET295  LEU298  THR299  LEU301  ALA302  GLU305  TRP335  MET336  LEU339  MET340 
 GLY342  LEU343  ARG346  PHE356  ILE373  ILE376  PHE377  LEU380  LYS471  GLY472 
 MET473  HIS475  LEU476  LEU477  ASN478  MET479  VAL484  VAL487 

> <Gold.Protein.RotatedAtoms>
   37.2589   33.0960   41.2074 H   0  0  0  0  0  0  0  0  0  0  0  0  # atno 496  bound_to 491 

> <Gold.Score>
     Score     S(PLP)   S(hbond)     S(cho)   S(metal)  DE(clash)   DE(tors)     intcor
     46.96     -43.16       0.59       1.00       0.00       0.00       0.49       0.00

> <Gold.PLP.Fitness>
46.9559

> <Gold.PLP.PLP>
-43.1564

> <Gold.PLP.part.hbond>
-1.0000

> <Gold.PLP.part.metal>
0.0000

> <Gold.PLP.part.buried>
-4.1554

> <Gold.PLP.part.nonpolar>
-39.3729

> <Gold.PLP.part.repulsive>
0.4240

> <Gold.PLP.ligand.clash>
0.0000

> <Gold.PLP.ligand.torsion>
0.4883

> <Gold.PLP.Chemscore.Hbond>
0.5920

> <Gold.PLP.Chemscore.CHOScore>
1.0000

> <Gold.PLP.Chemscore.Metal>
0.0000

> <Gold.Chemscore.Hbonds>
donor molecule, donor type, donor heavy atom, donor atom, acceptor molecule, acceptor atom, score
      P1  H  1258  1270       L1     1  0.59
      L1  C     4    14       P1   582  1.00

> <Gold.PLP.Chemscore.Internal.Correction>
0.0001

