#       Name:                EN300-102141_i001
#       Creating user name   aseyller
#       Creation time:       Fri Apr 21 18:15:21 2023


#       File generated by GOLD software.
#

@<TRIPOS>MOLECULE
EN300-102141_i001|benzaldehydes|mol2|480|dock13
    17    18     1
SMALL
USER_CHARGES


@<TRIPOS>ATOM
      1 O1          32.8735  37.7418  35.1932 O.2            1 <1>                0.0000
      2 C2          31.8245  38.3530  35.1452 C.2            1 <1>                0.0000
      3 C3          30.8372  38.1367  36.1275 C.2            1 <1>                0.0000
      4 C4          29.5745  38.6816  36.1418 C.2            1 <1>                0.0000
      5 N5          28.8537  38.3209  37.1656 N.2            1 <1>                0.0000
      6 C6          29.4037  37.5075  38.0302 C.2            1 <1>                0.0000
      7 S7          30.9970  37.1136  37.5531 S.3            1 <1>                0.0000
      8 C8          28.7429  36.9996  39.2381 C.2            1 <1>                0.0000
      9 C9          29.3680  36.6898  40.4120 C.2            1 <1>                0.0000
     10 C10         28.5052  36.2337  41.3837 C.2            1 <1>                0.0000
     11 C11         27.2212  36.1726  41.0180 C.2            1 <1>                0.0000
     12 S12         27.0188  36.6998  39.4081 S.3            1 <1>                0.0000
     13 H13         31.6503  39.0653  34.3523 H              1 <1>                0.0000
     14 H14         29.2130  39.3491  35.3736 H              1 <1>                0.0000
     15 H15         30.4324  36.7919  40.5632 H              1 <1>                0.0000
     16 H16         28.8416  35.9461  42.3689 H              1 <1>                0.0000
     17 H17         26.4180  35.8383  41.6579 H              1 <1>                0.0000
@<TRIPOS>BOND
    1    1    2 2     
    2    2    3 1     
    3    2   13 1     
    4    3    4 2     
    5    3    7 1     
    6    4    5 1     
    7    4   14 1     
    8    5    6 2     
    9    6    7 1     
   10    6    8 1     
   11    8    9 2     
   12    8   12 1     
   13    9   10 1     
   14    9   15 1     
   15   10   11 2     
   16   10   16 1     
   17   11   12 1     
   18   11   17 1     
@<TRIPOS>SUBSTRUCTURE
      1 ****           1
@<TRIPOS>COMMENT
> <Gold.Version>
2022.2.0

> <Gold.Id.Protein>
1qkm|1qkm_protein|mol2

> <Gold.Protein.RotatedTorsions>
[  496  491  490  487 ] final -144.02 input  -89.99 | X-H torsion

> <Gold.Protein.ActiveResidues>
 MET295  LEU298  THR299  LEU301  ALA302  GLU305  TRP335  MET336  LEU339  MET340 
 GLY342  LEU343  ARG346  PHE356  ILE373  ILE376  PHE377  LEU380  LYS471  GLY472 
 MET473  HIS475  LEU476  LEU477  ASN478  MET479  VAL484  VAL487 

> <Gold.Protein.RotatedAtoms>
   37.1985   34.0125   40.7204 H   0  0  0  0  0  0  0  0  0  0  0  0  # atno 496  bound_to 491 

> <Gold.Score>
     Score     S(PLP)   S(hbond)     S(cho)   S(metal)  DE(clash)   DE(tors)     intcor
     41.92     -39.75       0.00       1.00       0.00       0.00       0.41       0.00

> <Gold.PLP.Fitness>
41.9226

> <Gold.PLP.PLP>
-39.7484

> <Gold.PLP.part.hbond>
0.0000

> <Gold.PLP.part.metal>
0.0000

> <Gold.PLP.part.buried>
-3.2041

> <Gold.PLP.part.nonpolar>
-37.2824

> <Gold.PLP.part.repulsive>
0.1125

> <Gold.PLP.ligand.clash>
0.0000

> <Gold.PLP.ligand.torsion>
0.4129

> <Gold.PLP.Chemscore.Hbond>
0.0000

> <Gold.PLP.Chemscore.CHOScore>
1.0000

> <Gold.PLP.Chemscore.Metal>
0.0000

> <Gold.Chemscore.Hbonds>
donor molecule, donor type, donor heavy atom, donor atom, acceptor molecule, acceptor atom, score
      L1  C    11    17       P1   582  1.00

> <Gold.PLP.Chemscore.Internal.Correction>
0.0001

