#       Name:                EN300-102141_i001
#       Creating user name   aseyller
#       Creation time:       Fri Apr 21 18:15:18 2023


#       File generated by GOLD software.
#

@<TRIPOS>MOLECULE
EN300-102141_i001|benzaldehydes|mol2|480|dock6
    17    18     1
SMALL
USER_CHARGES


@<TRIPOS>ATOM
      1 O1          32.6945  37.3009  36.0338 O.2            1 <1>                0.0000
      2 C2          32.7361  36.5175  36.9615 C.2            1 <1>                0.0000
      3 C3          31.6055  36.3380  37.7836 C.2            1 <1>                0.0000
      4 C4          31.4792  35.4198  38.7997 C.2            1 <1>                0.0000
      5 N5          30.3279  35.4588  39.4086 N.2            1 <1>                0.0000
      6 C6          29.4575  36.3416  38.9908 C.2            1 <1>                0.0000
      7 S7          30.1033  37.2551  37.6985 S.3            1 <1>                0.0000
      8 C8          28.1158  36.5258  39.5563 C.2            1 <1>                0.0000
      9 C9          27.7695  36.3115  40.8597 C.2            1 <1>                0.0000
     10 C10         26.4403  36.5629  41.1176 C.2            1 <1>                0.0000
     11 C11         25.7253  36.9682  40.0637 C.2            1 <1>                0.0000
     12 S12         26.6989  37.0650  38.6660 S.3            1 <1>                0.0000
     13 H13         33.6380  35.9553  37.1536 H              1 <1>                0.0000
     14 H14         32.2639  34.7282  39.0686 H              1 <1>                0.0000
     15 H15         28.4679  35.9778  41.6128 H              1 <1>                0.0000
     16 H16         26.0072  36.4412  42.0995 H              1 <1>                0.0000
     17 H17         24.6725  37.2067  40.0937 H              1 <1>                0.0000
@<TRIPOS>BOND
    1    1    2 2     
    2    2    3 1     
    3    2   13 1     
    4    3    4 2     
    5    3    7 1     
    6    4    5 1     
    7    4   14 1     
    8    5    6 2     
    9    6    7 1     
   10    6    8 1     
   11    8    9 2     
   12    8   12 1     
   13    9   10 1     
   14    9   15 1     
   15   10   11 2     
   16   10   16 1     
   17   11   12 1     
   18   11   17 1     
@<TRIPOS>SUBSTRUCTURE
      1 ****           1
@<TRIPOS>COMMENT
> <Gold.Version>
2022.2.0

> <Gold.Id.Protein>
1qkm|1qkm_protein|mol2

> <Gold.Protein.RotatedTorsions>
[  496  491  490  487 ] final  166.76 input  -89.99 | X-H torsion

> <Gold.Protein.ActiveResidues>
 MET295  LEU298  THR299  LEU301  ALA302  GLU305  TRP335  MET336  LEU339  MET340 
 GLY342  LEU343  ARG346  PHE356  ILE373  ILE376  PHE377  LEU380  LYS471  GLY472 
 MET473  HIS475  LEU476  LEU477  ASN478  MET479  VAL484  VAL487 

> <Gold.Protein.RotatedAtoms>
   37.3110   33.2848   40.9938 H   0  0  0  0  0  0  0  0  0  0  0  0  # atno 496  bound_to 491 

> <Gold.Score>
     Score     S(PLP)   S(hbond)     S(cho)   S(metal)  DE(clash)   DE(tors)     intcor
     43.98     -41.79       0.00       1.00       0.00       0.00       0.41       0.00

> <Gold.PLP.Fitness>
43.9752

> <Gold.PLP.PLP>
-41.7885

> <Gold.PLP.part.hbond>
0.0000

> <Gold.PLP.part.metal>
0.0000

> <Gold.PLP.part.buried>
-3.2031

> <Gold.PLP.part.nonpolar>
-39.6961

> <Gold.PLP.part.repulsive>
0.4983

> <Gold.PLP.ligand.clash>
0.0000

> <Gold.PLP.ligand.torsion>
0.4067

> <Gold.PLP.Chemscore.Hbond>
0.0000

> <Gold.PLP.Chemscore.CHOScore>
1.0000

> <Gold.PLP.Chemscore.Metal>
0.0000

> <Gold.Chemscore.Hbonds>
donor molecule, donor type, donor heavy atom, donor atom, acceptor molecule, acceptor atom, score
      L1  C    11    17       P1  1131  1.00

> <Gold.PLP.Chemscore.Internal.Correction>
0.0001

