#       Name:                EN300-102141_i001
#       Creating user name   aseyller
#       Creation time:       Fri Apr 21 18:15:17 2023


#       File generated by GOLD software.
#

@<TRIPOS>MOLECULE
EN300-102141_i001|benzaldehydes|mol2|480|dock2
    17    18     1
SMALL
USER_CHARGES


@<TRIPOS>ATOM
      1 O1          24.9889  36.8580  41.7596 O.2            1 <1>                0.0000
      2 C2          25.5519  37.1906  40.7356 C.2            1 <1>                0.0000
      3 C3          26.8294  36.6767  40.4350 C.2            1 <1>                0.0000
      4 C4          27.5654  35.8221  41.2221 C.2            1 <1>                0.0000
      5 N5          28.7198  35.4956  40.7134 N.2            1 <1>                0.0000
      6 C6          29.0287  36.0061  39.5492 C.2            1 <1>                0.0000
      7 S7          27.7662  37.0080  38.9799 S.3            1 <1>                0.0000
      8 C8          30.2818  35.7500  38.8296 C.2            1 <1>                0.0000
      9 C9          30.9503  34.5596  38.8023 C.2            1 <1>                0.0000
     10 C10         32.1015  34.5996  38.0475 C.2            1 <1>                0.0000
     11 C11         32.3651  35.7795  37.4781 C.2            1 <1>                0.0000
     12 S12         31.1588  36.9244  37.8585 S.3            1 <1>                0.0000
     13 H13         25.0717  37.8766  40.0536 H              1 <1>                0.0000
     14 H14         27.2180  35.4549  42.1764 H              1 <1>                0.0000
     15 H15         30.6105  33.6754  39.3209 H              1 <1>                0.0000
     16 H16         32.7444  33.7404  37.9249 H              1 <1>                0.0000
     17 H17         33.2250  35.9804  36.8565 H              1 <1>                0.0000
@<TRIPOS>BOND
    1    1    2 2     
    2    2    3 1     
    3    2   13 1     
    4    3    4 2     
    5    3    7 1     
    6    4    5 1     
    7    4   14 1     
    8    5    6 2     
    9    6    7 1     
   10    6    8 1     
   11    8    9 2     
   12    8   12 1     
   13    9   10 1     
   14    9   15 1     
   15   10   11 2     
   16   10   16 1     
   17   11   12 1     
   18   11   17 1     
@<TRIPOS>SUBSTRUCTURE
      1 ****           1
@<TRIPOS>COMMENT
> <Gold.Version>
2022.2.0

> <Gold.Id.Protein>
1qkm|1qkm_protein|mol2

> <Gold.Protein.RotatedTorsions>
[  496  491  490  487 ] final   53.01 input  -89.99 | X-H torsion

> <Gold.Protein.ActiveResidues>
 MET295  LEU298  THR299  LEU301  ALA302  GLU305  TRP335  MET336  LEU339  MET340 
 GLY342  LEU343  ARG346  PHE356  ILE373  ILE376  PHE377  LEU380  LYS471  GLY472 
 MET473  HIS475  LEU476  LEU477  ASN478  MET479  VAL484  VAL487 

> <Gold.Protein.RotatedAtoms>
   36.4956   33.4124   42.3409 H   0  0  0  0  0  0  0  0  0  0  0  0  # atno 496  bound_to 491 

> <Gold.Score>
     Score     S(PLP)   S(hbond)     S(cho)   S(metal)  DE(clash)   DE(tors)     intcor
     47.75     -44.32       0.50       1.00       0.00       0.00       0.53       0.00

> <Gold.PLP.Fitness>
47.7496

> <Gold.PLP.PLP>
-44.3250

> <Gold.PLP.part.hbond>
-1.0000

> <Gold.PLP.part.metal>
0.0000

> <Gold.PLP.part.buried>
-4.0567

> <Gold.PLP.part.nonpolar>
-40.1793

> <Gold.PLP.part.repulsive>
0.4116

> <Gold.PLP.ligand.clash>
0.0000

> <Gold.PLP.ligand.torsion>
0.5317

> <Gold.PLP.Chemscore.Hbond>
0.4960

> <Gold.PLP.Chemscore.CHOScore>
1.0000

> <Gold.PLP.Chemscore.Metal>
0.0000

> <Gold.Chemscore.Hbonds>
donor molecule, donor type, donor heavy atom, donor atom, acceptor molecule, acceptor atom, score
      P1  H  1258  1270       L1     1  0.50
      L1  C     4    14       P1   582  1.00

> <Gold.PLP.Chemscore.Internal.Correction>
0.0001

