#       Name:                EN300-102141_i001
#       Creating user name   aseyller
#       Creation time:       Fri Apr 21 18:15:17 2023


#       File generated by GOLD software.
#

@<TRIPOS>MOLECULE
EN300-102141_i001|benzaldehydes|mol2|480|dock3
    17    18     1
SMALL
USER_CHARGES


@<TRIPOS>ATOM
      1 O1          33.2035  36.3911  36.2252 O.2            1 <1>                0.0000
      2 C2          32.8384  36.1222  37.3524 C.2            1 <1>                0.0000
      3 C3          31.5312  36.4482  37.7663 C.2            1 <1>                0.0000
      4 C4          30.7109  37.3920  37.1935 C.2            1 <1>                0.0000
      5 N5          29.5463  37.5000  37.7677 N.2            1 <1>                0.0000
      6 C6          29.3064  36.7196  38.7900 C.2            1 <1>                0.0000
      7 S7          30.6522  35.7143  39.1055 S.3            1 <1>                0.0000
      8 C8          28.0544  36.7053  39.5555 C.2            1 <1>                0.0000
      9 C9          26.8430  37.1418  39.1008 C.2            1 <1>                0.0000
     10 C10         25.8346  37.0121  40.0297 C.2            1 <1>                0.0000
     11 C11         26.2073  36.4884  41.2014 C.2            1 <1>                0.0000
     12 S12         27.8723  36.1162  41.2020 S.3            1 <1>                0.0000
     13 H13         33.5139  35.6293  38.0358 H              1 <1>                0.0000
     14 H14         31.0059  37.9902  36.3441 H              1 <1>                0.0000
     15 H15         26.6911  37.5485  38.1120 H              1 <1>                0.0000
     16 H16         24.8171  37.3118  39.8263 H              1 <1>                0.0000
     17 H17         25.5423  36.3194  42.0353 H              1 <1>                0.0000
@<TRIPOS>BOND
    1    1    2 2     
    2    2    3 1     
    3    2   13 1     
    4    3    4 2     
    5    3    7 1     
    6    4    5 1     
    7    4   14 1     
    8    5    6 2     
    9    6    7 1     
   10    6    8 1     
   11    8    9 2     
   12    8   12 1     
   13    9   10 1     
   14    9   15 1     
   15   10   11 2     
   16   10   16 1     
   17   11   12 1     
   18   11   17 1     
@<TRIPOS>SUBSTRUCTURE
      1 ****           1
@<TRIPOS>COMMENT
> <Gold.Version>
2022.2.0

> <Gold.Id.Protein>
1qkm|1qkm_protein|mol2

> <Gold.Protein.RotatedTorsions>
[  496  491  490  487 ] final   46.41 input  -89.99 | X-H torsion

> <Gold.Protein.ActiveResidues>
 MET295  LEU298  THR299  LEU301  ALA302  GLU305  TRP335  MET336  LEU339  MET340 
 GLY342  LEU343  ARG346  PHE356  ILE373  ILE376  PHE377  LEU380  LYS471  GLY472 
 MET473  HIS475  LEU476  LEU477  ASN478  MET479  VAL484  VAL487 

> <Gold.Protein.RotatedAtoms>
   36.4468   33.5060   42.3658 H   0  0  0  0  0  0  0  0  0  0  0  0  # atno 496  bound_to 491 

> <Gold.Score>
     Score     S(PLP)   S(hbond)     S(cho)   S(metal)  DE(clash)   DE(tors)     intcor
     43.74     -41.88       0.00       0.83       0.00       0.00       0.31       0.00

> <Gold.PLP.Fitness>
43.7370

> <Gold.PLP.PLP>
-41.8844

> <Gold.PLP.part.hbond>
0.0000

> <Gold.PLP.part.metal>
0.0000

> <Gold.PLP.part.buried>
-2.5151

> <Gold.PLP.part.nonpolar>
-39.6750

> <Gold.PLP.part.repulsive>
0.0357

> <Gold.PLP.ligand.clash>
0.0000

> <Gold.PLP.ligand.torsion>
0.3139

> <Gold.PLP.Chemscore.Hbond>
0.0000

> <Gold.PLP.Chemscore.CHOScore>
0.8268

> <Gold.PLP.Chemscore.Metal>
0.0000

> <Gold.Chemscore.Hbonds>
donor molecule, donor type, donor heavy atom, donor atom, acceptor molecule, acceptor atom, score
      L1  C    11    17       P1   582  0.83

> <Gold.PLP.Chemscore.Internal.Correction>
0.0001

