#       Name:                EN300-102141_i001
#       Creating user name   aseyller
#       Creation time:       Fri Apr 21 18:15:18 2023


#       File generated by GOLD software.
#

@<TRIPOS>MOLECULE
EN300-102141_i001|benzaldehydes|mol2|480|dock4
    17    18     1
SMALL
USER_CHARGES


@<TRIPOS>ATOM
      1 O1          26.7058  36.9913  39.6269 O.2            1 <1>                0.0000
      2 C2          27.7041  36.3993  39.9861 C.2            1 <1>                0.0000
      3 C3          28.8420  36.3676  39.1552 C.2            1 <1>                0.0000
      4 C4          30.0033  35.6714  39.3966 C.2            1 <1>                0.0000
      5 N5          30.9067  35.8101  38.4680 N.2            1 <1>                0.0000
      6 C6          30.6071  36.5730  37.4483 C.2            1 <1>                0.0000
      7 S7          29.0287  37.2066  37.6171 S.3            1 <1>                0.0000
      8 C8          31.4995  36.8426  36.3149 C.2            1 <1>                0.0000
      9 C9          31.2505  37.7255  35.3033 C.2            1 <1>                0.0000
     10 C10         32.2603  37.7803  34.3685 C.2            1 <1>                0.0000
     11 C11         33.2975  36.9719  34.6066 C.2            1 <1>                0.0000
     12 S12         33.0638  36.0862  36.0459 S.3            1 <1>                0.0000
     13 H13         27.7211  35.9010  40.9442 H              1 <1>                0.0000
     14 H14         30.1532  35.0645  40.2773 H              1 <1>                0.0000
     15 H15         30.3516  38.3208  35.2423 H              1 <1>                0.0000
     16 H16         32.2170  38.4289  33.5060 H              1 <1>                0.0000
     17 H17         34.1695  36.8929  33.9743 H              1 <1>                0.0000
@<TRIPOS>BOND
    1    1    2 2     
    2    2    3 1     
    3    2   13 1     
    4    3    4 2     
    5    3    7 1     
    6    4    5 1     
    7    4   14 1     
    8    5    6 2     
    9    6    7 1     
   10    6    8 1     
   11    8    9 2     
   12    8   12 1     
   13    9   10 1     
   14    9   15 1     
   15   10   11 2     
   16   10   16 1     
   17   11   12 1     
   18   11   17 1     
@<TRIPOS>SUBSTRUCTURE
      1 ****           1
@<TRIPOS>COMMENT
> <Gold.Version>
2022.2.0

> <Gold.Id.Protein>
1qkm|1qkm_protein|mol2

> <Gold.Protein.RotatedTorsions>
[  496  491  490  487 ] final  -43.08 input  -89.99 | X-H torsion

> <Gold.Protein.ActiveResidues>
 MET295  LEU298  THR299  LEU301  ALA302  GLU305  TRP335  MET336  LEU339  MET340 
 GLY342  LEU343  ARG346  PHE356  ILE373  ILE376  PHE377  LEU380  LYS471  GLY472 
 MET473  HIS475  LEU476  LEU477  ASN478  MET479  VAL484  VAL487 

> <Gold.Protein.RotatedAtoms>
   36.3809   34.6694   41.7288 H   0  0  0  0  0  0  0  0  0  0  0  0  # atno 496  bound_to 491 

> <Gold.Score>
     Score     S(PLP)   S(hbond)     S(cho)   S(metal)  DE(clash)   DE(tors)     intcor
     43.25     -37.29       0.00       2.00       0.00       0.00       0.02       0.00

> <Gold.PLP.Fitness>
43.2461

> <Gold.PLP.PLP>
-37.2868

> <Gold.PLP.part.hbond>
0.0000

> <Gold.PLP.part.metal>
0.0000

> <Gold.PLP.part.buried>
-2.4891

> <Gold.PLP.part.nonpolar>
-35.3259

> <Gold.PLP.part.repulsive>
0.1029

> <Gold.PLP.ligand.clash>
0.0000

> <Gold.PLP.ligand.torsion>
0.0204

> <Gold.PLP.Chemscore.Hbond>
0.0000

> <Gold.PLP.Chemscore.CHOScore>
2.0000

> <Gold.PLP.Chemscore.Metal>
0.0000

> <Gold.Chemscore.Hbonds>
donor molecule, donor type, donor heavy atom, donor atom, acceptor molecule, acceptor atom, score
      L1  C     4    14       P1   470  1.00
      L1  C    11    17       P1  3229  1.00

> <Gold.PLP.Chemscore.Internal.Correction>
0.0001

