#       Name:                EN300-102141_i001
#       Creating user name   aseyller
#       Creation time:       Fri Apr 21 18:15:20 2023


#       File generated by GOLD software.
#

@<TRIPOS>MOLECULE
EN300-102141_i001|benzaldehydes|mol2|480|dock9
    17    18     1
SMALL
USER_CHARGES


@<TRIPOS>ATOM
      1 O1          31.3861  38.4060  34.7918 O.2            1 <1>                0.0000
      2 C2          31.8376  37.7263  35.6920 C.2            1 <1>                0.0000
      3 C3          31.0256  37.3842  36.7920 C.2            1 <1>                0.0000
      4 C4          31.4210  36.6756  37.9024 C.2            1 <1>                0.0000
      5 N5          30.4741  36.4927  38.7787 N.2            1 <1>                0.0000
      6 C6          29.2965  36.9913  38.5028 C.2            1 <1>                0.0000
      7 S7          29.3240  37.7943  36.9942 S.3            1 <1>                0.0000
      8 C8          28.1178  36.8815  39.3702 C.2            1 <1>                0.0000
      9 C9          26.8280  37.1143  38.9870 C.2            1 <1>                0.0000
     10 C10         25.9177  36.9368  40.0050 C.2            1 <1>                0.0000
     11 C11         26.4436  36.5720  41.1783 C.2            1 <1>                0.0000
     12 S12         28.1395  36.4218  41.0672 S.3            1 <1>                0.0000
     13 H13         32.8597  37.3807  35.6472 H              1 <1>                0.0000
     14 H14         32.4261  36.3037  38.0359 H              1 <1>                0.0000
     15 H15         26.5496  37.4085  37.9859 H              1 <1>                0.0000
     16 H16         24.8566  37.0820  39.8657 H              1 <1>                0.0000
     17 H17         25.8710  36.3921  42.0760 H              1 <1>                0.0000
@<TRIPOS>BOND
    1    1    2 2     
    2    2    3 1     
    3    2   13 1     
    4    3    4 2     
    5    3    7 1     
    6    4    5 1     
    7    4   14 1     
    8    5    6 2     
    9    6    7 1     
   10    6    8 1     
   11    8    9 2     
   12    8   12 1     
   13    9   10 1     
   14    9   15 1     
   15   10   11 2     
   16   10   16 1     
   17   11   12 1     
   18   11   17 1     
@<TRIPOS>SUBSTRUCTURE
      1 ****           1
@<TRIPOS>COMMENT
> <Gold.Version>
2022.2.0

> <Gold.Id.Protein>
1qkm|1qkm_protein|mol2

> <Gold.Protein.RotatedTorsions>
[  496  491  490  487 ] final  104.96 input  -89.99 | X-H torsion

> <Gold.Protein.ActiveResidues>
 MET295  LEU298  THR299  LEU301  ALA302  GLU305  TRP335  MET336  LEU339  MET340 
 GLY342  LEU343  ARG346  PHE356  ILE373  ILE376  PHE377  LEU380  LYS471  GLY472 
 MET473  HIS475  LEU476  LEU477  ASN478  MET479  VAL484  VAL487 

> <Gold.Protein.RotatedAtoms>
   36.9557   32.9526   41.8316 H   0  0  0  0  0  0  0  0  0  0  0  0  # atno 496  bound_to 491 

> <Gold.Score>
     Score     S(PLP)   S(hbond)     S(cho)   S(metal)  DE(clash)   DE(tors)     intcor
     42.11     -39.34       0.00       1.00       0.00       0.00       0.11       0.00

> <Gold.PLP.Fitness>
42.1124

> <Gold.PLP.PLP>
-39.3390

> <Gold.PLP.part.hbond>
0.0000

> <Gold.PLP.part.metal>
0.0000

> <Gold.PLP.part.buried>
-3.4428

> <Gold.PLP.part.nonpolar>
-36.4488

> <Gold.PLP.part.repulsive>
0.1196

> <Gold.PLP.ligand.clash>
0.0000

> <Gold.PLP.ligand.torsion>
0.1133

> <Gold.PLP.Chemscore.Hbond>
0.0000

> <Gold.PLP.Chemscore.CHOScore>
1.0000

> <Gold.PLP.Chemscore.Metal>
0.0000

> <Gold.Chemscore.Hbonds>
donor molecule, donor type, donor heavy atom, donor atom, acceptor molecule, acceptor atom, score
      L1  C    11    17       P1   582  1.00

> <Gold.PLP.Chemscore.Internal.Correction>
0.0001

