#       Name:                EN300-102141_i001
#       Creating user name   aseyller
#       Creation time:       Fri Apr 21 18:15:21 2023


#       File generated by GOLD software.
#

@<TRIPOS>MOLECULE
EN300-102141_i001|benzaldehydes|mol2|480|dock12
    17    18     1
SMALL
USER_CHARGES


@<TRIPOS>ATOM
      1 O1          27.2434  36.2313  41.0769 O.2            1 <1>                0.0000
      2 C2          27.3186  36.6995  39.9583 C.2            1 <1>                0.0000
      3 C3          28.5308  36.6251  39.2432 C.2            1 <1>                0.0000
      4 C4          29.6999  36.0521  39.6865 C.2            1 <1>                0.0000
      5 N5          30.6791  36.1157  38.8292 N.2            1 <1>                0.0000
      6 C6          30.4373  36.7003  37.6841 C.2            1 <1>                0.0000
      7 S7          28.8177  37.2427  37.6181 S.3            1 <1>                0.0000
      8 C8          31.4180  36.8626  36.6044 C.2            1 <1>                0.0000
      9 C9          32.5494  36.1153  36.4433 C.2            1 <1>                0.0000
     10 C10         33.2913  36.4822  35.3425 C.2            1 <1>                0.0000
     11 C11         32.7852  37.4927  34.6292 C.2            1 <1>                0.0000
     12 S12         31.3203  38.0454  35.3072 S.3            1 <1>                0.0000
     13 H13         26.4553  37.1688  39.5102 H              1 <1>                0.0000
     14 H14         29.7977  35.5911  40.6582 H              1 <1>                0.0000
     15 H15         32.8342  35.3167  37.1122 H              1 <1>                0.0000
     16 H16         34.2146  35.9896  35.0754 H              1 <1>                0.0000
     17 H17         33.2406  37.9021  33.7397 H              1 <1>                0.0000
@<TRIPOS>BOND
    1    1    2 2     
    2    2    3 1     
    3    2   13 1     
    4    3    4 2     
    5    3    7 1     
    6    4    5 1     
    7    4   14 1     
    8    5    6 2     
    9    6    7 1     
   10    6    8 1     
   11    8    9 2     
   12    8   12 1     
   13    9   10 1     
   14    9   15 1     
   15   10   11 2     
   16   10   16 1     
   17   11   12 1     
   18   11   17 1     
@<TRIPOS>SUBSTRUCTURE
      1 ****           1
@<TRIPOS>COMMENT
> <Gold.Version>
2022.2.0

> <Gold.Id.Protein>
1qkm|1qkm_protein|mol2

> <Gold.Protein.RotatedTorsions>
[  496  491  490  487 ] final  -12.81 input  -89.99 | X-H torsion

> <Gold.Protein.ActiveResidues>
 MET295  LEU298  THR299  LEU301  ALA302  GLU305  TRP335  MET336  LEU339  MET340 
 GLY342  LEU343  ARG346  PHE356  ILE373  ILE376  PHE377  LEU380  LYS471  GLY472 
 MET473  HIS475  LEU476  LEU477  ASN478  MET479  VAL484  VAL487 

> <Gold.Protein.RotatedAtoms>
   36.2659   34.3851   42.1143 H   0  0  0  0  0  0  0  0  0  0  0  0  # atno 496  bound_to 491 

> <Gold.Score>
     Score     S(PLP)   S(hbond)     S(cho)   S(metal)  DE(clash)   DE(tors)     intcor
     42.69     -37.73       0.00       1.78       0.00       0.00       0.19       0.00

> <Gold.PLP.Fitness>
42.6892

> <Gold.PLP.PLP>
-37.7344

> <Gold.PLP.part.hbond>
0.0000

> <Gold.PLP.part.metal>
0.0000

> <Gold.PLP.part.buried>
-3.2767

> <Gold.PLP.part.nonpolar>
-34.7396

> <Gold.PLP.part.repulsive>
0.1699

> <Gold.PLP.ligand.clash>
0.0000

> <Gold.PLP.ligand.torsion>
0.1910

> <Gold.PLP.Chemscore.Hbond>
0.0000

> <Gold.PLP.Chemscore.CHOScore>
1.7789

> <Gold.PLP.Chemscore.Metal>
0.0000

> <Gold.Chemscore.Hbonds>
donor molecule, donor type, donor heavy atom, donor atom, acceptor molecule, acceptor atom, score
      L1  C     4    14       P1   470  1.00
      L1  C    11    17       P1  3229  0.78

> <Gold.PLP.Chemscore.Internal.Correction>
0.0001

