#       Name:                EN300-102141_i001
#       Creating user name   aseyller
#       Creation time:       Fri Apr 21 18:15:22 2023


#       File generated by GOLD software.
#

@<TRIPOS>MOLECULE
EN300-102141_i001|benzaldehydes|mol2|480|dock16
    17    18     1
SMALL
USER_CHARGES


@<TRIPOS>ATOM
      1 O1          32.9166  37.3053  35.7616 O.2            1 <1>                0.0000
      2 C2          32.8404  36.5406  36.7027 C.2            1 <1>                0.0000
      3 C3          31.6368  36.4336  37.4281 C.2            1 <1>                0.0000
      4 C4          31.4201  35.6339  38.5259 C.2            1 <1>                0.0000
      5 N5          30.2148  35.7194  39.0136 N.2            1 <1>                0.0000
      6 C6          29.3818  36.5323  38.4162 C.2            1 <1>                0.0000
      7 S7          30.1425  37.3060  37.0956 S.3            1 <1>                0.0000
      8 C8          27.9902  36.7534  38.8263 C.2            1 <1>                0.0000
      9 C9          27.1015  37.5792  38.1994 C.2            1 <1>                0.0000
     10 C10         25.8608  37.5970  38.7969 C.2            1 <1>                0.0000
     11 C11         25.7390  36.8142  39.8733 C.2            1 <1>                0.0000
     12 S12         27.1979  35.9917  40.1986 S.3            1 <1>                0.0000
     13 H13         33.6936  35.9397  36.9806 H              1 <1>                0.0000
     14 H14         32.1806  34.9924  38.9459 H              1 <1>                0.0000
     15 H15         27.3471  38.1605  37.3230 H              1 <1>                0.0000
     16 H16         25.0461  38.1996  38.4233 H              1 <1>                0.0000
     17 H17         24.8360  36.7126  40.4569 H              1 <1>                0.0000
@<TRIPOS>BOND
    1    1    2 2     
    2    2    3 1     
    3    2   13 1     
    4    3    4 2     
    5    3    7 1     
    6    4    5 1     
    7    4   14 1     
    8    5    6 2     
    9    6    7 1     
   10    6    8 1     
   11    8    9 2     
   12    8   12 1     
   13    9   10 1     
   14    9   15 1     
   15   10   11 2     
   16   10   16 1     
   17   11   12 1     
   18   11   17 1     
@<TRIPOS>SUBSTRUCTURE
      1 ****           1
@<TRIPOS>COMMENT
> <Gold.Version>
2022.2.0

> <Gold.Id.Protein>
1qkm|1qkm_protein|mol2

> <Gold.Protein.RotatedTorsions>
[  496  491  490  487 ] final  -82.93 input  -89.99 | X-H torsion

> <Gold.Protein.ActiveResidues>
 MET295  LEU298  THR299  LEU301  ALA302  GLU305  TRP335  MET336  LEU339  MET340 
 GLY342  LEU343  ARG346  PHE356  ILE373  ILE376  PHE377  LEU380  LYS471  GLY472 
 MET473  HIS475  LEU476  LEU477  ASN478  MET479  VAL484  VAL487 

> <Gold.Protein.RotatedAtoms>
   36.6925   34.6934   41.1670 H   0  0  0  0  0  0  0  0  0  0  0  0  # atno 496  bound_to 491 

> <Gold.Score>
     Score     S(PLP)   S(hbond)     S(cho)   S(metal)  DE(clash)   DE(tors)     intcor
     42.53     -39.56       0.00       0.99       0.00       0.00       0.00       0.00

> <Gold.PLP.Fitness>
42.5342

> <Gold.PLP.PLP>
-39.5602

> <Gold.PLP.part.hbond>
0.0000

> <Gold.PLP.part.metal>
0.0000

> <Gold.PLP.part.buried>
-3.0807

> <Gold.PLP.part.nonpolar>
-37.5854

> <Gold.PLP.part.repulsive>
0.1520

> <Gold.PLP.ligand.clash>
0.0000

> <Gold.PLP.ligand.torsion>
0.0011

> <Gold.PLP.Chemscore.Hbond>
0.0000

> <Gold.PLP.Chemscore.CHOScore>
0.9921

> <Gold.PLP.Chemscore.Metal>
0.0000

> <Gold.Chemscore.Hbonds>
donor molecule, donor type, donor heavy atom, donor atom, acceptor molecule, acceptor atom, score
      L1  C    11    17       P1  1131  0.99

> <Gold.PLP.Chemscore.Internal.Correction>
0.0001

