#       Name:                EN300-102141_i001
#       Creating user name   aseyller
#       Creation time:       Fri Apr 21 18:15:24 2023


#       File generated by GOLD software.
#

@<TRIPOS>MOLECULE
EN300-102141_i001|benzaldehydes|mol2|480|dock19
    17    18     1
SMALL
USER_CHARGES


@<TRIPOS>ATOM
      1 O1          27.3886  35.8583  41.1919 O.2            1 <1>                0.0000
      2 C2          27.2483  36.4446  40.1369 C.2            1 <1>                0.0000
      3 C3          28.3586  36.6555  39.2949 C.2            1 <1>                0.0000
      4 C4          29.6732  36.3983  39.6067 C.2            1 <1>                0.0000
      5 N5          30.5100  36.6824  38.6491 N.2            1 <1>                0.0000
      6 C6          30.0114  37.1640  37.5397 C.2            1 <1>                0.0000
      7 S7          28.3104  37.2890  37.6514 S.3            1 <1>                0.0000
      8 C8          30.8017  37.5393  36.3614 C.2            1 <1>                0.0000
      9 C9          30.3575  38.3034  35.3204 C.2            1 <1>                0.0000
     10 C10         31.3102  38.5012  34.3458 C.2            1 <1>                0.0000
     11 C11         32.4906  37.9203  34.5808 C.2            1 <1>                0.0000
     12 S12         32.4742  37.0836  36.0676 S.3            1 <1>                0.0000
     13 H13         26.2720  36.8002  39.8424 H              1 <1>                0.0000
     14 H14         29.9842  35.9971  40.5600 H              1 <1>                0.0000
     15 H15         29.3591  38.7114  35.2666 H              1 <1>                0.0000
     16 H16         31.1174  39.0830  33.4564 H              1 <1>                0.0000
     17 H17         33.3427  37.9765  33.9198 H              1 <1>                0.0000
@<TRIPOS>BOND
    1    1    2 2     
    2    2    3 1     
    3    2   13 1     
    4    3    4 2     
    5    3    7 1     
    6    4    5 1     
    7    4   14 1     
    8    5    6 2     
    9    6    7 1     
   10    6    8 1     
   11    8    9 2     
   12    8   12 1     
   13    9   10 1     
   14    9   15 1     
   15   10   11 2     
   16   10   16 1     
   17   11   12 1     
   18   11   17 1     
@<TRIPOS>SUBSTRUCTURE
      1 ****           1
@<TRIPOS>COMMENT
> <Gold.Version>
2022.2.0

> <Gold.Id.Protein>
1qkm|1qkm_protein|mol2

> <Gold.Protein.RotatedTorsions>
[  496  491  490  487 ] final  -24.26 input  -89.99 | X-H torsion

> <Gold.Protein.ActiveResidues>
 MET295  LEU298  THR299  LEU301  ALA302  GLU305  TRP335  MET336  LEU339  MET340 
 GLY342  LEU343  ARG346  PHE356  ILE373  ILE376  PHE377  LEU380  LYS471  GLY472 
 MET473  HIS475  LEU476  LEU477  ASN478  MET479  VAL484  VAL487 

> <Gold.Protein.RotatedAtoms>
   36.2935   34.5156   41.9815 H   0  0  0  0  0  0  0  0  0  0  0  0  # atno 496  bound_to 491 

> <Gold.Score>
     Score     S(PLP)   S(hbond)     S(cho)   S(metal)  DE(clash)   DE(tors)     intcor
     42.25     -36.54       0.00       1.98       0.00       0.00       0.12       0.00

> <Gold.PLP.Fitness>
42.2515

> <Gold.PLP.PLP>
-36.5428

> <Gold.PLP.part.hbond>
0.0000

> <Gold.PLP.part.metal>
0.0000

> <Gold.PLP.part.buried>
-3.2926

> <Gold.PLP.part.nonpolar>
-33.7025

> <Gold.PLP.part.repulsive>
0.1698

> <Gold.PLP.ligand.clash>
0.0000

> <Gold.PLP.ligand.torsion>
0.1177

> <Gold.PLP.Chemscore.Hbond>
0.0000

> <Gold.PLP.Chemscore.CHOScore>
1.9813

> <Gold.PLP.Chemscore.Metal>
0.0000

> <Gold.Chemscore.Hbonds>
donor molecule, donor type, donor heavy atom, donor atom, acceptor molecule, acceptor atom, score
      L1  C     4    14       P1   470  0.98
      L1  C    11    17       P1  3229  1.00

> <Gold.PLP.Chemscore.Internal.Correction>
0.0001

