#       Name:                EN300-102141_i001
#       Creating user name   aseyller
#       Creation time:       Fri Apr 21 18:15:23 2023


#       File generated by GOLD software.
#

@<TRIPOS>MOLECULE
EN300-102141_i001|benzaldehydes|mol2|480|dock17
    17    18     1
SMALL
USER_CHARGES


@<TRIPOS>ATOM
      1 O1          27.4824  36.2848  41.2459 O.2            1 <1>                0.0000
      2 C2          28.5417  35.8051  40.8935 C.2            1 <1>                0.0000
      3 C3          29.1457  36.2346  39.6948 C.2            1 <1>                0.0000
      4 C4          28.6062  37.1130  38.7843 C.2            1 <1>                0.0000
      5 N5          29.3711  37.3455  37.7553 N.2            1 <1>                0.0000
      6 C6          30.5260  36.7322  37.7153 C.2            1 <1>                0.0000
      7 S7          30.7306  35.7484  39.0979 S.3            1 <1>                0.0000
      8 C8          31.5110  36.8736  36.6366 C.2            1 <1>                0.0000
      9 C9          32.5264  35.9999  36.3716 C.2            1 <1>                0.0000
     10 C10         33.3030  36.3777  35.2990 C.2            1 <1>                0.0000
     11 C11         32.9363  37.5189  34.7079 C.2            1 <1>                0.0000
     12 S12         31.5680  38.1912  35.4737 S.3            1 <1>                0.0000
     13 H13         29.0225  35.0528  41.5010 H              1 <1>                0.0000
     14 H14         27.6353  37.5689  38.9106 H              1 <1>                0.0000
     15 H15         32.7029  35.1026  36.9460 H              1 <1>                0.0000
     16 H16         34.1468  35.7948  34.9604 H              1 <1>                0.0000
     17 H17         33.4369  37.9552  33.8563 H              1 <1>                0.0000
@<TRIPOS>BOND
    1    1    2 2     
    2    2    3 1     
    3    2   13 1     
    4    3    4 2     
    5    3    7 1     
    6    4    5 1     
    7    4   14 1     
    8    5    6 2     
    9    6    7 1     
   10    6    8 1     
   11    8    9 2     
   12    8   12 1     
   13    9   10 1     
   14    9   15 1     
   15   10   11 2     
   16   10   16 1     
   17   11   12 1     
   18   11   17 1     
@<TRIPOS>SUBSTRUCTURE
      1 ****           1
@<TRIPOS>COMMENT
> <Gold.Version>
2022.2.0

> <Gold.Id.Protein>
1qkm|1qkm_protein|mol2

> <Gold.Protein.RotatedTorsions>
[  496  491  490  487 ] final   30.54 input  -89.99 | X-H torsion

> <Gold.Protein.ActiveResidues>
 MET295  LEU298  THR299  LEU301  ALA302  GLU305  TRP335  MET336  LEU339  MET340 
 GLY342  LEU343  ARG346  PHE356  ILE373  ILE376  PHE377  LEU380  LYS471  GLY472 
 MET473  HIS475  LEU476  LEU477  ASN478  MET479  VAL484  VAL487 

> <Gold.Protein.RotatedAtoms>
   36.3491   33.7471   42.3812 H   0  0  0  0  0  0  0  0  0  0  0  0  # atno 496  bound_to 491 

> <Gold.Score>
     Score     S(PLP)   S(hbond)     S(cho)   S(metal)  DE(clash)   DE(tors)     intcor
     42.31     -39.64       0.00       1.00       0.00       0.00       0.17       0.00

> <Gold.PLP.Fitness>
42.3053

> <Gold.PLP.PLP>
-39.6448

> <Gold.PLP.part.hbond>
0.0000

> <Gold.PLP.part.metal>
0.0000

> <Gold.PLP.part.buried>
-2.7473

> <Gold.PLP.part.nonpolar>
-36.9507

> <Gold.PLP.part.repulsive>
0.1067

> <Gold.PLP.ligand.clash>
0.0000

> <Gold.PLP.ligand.torsion>
0.1682

> <Gold.PLP.Chemscore.Hbond>
0.0000

> <Gold.PLP.Chemscore.CHOScore>
0.9989

> <Gold.PLP.Chemscore.Metal>
0.0000

> <Gold.Chemscore.Hbonds>
donor molecule, donor type, donor heavy atom, donor atom, acceptor molecule, acceptor atom, score
      L1  C    11    17       P1  3229  1.00

> <Gold.PLP.Chemscore.Internal.Correction>
0.0001

