#       Name:                EN300-102141_i001
#       Creating user name   aseyller
#       Creation time:       Fri Apr 21 18:15:20 2023


#       File generated by GOLD software.
#

@<TRIPOS>MOLECULE
EN300-102141_i001|benzaldehydes|mol2|480|dock10
    17    18     1
SMALL
USER_CHARGES


@<TRIPOS>ATOM
      1 O1          28.5316  35.8366  41.5622 O.2            1 <1>                0.0000
      2 C2          28.4221  36.5903  40.6156 C.2            1 <1>                0.0000
      3 C3          29.3776  36.5644  39.5799 C.2            1 <1>                0.0000
      4 C4          30.4545  35.7135  39.4913 C.2            1 <1>                0.0000
      5 N5          31.1880  35.8965  38.4300 N.2            1 <1>                0.0000
      6 C6          30.8209  36.8405  37.6021 C.2            1 <1>                0.0000
      7 S7          29.4022  37.6114  38.1629 S.3            1 <1>                0.0000
      8 C8          31.5255  37.1857  36.3618 C.2            1 <1>                0.0000
      9 C9          31.1607  38.1735  35.4924 C.2            1 <1>                0.0000
     10 C10         32.0021  38.2809  34.4074 C.2            1 <1>                0.0000
     11 C11         33.0179  37.4127  34.3899 C.2            1 <1>                0.0000
     12 S12         32.9786  36.3988  35.7614 S.3            1 <1>                0.0000
     13 H13         27.5901  37.2770  40.5656 H              1 <1>                0.0000
     14 H14         30.6728  34.9613  40.2349 H              1 <1>                0.0000
     15 H15         30.2987  38.8068  35.6406 H              1 <1>                0.0000
     16 H16         31.8517  39.0128  33.6276 H              1 <1>                0.0000
     17 H17         33.7665  37.3625  33.6131 H              1 <1>                0.0000
@<TRIPOS>BOND
    1    1    2 2     
    2    2    3 1     
    3    2   13 1     
    4    3    4 2     
    5    3    7 1     
    6    4    5 1     
    7    4   14 1     
    8    5    6 2     
    9    6    7 1     
   10    6    8 1     
   11    8    9 2     
   12    8   12 1     
   13    9   10 1     
   14    9   15 1     
   15   10   11 2     
   16   10   16 1     
   17   11   12 1     
   18   11   17 1     
@<TRIPOS>SUBSTRUCTURE
      1 ****           1
@<TRIPOS>COMMENT
> <Gold.Version>
2022.2.0

> <Gold.Id.Protein>
1qkm|1qkm_protein|mol2

> <Gold.Protein.RotatedTorsions>
[  496  491  490  487 ] final -169.82 input  -89.99 | X-H torsion

> <Gold.Protein.ActiveResidues>
 MET295  LEU298  THR299  LEU301  ALA302  GLU305  TRP335  MET336  LEU339  MET340 
 GLY342  LEU343  ARG346  PHE356  ILE373  ILE376  PHE377  LEU380  LYS471  GLY472 
 MET473  HIS475  LEU476  LEU477  ASN478  MET479  VAL484  VAL487 

> <Gold.Protein.RotatedAtoms>
   37.3040   33.6117   40.7947 H   0  0  0  0  0  0  0  0  0  0  0  0  # atno 496  bound_to 491 

> <Gold.Score>
     Score     S(PLP)   S(hbond)     S(cho)   S(metal)  DE(clash)   DE(tors)     intcor
     44.24     -38.25       0.00       2.00       0.00       0.00       0.00       0.00

> <Gold.PLP.Fitness>
44.2386

> <Gold.PLP.PLP>
-38.2494

> <Gold.PLP.part.hbond>
0.0000

> <Gold.PLP.part.metal>
0.0000

> <Gold.PLP.part.buried>
-0.5776

> <Gold.PLP.part.nonpolar>
-37.8452

> <Gold.PLP.part.repulsive>
0.2267

> <Gold.PLP.ligand.clash>
0.0000

> <Gold.PLP.ligand.torsion>
0.0011

> <Gold.PLP.Chemscore.Hbond>
0.0000

> <Gold.PLP.Chemscore.CHOScore>
1.9971

> <Gold.PLP.Chemscore.Metal>
0.0000

> <Gold.Chemscore.Hbonds>
donor molecule, donor type, donor heavy atom, donor atom, acceptor molecule, acceptor atom, score
      L1  C     4    14       P1   470  1.00
      L1  C    11    17       P1  3229  1.00

> <Gold.PLP.Chemscore.Internal.Correction>
0.0001

