#       Name:                EN300-102141_i001
#       Creating user name   aseyller
#       Creation time:       Fri Apr 21 18:15:19 2023


#       File generated by GOLD software.
#

@<TRIPOS>MOLECULE
EN300-102141_i001|benzaldehydes|mol2|480|dock7
    17    18     1
SMALL
USER_CHARGES


@<TRIPOS>ATOM
      1 O1          33.4306  35.8522  36.3892 O.2            1 <1>                0.0000
      2 C2          33.0411  35.7404  37.5347 C.2            1 <1>                0.0000
      3 C3          31.7322  36.1363  37.8758 C.2            1 <1>                0.0000
      4 C4          31.0489  37.2110  37.3565 C.2            1 <1>                0.0000
      5 N5          29.8486  37.3598  37.8414 N.2            1 <1>                0.0000
      6 C6          29.4517  36.4933  38.7376 C.2            1 <1>                0.0000
      7 S7          30.6755  35.3387  39.0384 S.3            1 <1>                0.0000
      8 C8          28.1369  36.5074  39.3895 C.2            1 <1>                0.0000
      9 C9          27.8305  35.8888  40.5678 C.2            1 <1>                0.0000
     10 C10         26.5194  36.0658  40.9500 C.2            1 <1>                0.0000
     11 C11         25.7801  36.8022  40.1149 C.2            1 <1>                0.0000
     12 S12         26.7062  37.3296  38.7826 S.3            1 <1>                0.0000
     13 H13         33.6964  35.3336  38.2906 H              1 <1>                0.0000
     14 H14         31.4695  37.8725  36.6136 H              1 <1>                0.0000
     15 H15         28.5448  35.3177  41.1422 H              1 <1>                0.0000
     16 H16         26.1178  35.6403  41.8578 H              1 <1>                0.0000
     17 H17         24.7366  37.0360  40.2656 H              1 <1>                0.0000
@<TRIPOS>BOND
    1    1    2 2     
    2    2    3 1     
    3    2   13 1     
    4    3    4 2     
    5    3    7 1     
    6    4    5 1     
    7    4   14 1     
    8    5    6 2     
    9    6    7 1     
   10    6    8 1     
   11    8    9 2     
   12    8   12 1     
   13    9   10 1     
   14    9   15 1     
   15   10   11 2     
   16   10   16 1     
   17   11   12 1     
   18   11   17 1     
@<TRIPOS>SUBSTRUCTURE
      1 ****           1
@<TRIPOS>COMMENT
> <Gold.Version>
2022.2.0

> <Gold.Id.Protein>
1qkm|1qkm_protein|mol2

> <Gold.Protein.RotatedTorsions>
[  496  491  490  487 ] final  -49.38 input  -89.99 | X-H torsion

> <Gold.Protein.ActiveResidues>
 MET295  LEU298  THR299  LEU301  ALA302  GLU305  TRP335  MET336  LEU339  MET340 
 GLY342  LEU343  ARG346  PHE356  ILE373  ILE376  PHE377  LEU380  LYS471  GLY472 
 MET473  HIS475  LEU476  LEU477  ASN478  MET479  VAL484  VAL487 

> <Gold.Protein.RotatedAtoms>
   36.4204   34.7015   41.6387 H   0  0  0  0  0  0  0  0  0  0  0  0  # atno 496  bound_to 491 

> <Gold.Score>
     Score     S(PLP)   S(hbond)     S(cho)   S(metal)  DE(clash)   DE(tors)     intcor
     43.32     -41.20       0.00       1.00       0.00       0.00       0.44       0.00

> <Gold.PLP.Fitness>
43.3155

> <Gold.PLP.PLP>
-41.1962

> <Gold.PLP.part.hbond>
0.0000

> <Gold.PLP.part.metal>
0.0000

> <Gold.PLP.part.buried>
-2.6952

> <Gold.PLP.part.nonpolar>
-38.8291

> <Gold.PLP.part.repulsive>
0.0138

> <Gold.PLP.ligand.clash>
0.0000

> <Gold.PLP.ligand.torsion>
0.4404

> <Gold.PLP.Chemscore.Hbond>
0.0000

> <Gold.PLP.Chemscore.CHOScore>
1.0000

> <Gold.PLP.Chemscore.Metal>
0.0000

> <Gold.Chemscore.Hbonds>
donor molecule, donor type, donor heavy atom, donor atom, acceptor molecule, acceptor atom, score
      L1  C    11    17       P1  1131  1.00

> <Gold.PLP.Chemscore.Internal.Correction>
0.0001

