#       Name:                EN300-102141_i001
#       Creating user name   aseyller
#       Creation time:       Fri Apr 21 18:15:24 2023


#       File generated by GOLD software.
#

@<TRIPOS>MOLECULE
EN300-102141_i001|benzaldehydes|mol2|480|dock20
    17    18     1
SMALL
USER_CHARGES


@<TRIPOS>ATOM
      1 O1          32.6203  37.3144  34.5672 O.2            1 <1>                0.0000
      2 C2          32.6608  36.7536  35.6443 C.2            1 <1>                0.0000
      3 C3          31.5278  36.7548  36.4825 C.2            1 <1>                0.0000
      4 C4          30.2448  37.0830  36.1112 C.2            1 <1>                0.0000
      5 N5          29.3765  37.0032  37.0794 N.2            1 <1>                0.0000
      6 C6          29.8188  36.6311  38.2531 C.2            1 <1>                0.0000
      7 S7          31.4999  36.3286  38.1919 S.3            1 <1>                0.0000
      8 C8          28.9867  36.4880  39.4535 C.2            1 <1>                0.0000
      9 C9          29.4076  36.6864  40.7372 C.2            1 <1>                0.0000
     10 C10         28.4168  36.4835  41.6719 C.2            1 <1>                0.0000
     11 C11         27.2286  36.1321  41.1711 C.2            1 <1>                0.0000
     12 S12         27.2862  36.0412  39.4684 S.3            1 <1>                0.0000
     13 H13         33.5637  36.2505  35.9575 H              1 <1>                0.0000
     14 H14         29.9808  37.3806  35.1071 H              1 <1>                0.0000
     15 H15         30.4166  36.9732  40.9939 H              1 <1>                0.0000
     16 H16         28.5875  36.5995  42.7321 H              1 <1>                0.0000
     17 H17         26.3481  35.9359  41.7648 H              1 <1>                0.0000
@<TRIPOS>BOND
    1    1    2 2     
    2    2    3 1     
    3    2   13 1     
    4    3    4 2     
    5    3    7 1     
    6    4    5 1     
    7    4   14 1     
    8    5    6 2     
    9    6    7 1     
   10    6    8 1     
   11    8    9 2     
   12    8   12 1     
   13    9   10 1     
   14    9   15 1     
   15   10   11 2     
   16   10   16 1     
   17   11   12 1     
   18   11   17 1     
@<TRIPOS>SUBSTRUCTURE
      1 ****           1
@<TRIPOS>COMMENT
> <Gold.Version>
2022.2.0

> <Gold.Id.Protein>
1qkm|1qkm_protein|mol2

> <Gold.Protein.RotatedTorsions>
[  496  491  490  487 ] final   59.98 input  -89.99 | X-H torsion

> <Gold.Protein.ActiveResidues>
 MET295  LEU298  THR299  LEU301  ALA302  GLU305  TRP335  MET336  LEU339  MET340 
 GLY342  LEU343  ARG346  PHE356  ILE373  ILE376  PHE377  LEU380  LYS471  GLY472 
 MET473  HIS475  LEU476  LEU477  ASN478  MET479  VAL484  VAL487 

> <Gold.Protein.RotatedAtoms>
   36.5513   33.3195   42.3032 H   0  0  0  0  0  0  0  0  0  0  0  0  # atno 496  bound_to 491 

> <Gold.Score>
     Score     S(PLP)   S(hbond)     S(cho)   S(metal)  DE(clash)   DE(tors)     intcor
     41.41     -39.29       0.00       1.00       0.00       0.00       0.44       0.00

> <Gold.PLP.Fitness>
41.4077

> <Gold.PLP.PLP>
-39.2852

> <Gold.PLP.part.hbond>
0.0000

> <Gold.PLP.part.metal>
0.0000

> <Gold.PLP.part.buried>
-2.2499

> <Gold.PLP.part.nonpolar>
-37.0012

> <Gold.PLP.part.repulsive>
0.1603

> <Gold.PLP.ligand.clash>
0.0000

> <Gold.PLP.ligand.torsion>
0.4388

> <Gold.PLP.Chemscore.Hbond>
0.0000

> <Gold.PLP.Chemscore.CHOScore>
1.0000

> <Gold.PLP.Chemscore.Metal>
0.0000

> <Gold.Chemscore.Hbonds>
donor molecule, donor type, donor heavy atom, donor atom, acceptor molecule, acceptor atom, score
      L1  C    11    17       P1   582  1.00

> <Gold.PLP.Chemscore.Internal.Correction>
0.0001

