#       Name:                EN300-102141_i001
#       Creating user name   aseyller
#       Creation time:       Fri Apr 21 18:15:22 2023


#       File generated by GOLD software.
#

@<TRIPOS>MOLECULE
EN300-102141_i001|benzaldehydes|mol2|480|dock15
    17    18     1
SMALL
USER_CHARGES


@<TRIPOS>ATOM
      1 O1          25.1646  36.7000  41.8243 O.2            1 <1>                0.0000
      2 C2          25.3274  37.2346  40.7454 C.2            1 <1>                0.0000
      3 C3          26.4993  36.9830  40.0040 C.2            1 <1>                0.0000
      4 C4          26.7482  37.3956  38.7159 C.2            1 <1>                0.0000
      5 N5          27.9124  37.0306  38.2584 N.2            1 <1>                0.0000
      6 C6          28.6804  36.3359  39.0578 C.2            1 <1>                0.0000
      7 S7          27.9111  36.0899  40.5642 S.3            1 <1>                0.0000
      8 C8          30.0181  35.8416  38.7115 C.2            1 <1>                0.0000
      9 C9          30.5037  34.5993  39.0042 C.2            1 <1>                0.0000
     10 C10         31.7924  34.4008  38.5608 C.2            1 <1>                0.0000
     11 C11         32.3409  35.4426  37.9285 C.2            1 <1>                0.0000
     12 S12         31.2494  36.7514  37.8468 S.3            1 <1>                0.0000
     13 H13         24.5722  37.8992  40.3526 H              1 <1>                0.0000
     14 H14         26.0417  37.9704  38.1353 H              1 <1>                0.0000
     15 H15         29.9344  33.8479  39.5309 H              1 <1>                0.0000
     16 H16         32.3211  33.4715  38.7132 H              1 <1>                0.0000
     17 H17         33.3405  35.4532  37.5198 H              1 <1>                0.0000
@<TRIPOS>BOND
    1    1    2 2     
    2    2    3 1     
    3    2   13 1     
    4    3    4 2     
    5    3    7 1     
    6    4    5 1     
    7    4   14 1     
    8    5    6 2     
    9    6    7 1     
   10    6    8 1     
   11    8    9 2     
   12    8   12 1     
   13    9   10 1     
   14    9   15 1     
   15   10   11 2     
   16   10   16 1     
   17   11   12 1     
   18   11   17 1     
@<TRIPOS>SUBSTRUCTURE
      1 ****           1
@<TRIPOS>COMMENT
> <Gold.Version>
2022.2.0

> <Gold.Id.Protein>
1qkm|1qkm_protein|mol2

> <Gold.Protein.RotatedTorsions>
[  496  491  490  487 ] final   47.46 input  -89.99 | X-H torsion

> <Gold.Protein.ActiveResidues>
 MET295  LEU298  THR299  LEU301  ALA302  GLU305  TRP335  MET336  LEU339  MET340 
 GLY342  LEU343  ARG346  PHE356  ILE373  ILE376  PHE377  LEU380  LYS471  GLY472 
 MET473  HIS475  LEU476  LEU477  ASN478  MET479  VAL484  VAL487 

> <Gold.Protein.RotatedAtoms>
   36.4543   33.4908   42.3625 H   0  0  0  0  0  0  0  0  0  0  0  0  # atno 496  bound_to 491 

> <Gold.Score>
     Score     S(PLP)   S(hbond)     S(cho)   S(metal)  DE(clash)   DE(tors)     intcor
     43.18     -43.04       0.51       0.00       0.00       0.00       0.70       0.00

> <Gold.PLP.Fitness>
43.1834

> <Gold.PLP.PLP>
-43.0418

> <Gold.PLP.part.hbond>
-1.0000

> <Gold.PLP.part.metal>
0.0000

> <Gold.PLP.part.buried>
-4.0195

> <Gold.PLP.part.nonpolar>
-39.6237

> <Gold.PLP.part.repulsive>
0.9000

> <Gold.PLP.ligand.clash>
0.0000

> <Gold.PLP.ligand.torsion>
0.7014

> <Gold.PLP.Chemscore.Hbond>
0.5148

> <Gold.PLP.Chemscore.CHOScore>
0.0000

> <Gold.PLP.Chemscore.Metal>
0.0000

> <Gold.Chemscore.Hbonds>
donor molecule, donor type, donor heavy atom, donor atom, acceptor molecule, acceptor atom, score
      P1  H  1258  1270       L1     1  0.51

> <Gold.PLP.Chemscore.Internal.Correction>
0.0001

