#       Name:                EN300-102141_i001
#       Creating user name   aseyller
#       Creation time:       Fri Apr 21 18:15:20 2023


#       File generated by GOLD software.
#

@<TRIPOS>MOLECULE
EN300-102141_i001|benzaldehydes|mol2|480|dock11
    17    18     1
SMALL
USER_CHARGES


@<TRIPOS>ATOM
      1 O1          24.9018  36.6494  41.8165 O.2            1 <1>                0.0000
      2 C2          25.2647  37.0158  40.7164 C.2            1 <1>                0.0000
      3 C3          26.6036  36.8293  40.3177 C.2            1 <1>                0.0000
      4 C4          27.6186  36.3241  41.0962 C.2            1 <1>                0.0000
      5 N5          28.7683  36.2539  40.4870 N.2            1 <1>                0.0000
      6 C6          28.8152  36.6609  39.2446 C.2            1 <1>                0.0000
      7 S7          27.2751  37.1947  38.7302 S.3            1 <1>                0.0000
      8 C8          30.0206  36.6549  38.4076 C.2            1 <1>                0.0000
      9 C9          31.1634  35.9548  38.6697 C.2            1 <1>                0.0000
     10 C10         32.1401  36.1311  37.7150 C.2            1 <1>                0.0000
     11 C11         31.8085  36.9455  36.7086 C.2            1 <1>                0.0000
     12 S12         30.2219  37.5417  36.9028 S.3            1 <1>                0.0000
     13 H13         24.5603  37.4804  40.0424 H              1 <1>                0.0000
     14 H14         27.4756  36.0139  42.1207 H              1 <1>                0.0000
     15 H15         31.2888  35.3262  39.5388 H              1 <1>                0.0000
     16 H16         33.1037  35.6469  37.7753 H              1 <1>                0.0000
     17 H17         32.4570  37.1903  35.8805 H              1 <1>                0.0000
@<TRIPOS>BOND
    1    1    2 2     
    2    2    3 1     
    3    2   13 1     
    4    3    4 2     
    5    3    7 1     
    6    4    5 1     
    7    4   14 1     
    8    5    6 2     
    9    6    7 1     
   10    6    8 1     
   11    8    9 2     
   12    8   12 1     
   13    9   10 1     
   14    9   15 1     
   15   10   11 2     
   16   10   16 1     
   17   11   12 1     
   18   11   17 1     
@<TRIPOS>SUBSTRUCTURE
      1 ****           1
@<TRIPOS>COMMENT
> <Gold.Version>
2022.2.0

> <Gold.Id.Protein>
1qkm|1qkm_protein|mol2

> <Gold.Protein.RotatedTorsions>
[  496  491  490  487 ] final  -24.98 input  -89.99 | X-H torsion

> <Gold.Protein.ActiveResidues>
 MET295  LEU298  THR299  LEU301  ALA302  GLU305  TRP335  MET336  LEU339  MET340 
 GLY342  LEU343  ARG346  PHE356  ILE373  ILE376  PHE377  LEU380  LYS471  GLY472 
 MET473  HIS475  LEU476  LEU477  ASN478  MET479  VAL484  VAL487 

> <Gold.Protein.RotatedAtoms>
   36.2959   34.5229   41.9726 H   0  0  0  0  0  0  0  0  0  0  0  0  # atno 496  bound_to 491 

> <Gold.Score>
     Score     S(PLP)   S(hbond)     S(cho)   S(metal)  DE(clash)   DE(tors)     intcor
     43.33     -39.36       0.62       0.78       0.00       0.00       0.12       0.00

> <Gold.PLP.Fitness>
43.3265

> <Gold.PLP.PLP>
-39.3607

> <Gold.PLP.part.hbond>
-1.0000

> <Gold.PLP.part.metal>
0.0000

> <Gold.PLP.part.buried>
-3.0765

> <Gold.PLP.part.nonpolar>
-36.9120

> <Gold.PLP.part.repulsive>
0.6618

> <Gold.PLP.ligand.clash>
0.0000

> <Gold.PLP.ligand.torsion>
0.1224

> <Gold.PLP.Chemscore.Hbond>
0.6240

> <Gold.PLP.Chemscore.CHOScore>
0.7795

> <Gold.PLP.Chemscore.Metal>
0.0000

> <Gold.Chemscore.Hbonds>
donor molecule, donor type, donor heavy atom, donor atom, acceptor molecule, acceptor atom, score
      P1  H  1258  1270       L1     1  0.62
      L1  C     4    14       P1   582  0.78

> <Gold.PLP.Chemscore.Internal.Correction>
0.0001

