#       Name:                EN300-102141_i001
#       Creating user name   aseyller
#       Creation time:       Fri Apr 21 18:15:19 2023


#       File generated by GOLD software.
#

@<TRIPOS>MOLECULE
EN300-102141_i001|benzaldehydes|mol2|480|dock8
    17    18     1
SMALL
USER_CHARGES


@<TRIPOS>ATOM
      1 O1          27.7125  36.3673  41.2563 O.2            1 <1>                0.0000
      2 C2          28.8071  36.0167  40.8625 C.2            1 <1>                0.0000
      3 C3          29.2757  36.4492  39.6057 C.2            1 <1>                0.0000
      4 C4          28.6074  37.2738  38.7310 C.2            1 <1>                0.0000
      5 N5          29.2624  37.5226  37.6324 N.2            1 <1>                0.0000
      6 C6          30.4422  36.9731  37.4995 C.2            1 <1>                0.0000
      7 S7          30.8258  36.0364  38.8768 S.3            1 <1>                0.0000
      8 C8          31.3168  37.1419  36.3332 C.2            1 <1>                0.0000
      9 C9          31.0521  37.9341  35.2528 C.2            1 <1>                0.0000
     10 C10         32.0471  37.9060  34.3011 C.2            1 <1>                0.0000
     11 C11         33.0878  37.1197  34.5923 C.2            1 <1>                0.0000
     12 S12         32.8765  36.3626  36.1065 S.3            1 <1>                0.0000
     13 H13         29.4229  35.3772  41.4775 H              1 <1>                0.0000
     14 H14         27.6274  37.6786  38.9362 H              1 <1>                0.0000
     15 H15         30.1525  38.5233  35.1544 H              1 <1>                0.0000
     16 H16         31.9905  38.4774  33.3863 H              1 <1>                0.0000
     17 H17         33.9497  36.9848  33.9557 H              1 <1>                0.0000
@<TRIPOS>BOND
    1    1    2 2     
    2    2    3 1     
    3    2   13 1     
    4    3    4 2     
    5    3    7 1     
    6    4    5 1     
    7    4   14 1     
    8    5    6 2     
    9    6    7 1     
   10    6    8 1     
   11    8    9 2     
   12    8   12 1     
   13    9   10 1     
   14    9   15 1     
   15   10   11 2     
   16   10   16 1     
   17   11   12 1     
   18   11   17 1     
@<TRIPOS>SUBSTRUCTURE
      1 ****           1
@<TRIPOS>COMMENT
> <Gold.Version>
2022.2.0

> <Gold.Id.Protein>
1qkm|1qkm_protein|mol2

> <Gold.Protein.RotatedTorsions>
[  496  491  490  487 ] final  -70.77 input  -89.99 | X-H torsion

> <Gold.Protein.ActiveResidues>
 MET295  LEU298  THR299  LEU301  ALA302  GLU305  TRP335  MET336  LEU339  MET340 
 GLY342  LEU343  ARG346  PHE356  ILE373  ILE376  PHE377  LEU380  LYS471  GLY472 
 MET473  HIS475  LEU476  LEU477  ASN478  MET479  VAL484  VAL487 

> <Gold.Protein.RotatedAtoms>
   36.5848   34.7316   41.3310 H   0  0  0  0  0  0  0  0  0  0  0  0  # atno 496  bound_to 491 

> <Gold.Score>
     Score     S(PLP)   S(hbond)     S(cho)   S(metal)  DE(clash)   DE(tors)     intcor
     43.27     -40.28       0.00       1.00       0.00       0.00       0.00       0.00

> <Gold.PLP.Fitness>
43.2702

> <Gold.PLP.PLP>
-40.2775

> <Gold.PLP.part.hbond>
0.0000

> <Gold.PLP.part.metal>
0.0000

> <Gold.PLP.part.buried>
-3.1918

> <Gold.PLP.part.nonpolar>
-37.2679

> <Gold.PLP.part.repulsive>
0.1101

> <Gold.PLP.ligand.clash>
0.0000

> <Gold.PLP.ligand.torsion>
0.0037

> <Gold.PLP.Chemscore.Hbond>
0.0000

> <Gold.PLP.Chemscore.CHOScore>
1.0000

> <Gold.PLP.Chemscore.Metal>
0.0000

> <Gold.Chemscore.Hbonds>
donor molecule, donor type, donor heavy atom, donor atom, acceptor molecule, acceptor atom, score
      L1  C    11    17       P1  3229  1.00

> <Gold.PLP.Chemscore.Internal.Correction>
0.0001

