#       Name:                EN300-23873_i001
#       Creating user name   aseyller
#       Creation time:       Fri Apr 21 17:30:59 2023


#       File generated by GOLD software.
#

@<TRIPOS>MOLECULE
EN300-23873_i001|Sulfonylchlorides|mol2|283|dock7
    19    18     1
SMALL
USER_CHARGES


@<TRIPOS>ATOM
      1 C1          26.6629  37.0203  38.9815 C.3            1 <1>                0.0000
      2 C2          27.5986  37.2921  37.8020 C.3            1 <1>                0.0000
      3 N3          28.9894  37.1430  38.2375 N.pl3          1 <1>                0.0000
      4 C4          29.2987  36.3922  39.4569 C.3            1 <1>                0.0000
      5 C5          30.1217  35.1534  39.0981 C.3            1 <1>                0.0000
      6 S6          30.2120  37.8233  37.3515 S.o2           1 <1>                0.0000
      7 O7          29.9384  39.2165  37.2938 O.2            1 <1>                0.0000
      8 O8          31.4247  37.2900  37.8655 O.2            1 <1>                0.0000
      9 Cl9         30.0392  37.1293  35.4624 Cl             1 <1>                0.0000
     10 H10         26.8228  36.0055  39.3458 H              1 <1>                0.0000
     11 H11         26.8711  37.7306  39.7817 H              1 <1>                0.0000
     12 H12         25.6282  37.1312  38.6574 H              1 <1>                0.0000
     13 H13         27.3904  36.5818  37.0018 H              1 <1>                0.0000
     14 H14         27.4388  38.3068  37.4377 H              1 <1>                0.0000
     15 H15         29.8703  37.0236  40.1372 H              1 <1>                0.0000
     16 H16         28.3710  36.0849  39.9395 H              1 <1>                0.0000
     17 H17         30.3518  34.5947  40.0054 H              1 <1>                0.0000
     18 H18         29.5501  34.5220  38.4179 H              1 <1>                0.0000
     19 H19         31.0495  35.4608  38.6155 H              1 <1>                0.0000
@<TRIPOS>BOND
    1    1    2 1     
    2    1   10 1     
    3    1   11 1     
    4    1   12 1     
    5    2    3 1     
    6    2   13 1     
    7    2   14 1     
    8    3    4 1     
    9    3    6 1     
   10    4    5 1     
   11    4   15 1     
   12    4   16 1     
   13    5   17 1     
   14    5   18 1     
   15    5   19 1     
   16    6    7 2     
   17    6    8 2     
   18    6    9 1     
@<TRIPOS>SUBSTRUCTURE
      1 ****           1
@<TRIPOS>COMMENT
> <Gold.Version>
2022.2.0

> <Gold.Id.Protein>
1qkm|1qkm_protein|mol2

> <Gold.Protein.RotatedTorsions>
[  496  491  490  487 ] final  -35.01 input  -89.99 | X-H torsion

> <Gold.Protein.ActiveResidues>
 MET295  LEU298  THR299  LEU301  ALA302  GLU305  TRP335  MET336  LEU339  MET340 
 GLY342  LEU343  ARG346  PHE356  ILE373  ILE376  PHE377  LEU380  LYS471  GLY472 
 MET473  HIS475  LEU476  LEU477  ASN478  MET479  VAL484  VAL487 

> <Gold.Protein.RotatedAtoms>
   36.3374   34.6136   41.8411 H   0  0  0  0  0  0  0  0  0  0  0  0  # atno 496  bound_to 491 

> <Gold.Score>
     Score     S(PLP)   S(hbond)     S(cho)   S(metal)  DE(clash)   DE(tors)     intcor
     26.39     -27.14       0.00       0.00       0.00       0.00       1.37       1.98

> <Gold.PLP.Fitness>
26.3885

> <Gold.PLP.PLP>
-27.1383

> <Gold.PLP.part.hbond>
0.0000

> <Gold.PLP.part.metal>
0.0000

> <Gold.PLP.part.buried>
-1.4537

> <Gold.PLP.part.nonpolar>
-25.5199

> <Gold.PLP.part.repulsive>
0.0110

> <Gold.PLP.ligand.clash>
0.0000

> <Gold.PLP.ligand.torsion>
1.3663

> <Gold.PLP.Chemscore.Hbond>
0.0000

> <Gold.PLP.Chemscore.CHOScore>
0.0000

> <Gold.PLP.Chemscore.Metal>
0.0000

> <Gold.PLP.Chemscore.Internal.Correction>
1.9827

