#       Name:                EN300-23873_i001
#       Creating user name   aseyller
#       Creation time:       Fri Apr 21 17:31:02 2023


#       File generated by GOLD software.
#

@<TRIPOS>MOLECULE
EN300-23873_i001|Sulfonylchlorides|mol2|283|dock12
    19    18     1
SMALL
USER_CHARGES


@<TRIPOS>ATOM
      1 C1          32.1237  34.4707  37.6796 C.3            1 <1>                0.0000
      2 C2          32.3911  35.9674  37.8497 C.3            1 <1>                0.0000
      3 N3          32.1314  36.6569  36.5835 N.pl3          1 <1>                0.0000
      4 C4          32.9757  36.3884  35.4167 C.3            1 <1>                0.0000
      5 C5          32.6994  37.4352  34.3356 C.3            1 <1>                0.0000
      6 S6          30.8836  37.7399  36.4710 S.o2           1 <1>                0.0000
      7 O7          31.4766  39.0294  36.4021 O.2            1 <1>                0.0000
      8 O8          30.0028  37.2353  35.4767 O.2            1 <1>                0.0000
      9 Cl9         29.8718  37.6698  38.2179 Cl             1 <1>                0.0000
     10 H10         31.0842  34.3179  37.3893 H              1 <1>                0.0000
     11 H11         32.7795  34.0699  36.9066 H              1 <1>                0.0000
     12 H12         32.3169  33.9577  38.6218 H              1 <1>                0.0000
     13 H13         31.7352  36.3681  38.6227 H              1 <1>                0.0000
     14 H14         33.4304  36.1202  38.1401 H              1 <1>                0.0000
     15 H15         34.0248  36.4357  35.7087 H              1 <1>                0.0000
     16 H16         32.7515  35.3955  35.0268 H              1 <1>                0.0000
     17 H17         33.3277  37.2355  33.4674 H              1 <1>                0.0000
     18 H18         31.6504  37.3878  34.0435 H              1 <1>                0.0000
     19 H19         32.9237  38.4281  34.7255 H              1 <1>                0.0000
@<TRIPOS>BOND
    1    1    2 1     
    2    1   10 1     
    3    1   11 1     
    4    1   12 1     
    5    2    3 1     
    6    2   13 1     
    7    2   14 1     
    8    3    4 1     
    9    3    6 1     
   10    4    5 1     
   11    4   15 1     
   12    4   16 1     
   13    5   17 1     
   14    5   18 1     
   15    5   19 1     
   16    6    7 2     
   17    6    8 2     
   18    6    9 1     
@<TRIPOS>SUBSTRUCTURE
      1 ****           1
@<TRIPOS>COMMENT
> <Gold.Version>
2022.2.0

> <Gold.Id.Protein>
1qkm|1qkm_protein|mol2

> <Gold.Protein.RotatedTorsions>
[  496  491  490  487 ] final  -25.39 input  -89.99 | X-H torsion

> <Gold.Protein.ActiveResidues>
 MET295  LEU298  THR299  LEU301  ALA302  GLU305  TRP335  MET336  LEU339  MET340 
 GLY342  LEU343  ARG346  PHE356  ILE373  ILE376  PHE377  LEU380  LYS471  GLY472 
 MET473  HIS475  LEU476  LEU477  ASN478  MET479  VAL484  VAL487 

> <Gold.Protein.RotatedAtoms>
   36.2973   34.5270   41.9674 H   0  0  0  0  0  0  0  0  0  0  0  0  # atno 496  bound_to 491 

> <Gold.Score>
     Score     S(PLP)   S(hbond)     S(cho)   S(metal)  DE(clash)   DE(tors)     intcor
     27.96     -28.82       0.00       0.00       0.00       0.00       1.42       1.98

> <Gold.PLP.Fitness>
27.9571

> <Gold.PLP.PLP>
-28.8233

> <Gold.PLP.part.hbond>
0.0000

> <Gold.PLP.part.metal>
0.0000

> <Gold.PLP.part.buried>
-1.7099

> <Gold.PLP.part.nonpolar>
-27.1298

> <Gold.PLP.part.repulsive>
0.0259

> <Gold.PLP.ligand.clash>
0.0000

> <Gold.PLP.ligand.torsion>
1.4229

> <Gold.PLP.Chemscore.Hbond>
0.0000

> <Gold.PLP.Chemscore.CHOScore>
0.0000

> <Gold.PLP.Chemscore.Metal>
0.0000

> <Gold.PLP.Chemscore.Internal.Correction>
1.9794

