#       Name:                EN300-23873_i001
#       Creating user name   aseyller
#       Creation time:       Fri Apr 21 17:31:07 2023


#       File generated by GOLD software.
#

@<TRIPOS>MOLECULE
EN300-23873_i001|Sulfonylchlorides|mol2|283|dock18
    19    18     1
SMALL
USER_CHARGES


@<TRIPOS>ATOM
      1 C1          32.4351  34.9441  37.1269 C.3            1 <1>                0.0000
      2 C2          32.4643  36.3067  37.8220 C.3            1 <1>                0.0000
      3 N3          31.3383  37.1183  37.3532 N.pl3          1 <1>                0.0000
      4 C4          30.2971  37.5395  38.2939 C.3            1 <1>                0.0000
      5 C5          29.8029  36.3263  39.0843 C.3            1 <1>                0.0000
      6 S6          31.2424  37.5595  35.7599 S.o2           1 <1>                0.0000
      7 O7          30.2564  36.7230  35.1706 O.2            1 <1>                0.0000
      8 O8          31.1703  38.9786  35.7402 O.2            1 <1>                0.0000
      9 Cl9         33.0001  37.0657  34.8958 Cl             1 <1>                0.0000
     10 H10         31.4992  34.4367  37.3610 H              1 <1>                0.0000
     11 H11         32.5125  35.0845  36.0487 H              1 <1>                0.0000
     12 H12         33.2729  34.3404  37.4758 H              1 <1>                0.0000
     13 H13         32.3868  36.1664  38.9002 H              1 <1>                0.0000
     14 H14         33.4001  36.8141  37.5880 H              1 <1>                0.0000
     15 H15         30.7067  38.2792  38.9819 H              1 <1>                0.0000
     16 H16         29.4651  37.9775  37.7427 H              1 <1>                0.0000
     17 H17         29.0283  36.6397  39.7843 H              1 <1>                0.0000
     18 H18         29.3933  35.5867  38.3963 H              1 <1>                0.0000
     19 H19         30.6350  35.8883  39.6356 H              1 <1>                0.0000
@<TRIPOS>BOND
    1    1    2 1     
    2    1   10 1     
    3    1   11 1     
    4    1   12 1     
    5    2    3 1     
    6    2   13 1     
    7    2   14 1     
    8    3    4 1     
    9    3    6 1     
   10    4    5 1     
   11    4   15 1     
   12    4   16 1     
   13    5   17 1     
   14    5   18 1     
   15    5   19 1     
   16    6    7 2     
   17    6    8 2     
   18    6    9 1     
@<TRIPOS>SUBSTRUCTURE
      1 ****           1
@<TRIPOS>COMMENT
> <Gold.Version>
2022.2.0

> <Gold.Id.Protein>
1qkm|1qkm_protein|mol2

> <Gold.Protein.RotatedTorsions>
[  496  491  490  487 ] final  155.78 input  -89.99 | X-H torsion

> <Gold.Protein.ActiveResidues>
 MET295  LEU298  THR299  LEU301  ALA302  GLU305  TRP335  MET336  LEU339  MET340 
 GLY342  LEU343  ARG346  PHE356  ILE373  ILE376  PHE377  LEU380  LYS471  GLY472 
 MET473  HIS475  LEU476  LEU477  ASN478  MET479  VAL484  VAL487 

> <Gold.Protein.RotatedAtoms>
   37.2842   33.1601   41.1215 H   0  0  0  0  0  0  0  0  0  0  0  0  # atno 496  bound_to 491 

> <Gold.Score>
     Score     S(PLP)   S(hbond)     S(cho)   S(metal)  DE(clash)   DE(tors)     intcor
     26.51     -27.24       0.00       0.00       0.00       0.00       1.35       1.98

> <Gold.PLP.Fitness>
26.5119

> <Gold.PLP.PLP>
-27.2400

> <Gold.PLP.part.hbond>
0.0000

> <Gold.PLP.part.metal>
0.0000

> <Gold.PLP.part.buried>
-2.2628

> <Gold.PLP.part.nonpolar>
-25.6564

> <Gold.PLP.part.repulsive>
0.0578

> <Gold.PLP.ligand.clash>
0.0000

> <Gold.PLP.ligand.torsion>
1.3537

> <Gold.PLP.Chemscore.Hbond>
0.0000

> <Gold.PLP.Chemscore.CHOScore>
0.0000

> <Gold.PLP.Chemscore.Metal>
0.0000

> <Gold.PLP.Chemscore.Internal.Correction>
1.9794

