#       Name:                EN300-23873_i001
#       Creating user name   aseyller
#       Creation time:       Fri Apr 21 17:31:04 2023


#       File generated by GOLD software.
#

@<TRIPOS>MOLECULE
EN300-23873_i001|Sulfonylchlorides|mol2|283|dock14
    19    18     1
SMALL
USER_CHARGES


@<TRIPOS>ATOM
      1 C1          31.8068  34.1911  37.8995 C.3            1 <1>                0.0000
      2 C2          32.1059  35.5619  38.5095 C.3            1 <1>                0.0000
      3 N3          31.1713  36.5518  37.9683 N.pl3          1 <1>                0.0000
      4 C4          30.0731  37.0529  38.7985 C.3            1 <1>                0.0000
      5 C5          29.3325  35.8730  39.4311 C.3            1 <1>                0.0000
      6 S6          31.3560  37.1041  36.4180 S.o2           1 <1>                0.0000
      7 O7          30.0804  37.0004  35.8005 O.2            1 <1>                0.0000
      8 O8          32.0779  38.3246  36.5103 O.2            1 <1>                0.0000
      9 Cl9         32.5624  35.7991  35.4580 Cl             1 <1>                0.0000
     10 H10         30.7858  33.8990  38.1451 H              1 <1>                0.0000
     11 H11         31.9193  34.2429  36.8165 H              1 <1>                0.0000
     12 H12         32.5022  33.4547  38.3021 H              1 <1>                0.0000
     13 H13         31.9934  35.5101  39.5924 H              1 <1>                0.0000
     14 H14         33.1269  35.8540  38.2639 H              1 <1>                0.0000
     15 H15         30.4744  37.6933  39.5839 H              1 <1>                0.0000
     16 H16         29.3824  37.6260  38.1800 H              1 <1>                0.0000
     17 H17         28.5155  36.2458  40.0488 H              1 <1>                0.0000
     18 H18         28.9312  35.2327  38.6456 H              1 <1>                0.0000
     19 H19         30.0234  35.2999  40.0496 H              1 <1>                0.0000
@<TRIPOS>BOND
    1    1    2 1     
    2    1   10 1     
    3    1   11 1     
    4    1   12 1     
    5    2    3 1     
    6    2   13 1     
    7    2   14 1     
    8    3    4 1     
    9    3    6 1     
   10    4    5 1     
   11    4   15 1     
   12    4   16 1     
   13    5   17 1     
   14    5   18 1     
   15    5   19 1     
   16    6    7 2     
   17    6    8 2     
   18    6    9 1     
@<TRIPOS>SUBSTRUCTURE
      1 ****           1
@<TRIPOS>COMMENT
> <Gold.Version>
2022.2.0

> <Gold.Id.Protein>
1qkm|1qkm_protein|mol2

> <Gold.Protein.RotatedTorsions>
[  496  491  490  487 ] final   13.53 input  -89.99 | X-H torsion

> <Gold.Protein.ActiveResidues>
 MET295  LEU298  THR299  LEU301  ALA302  GLU305  TRP335  MET336  LEU339  MET340 
 GLY342  LEU343  ARG346  PHE356  ILE373  ILE376  PHE377  LEU380  LYS471  GLY472 
 MET473  HIS475  LEU476  LEU477  ASN478  MET479  VAL484  VAL487 

> <Gold.Protein.RotatedAtoms>
   36.2818   34.0123   42.3276 H   0  0  0  0  0  0  0  0  0  0  0  0  # atno 496  bound_to 491 

> <Gold.Score>
     Score     S(PLP)   S(hbond)     S(cho)   S(metal)  DE(clash)   DE(tors)     intcor
     27.02     -28.08       0.00       0.00       0.00       0.00       1.52       1.98

> <Gold.PLP.Fitness>
27.0212

> <Gold.PLP.PLP>
-28.0755

> <Gold.PLP.part.hbond>
0.0000

> <Gold.PLP.part.metal>
0.0000

> <Gold.PLP.part.buried>
-2.0365

> <Gold.PLP.part.nonpolar>
-26.3181

> <Gold.PLP.part.repulsive>
0.0188

> <Gold.PLP.ligand.clash>
0.0000

> <Gold.PLP.ligand.torsion>
1.5169

> <Gold.PLP.Chemscore.Hbond>
0.0000

> <Gold.PLP.Chemscore.CHOScore>
0.0000

> <Gold.PLP.Chemscore.Metal>
0.0000

> <Gold.PLP.Chemscore.Internal.Correction>
1.9794

