#       Name:                EN300-23873_i001
#       Creating user name   aseyller
#       Creation time:       Fri Apr 21 17:31:06 2023


#       File generated by GOLD software.
#

@<TRIPOS>MOLECULE
EN300-23873_i001|Sulfonylchlorides|mol2|283|dock16
    19    18     1
SMALL
USER_CHARGES


@<TRIPOS>ATOM
      1 C1          25.6678  37.3007  39.7768 C.3            1 <1>                0.0000
      2 C2          26.5355  36.5234  38.7851 C.3            1 <1>                0.0000
      3 N3          27.8519  36.2749  39.3781 N.pl3          1 <1>                0.0000
      4 C4          27.9627  35.5020  40.6177 C.3            1 <1>                0.0000
      5 C5          28.4980  36.4015  41.7335 C.3            1 <1>                0.0000
      6 S6          29.2145  36.8678  38.6473 S.o2           1 <1>                0.0000
      7 O7          29.9322  37.5745  39.6497 O.2            1 <1>                0.0000
      8 O8          29.7720  35.7920  37.9049 O.2            1 <1>                0.0000
      9 Cl9         28.6172  38.2446  37.2954 Cl             1 <1>                0.0000
     10 H10         25.5505  36.7186  40.6909 H              1 <1>                0.0000
     11 H11         26.1464  38.2518  40.0106 H              1 <1>                0.0000
     12 H12         24.6885  37.4856  39.3356 H              1 <1>                0.0000
     13 H13         26.0569  35.5723  38.5513 H              1 <1>                0.0000
     14 H14         26.6528  37.1054  37.8710 H              1 <1>                0.0000
     15 H15         26.9804  35.1213  40.8976 H              1 <1>                0.0000
     16 H16         28.6461  34.6666  40.4651 H              1 <1>                0.0000
     17 H17         28.5804  35.8265  42.6558 H              1 <1>                0.0000
     18 H18         29.4802  36.7822  41.4536 H              1 <1>                0.0000
     19 H19         27.8145  37.2369  41.8861 H              1 <1>                0.0000
@<TRIPOS>BOND
    1    1    2 1     
    2    1   10 1     
    3    1   11 1     
    4    1   12 1     
    5    2    3 1     
    6    2   13 1     
    7    2   14 1     
    8    3    4 1     
    9    3    6 1     
   10    4    5 1     
   11    4   15 1     
   12    4   16 1     
   13    5   17 1     
   14    5   18 1     
   15    5   19 1     
   16    6    7 2     
   17    6    8 2     
   18    6    9 1     
@<TRIPOS>SUBSTRUCTURE
      1 ****           1
@<TRIPOS>COMMENT
> <Gold.Version>
2022.2.0

> <Gold.Id.Protein>
1qkm|1qkm_protein|mol2

> <Gold.Protein.RotatedTorsions>
[  496  491  490  487 ] final  163.58 input  -89.99 | X-H torsion

> <Gold.Protein.ActiveResidues>
 MET295  LEU298  THR299  LEU301  ALA302  GLU305  TRP335  MET336  LEU339  MET340 
 GLY342  LEU343  ARG346  PHE356  ILE373  ILE376  PHE377  LEU380  LYS471  GLY472 
 MET473  HIS475  LEU476  LEU477  ASN478  MET479  VAL484  VAL487 

> <Gold.Protein.RotatedAtoms>
   37.3052   33.2465   41.0288 H   0  0  0  0  0  0  0  0  0  0  0  0  # atno 496  bound_to 491 

> <Gold.Score>
     Score     S(PLP)   S(hbond)     S(cho)   S(metal)  DE(clash)   DE(tors)     intcor
     28.89     -29.45       0.00       0.00       0.00       0.00       1.27       1.98

> <Gold.PLP.Fitness>
28.8872

> <Gold.PLP.PLP>
-29.4468

> <Gold.PLP.part.hbond>
0.0000

> <Gold.PLP.part.metal>
0.0000

> <Gold.PLP.part.buried>
1.2338

> <Gold.PLP.part.nonpolar>
-30.4775

> <Gold.PLP.part.repulsive>
0.0691

> <Gold.PLP.ligand.clash>
0.0000

> <Gold.PLP.ligand.torsion>
1.2696

> <Gold.PLP.Chemscore.Hbond>
0.0000

> <Gold.PLP.Chemscore.CHOScore>
0.0000

> <Gold.PLP.Chemscore.Metal>
0.0000

> <Gold.PLP.Chemscore.Internal.Correction>
1.9794

