#       Name:                EN300-23873_i001
#       Creating user name   aseyller
#       Creation time:       Fri Apr 21 17:31:08 2023


#       File generated by GOLD software.
#

@<TRIPOS>MOLECULE
EN300-23873_i001|Sulfonylchlorides|mol2|283|dock20
    19    18     1
SMALL
USER_CHARGES


@<TRIPOS>ATOM
      1 C1          30.6012  36.0973  38.6859 C.3            1 <1>                0.0000
      2 C2          29.6081  35.0100  39.1008 C.3            1 <1>                0.0000
      3 N3          28.4649  35.6258  39.7792 N.pl3          1 <1>                0.0000
      4 C4          28.3198  35.4991  41.2315 C.3            1 <1>                0.0000
      5 C5          28.7898  36.7897  41.9055 C.3            1 <1>                0.0000
      6 S6          27.3367  36.4650  38.9044 S.o2           1 <1>                0.0000
      7 O7          28.0282  37.5409  38.2852 O.2            1 <1>                0.0000
      8 O8          26.5927  35.4976  38.1763 O.2            1 <1>                0.0000
      9 Cl9         26.0534  37.2960  40.2246 Cl             1 <1>                0.0000
     10 H10         30.1115  36.7978  38.0094 H              1 <1>                0.0000
     11 H11         30.9480  36.6297  39.5716 H              1 <1>                0.0000
     12 H12         31.4517  35.6391  38.1812 H              1 <1>                0.0000
     13 H13         29.2612  34.4777  38.2150 H              1 <1>                0.0000
     14 H14         30.0977  34.3095  39.7771 H              1 <1>                0.0000
     15 H15         27.2730  35.3208  41.4779 H              1 <1>                0.0000
     16 H16         28.9237  34.6636  41.5854 H              1 <1>                0.0000
     17 H17         28.6817  36.6954  42.9861 H              1 <1>                0.0000
     18 H18         29.8365  36.9679  41.6592 H              1 <1>                0.0000
     19 H19         28.1857  37.6252  41.5515 H              1 <1>                0.0000
@<TRIPOS>BOND
    1    1    2 1     
    2    1   10 1     
    3    1   11 1     
    4    1   12 1     
    5    2    3 1     
    6    2   13 1     
    7    2   14 1     
    8    3    4 1     
    9    3    6 1     
   10    4    5 1     
   11    4   15 1     
   12    4   16 1     
   13    5   17 1     
   14    5   18 1     
   15    5   19 1     
   16    6    7 2     
   17    6    8 2     
   18    6    9 1     
@<TRIPOS>SUBSTRUCTURE
      1 ****           1
@<TRIPOS>COMMENT
> <Gold.Version>
2022.2.0

> <Gold.Id.Protein>
1qkm|1qkm_protein|mol2

> <Gold.Protein.RotatedTorsions>
[  496  491  490  487 ] final   22.90 input  -89.99 | X-H torsion

> <Gold.Protein.ActiveResidues>
 MET295  LEU298  THR299  LEU301  ALA302  GLU305  TRP335  MET336  LEU339  MET340 
 GLY342  LEU343  ARG346  PHE356  ILE373  ILE376  PHE377  LEU380  LYS471  GLY472 
 MET473  HIS475  LEU476  LEU477  ASN478  MET479  VAL484  VAL487 

> <Gold.Protein.RotatedAtoms>
   36.3137   33.8666   42.3660 H   0  0  0  0  0  0  0  0  0  0  0  0  # atno 496  bound_to 491 

> <Gold.Score>
     Score     S(PLP)   S(hbond)     S(cho)   S(metal)  DE(clash)   DE(tors)     intcor
     26.92     -28.32       0.00       0.00       0.00       0.00       1.69       1.98

> <Gold.PLP.Fitness>
26.9182

> <Gold.PLP.PLP>
-28.3213

> <Gold.PLP.part.hbond>
0.0000

> <Gold.PLP.part.metal>
0.0000

> <Gold.PLP.part.buried>
-0.5732

> <Gold.PLP.part.nonpolar>
-27.9158

> <Gold.PLP.part.repulsive>
0.0822

> <Gold.PLP.ligand.clash>
0.0000

> <Gold.PLP.ligand.torsion>
1.6913

> <Gold.PLP.Chemscore.Hbond>
0.0000

> <Gold.PLP.Chemscore.CHOScore>
0.0000

> <Gold.PLP.Chemscore.Metal>
0.0000

> <Gold.PLP.Chemscore.Internal.Correction>
1.9794

