#       Name:                EN300-23873_i001
#       Creating user name   aseyller
#       Creation time:       Fri Apr 21 17:31:03 2023


#       File generated by GOLD software.
#

@<TRIPOS>MOLECULE
EN300-23873_i001|Sulfonylchlorides|mol2|283|dock13
    19    18     1
SMALL
USER_CHARGES


@<TRIPOS>ATOM
      1 C1          32.3602  37.9758  34.4967 C.3            1 <1>                0.0000
      2 C2          31.3846  37.0194  35.1852 C.3            1 <1>                0.0000
      3 N3          31.4105  37.2527  36.6313 N.pl3          1 <1>                0.0000
      4 C4          32.6336  36.9905  37.3938 C.3            1 <1>                0.0000
      5 C5          33.0145  35.5152  37.2554 C.3            1 <1>                0.0000
      6 S6          30.0571  37.8127  37.4040 S.o2           1 <1>                0.0000
      7 O7          28.9437  37.2823  36.6980 O.2            1 <1>                0.0000
      8 O8          30.2705  37.5989  38.7925 O.2            1 <1>                0.0000
      9 Cl9         30.0011  39.8141  37.1371 Cl             1 <1>                0.0000
     10 H10         32.0672  39.0051  34.7039 H              1 <1>                0.0000
     11 H11         33.3676  37.8017  34.8748 H              1 <1>                0.0000
     12 H12         32.3409  37.8022  33.4208 H              1 <1>                0.0000
     13 H13         30.3772  37.1936  34.8071 H              1 <1>                0.0000
     14 H14         31.6775  35.9902  34.9779 H              1 <1>                0.0000
     15 H15         33.4420  37.6121  37.0088 H              1 <1>                0.0000
     16 H16         32.4639  37.2249  38.4446 H              1 <1>                0.0000
     17 H17         33.9246  35.3201  37.8227 H              1 <1>                0.0000
     18 H18         32.2061  34.8936  37.6404 H              1 <1>                0.0000
     19 H19         33.1842  35.2808  36.2044 H              1 <1>                0.0000
@<TRIPOS>BOND
    1    1    2 1     
    2    1   10 1     
    3    1   11 1     
    4    1   12 1     
    5    2    3 1     
    6    2   13 1     
    7    2   14 1     
    8    3    4 1     
    9    3    6 1     
   10    4    5 1     
   11    4   15 1     
   12    4   16 1     
   13    5   17 1     
   14    5   18 1     
   15    5   19 1     
   16    6    7 2     
   17    6    8 2     
   18    6    9 1     
@<TRIPOS>SUBSTRUCTURE
      1 ****           1
@<TRIPOS>COMMENT
> <Gold.Version>
2022.2.0

> <Gold.Id.Protein>
1qkm|1qkm_protein|mol2

> <Gold.Protein.RotatedTorsions>
[  496  491  490  487 ] final  -34.11 input  -89.99 | X-H torsion

> <Gold.Protein.ActiveResidues>
 MET295  LEU298  THR299  LEU301  ALA302  GLU305  TRP335  MET336  LEU339  MET340 
 GLY342  LEU343  ARG346  PHE356  ILE373  ILE376  PHE377  LEU380  LYS471  GLY472 
 MET473  HIS475  LEU476  LEU477  ASN478  MET479  VAL484  VAL487 

> <Gold.Protein.RotatedAtoms>
   36.3331   34.6063   41.8534 H   0  0  0  0  0  0  0  0  0  0  0  0  # atno 496  bound_to 491 

> <Gold.Score>
     Score     S(PLP)   S(hbond)     S(cho)   S(metal)  DE(clash)   DE(tors)     intcor
     25.98     -26.03       0.00       0.00       0.00       0.00       1.01       1.98

> <Gold.PLP.Fitness>
25.9820

> <Gold.PLP.PLP>
-26.0301

> <Gold.PLP.part.hbond>
0.0000

> <Gold.PLP.part.metal>
0.0000

> <Gold.PLP.part.buried>
-1.0579

> <Gold.PLP.part.nonpolar>
-25.3529

> <Gold.PLP.part.repulsive>
0.0303

> <Gold.PLP.ligand.clash>
0.0000

> <Gold.PLP.ligand.torsion>
1.0138

> <Gold.PLP.Chemscore.Hbond>
0.0000

> <Gold.PLP.Chemscore.CHOScore>
0.0000

> <Gold.PLP.Chemscore.Metal>
0.0000

> <Gold.PLP.Chemscore.Internal.Correction>
1.9794

