#       Name:                EN300-23873_i001
#       Creating user name   aseyller
#       Creation time:       Fri Apr 21 17:31:00 2023


#       File generated by GOLD software.
#

@<TRIPOS>MOLECULE
EN300-23873_i001|Sulfonylchlorides|mol2|283|dock8
    19    18     1
SMALL
USER_CHARGES


@<TRIPOS>ATOM
      1 C1          26.3020  36.6582  39.8077 C.3            1 <1>                0.0000
      2 C2          26.7187  37.3773  38.5232 C.3            1 <1>                0.0000
      3 N3          28.1363  37.1205  38.2576 N.pl3          1 <1>                0.0000
      4 C4          28.7636  37.6565  37.0470 C.3            1 <1>                0.0000
      5 C5          28.5666  39.1729  36.9991 C.3            1 <1>                0.0000
      6 S6          29.0298  36.2242  39.3257 S.o2           1 <1>                0.0000
      7 O7          29.1187  36.9924  40.5179 O.2            1 <1>                0.0000
      8 O8          28.4977  34.9071  39.2876 O.2            1 <1>                0.0000
      9 Cl9         30.9046  36.1036  38.5835 Cl             1 <1>                0.0000
     10 H10         26.4616  35.5862  39.6921 H              1 <1>                0.0000
     11 H11         26.9004  37.0269  40.6410 H              1 <1>                0.0000
     12 H12         25.2473  36.8493  40.0053 H              1 <1>                0.0000
     13 H13         26.1204  37.0086  37.6900 H              1 <1>                0.0000
     14 H14         26.5591  38.4493  38.6388 H              1 <1>                0.0000
     15 H15         29.8295  37.4287  37.0587 H              1 <1>                0.0000
     16 H16         28.3048  37.2026  36.1686 H              1 <1>                0.0000
     17 H17         29.0334  39.5717  36.0984 H              1 <1>                0.0000
     18 H18         27.5007  39.4007  36.9873 H              1 <1>                0.0000
     19 H19         29.0255  39.6268  37.8775 H              1 <1>                0.0000
@<TRIPOS>BOND
    1    1    2 1     
    2    1   10 1     
    3    1   11 1     
    4    1   12 1     
    5    2    3 1     
    6    2   13 1     
    7    2   14 1     
    8    3    4 1     
    9    3    6 1     
   10    4    5 1     
   11    4   15 1     
   12    4   16 1     
   13    5   17 1     
   14    5   18 1     
   15    5   19 1     
   16    6    7 2     
   17    6    8 2     
   18    6    9 1     
@<TRIPOS>SUBSTRUCTURE
      1 ****           1
@<TRIPOS>COMMENT
> <Gold.Version>
2022.2.0

> <Gold.Id.Protein>
1qkm|1qkm_protein|mol2

> <Gold.Protein.RotatedTorsions>
[  496  491  490  487 ] final  169.12 input  -89.99 | X-H torsion

> <Gold.Protein.ActiveResidues>
 MET295  LEU298  THR299  LEU301  ALA302  GLU305  TRP335  MET336  LEU339  MET340 
 GLY342  LEU343  ARG346  PHE356  ILE373  ILE376  PHE377  LEU380  LYS471  GLY472 
 MET473  HIS475  LEU476  LEU477  ASN478  MET479  VAL484  VAL487 

> <Gold.Protein.RotatedAtoms>
   37.3143   33.3144   40.9689 H   0  0  0  0  0  0  0  0  0  0  0  0  # atno 496  bound_to 491 

> <Gold.Score>
     Score     S(PLP)   S(hbond)     S(cho)   S(metal)  DE(clash)   DE(tors)     intcor
     28.59     -29.18       0.00       0.00       0.00       0.00       1.29       1.98

> <Gold.PLP.Fitness>
28.5868

> <Gold.PLP.PLP>
-29.1790

> <Gold.PLP.part.hbond>
0.0000

> <Gold.PLP.part.metal>
0.0000

> <Gold.PLP.part.buried>
-2.6057

> <Gold.PLP.part.nonpolar>
-27.1634

> <Gold.PLP.part.repulsive>
0.1047

> <Gold.PLP.ligand.clash>
0.0000

> <Gold.PLP.ligand.torsion>
1.2858

> <Gold.PLP.Chemscore.Hbond>
0.0000

> <Gold.PLP.Chemscore.CHOScore>
0.0000

> <Gold.PLP.Chemscore.Metal>
0.0000

> <Gold.PLP.Chemscore.Internal.Correction>
1.9794

