#       Name:                EN300-23873_i001
#       Creating user name   aseyller
#       Creation time:       Fri Apr 21 17:30:56 2023


#       File generated by GOLD software.
#

@<TRIPOS>MOLECULE
EN300-23873_i001|Sulfonylchlorides|mol2|283|dock3
    19    18     1
SMALL
USER_CHARGES


@<TRIPOS>ATOM
      1 C1          30.5374  35.8280  39.0599 C.3            1 <1>                0.0000
      2 C2          29.6240  37.0335  38.8291 C.3            1 <1>                0.0000
      3 N3          28.4315  36.9110  39.6712 N.pl3          1 <1>                0.0000
      4 C4          28.5722  36.6953  41.1134 C.3            1 <1>                0.0000
      5 C5          28.1185  35.2767  41.4636 C.3            1 <1>                0.0000
      6 S6          26.9244  37.0162  38.9929 S.o2           1 <1>                0.0000
      7 O7          26.7151  35.7992  38.2898 O.2            1 <1>                0.0000
      8 O8          26.0554  37.4819  40.0163 O.2            1 <1>                0.0000
      9 Cl9         26.9969  38.4756  37.5983 Cl             1 <1>                0.0000
     10 H10         30.8348  35.7929  40.1080 H              1 <1>                0.0000
     11 H11         30.0036  34.9131  38.8029 H              1 <1>                0.0000
     12 H12         31.4246  35.9192  38.4334 H              1 <1>                0.0000
     13 H13         30.1578  37.9484  39.0862 H              1 <1>                0.0000
     14 H14         29.3266  37.0686  37.7811 H              1 <1>                0.0000
     15 H15         29.6160  36.8241  41.4000 H              1 <1>                0.0000
     16 H16         27.9564  37.4167  41.6505 H              1 <1>                0.0000
     17 H17         28.2233  35.1162  42.5367 H              1 <1>                0.0000
     18 H18         27.0747  35.1480  41.1772 H              1 <1>                0.0000
     19 H19         28.7344  34.5553  40.9266 H              1 <1>                0.0000
@<TRIPOS>BOND
    1    1    2 1     
    2    1   10 1     
    3    1   11 1     
    4    1   12 1     
    5    2    3 1     
    6    2   13 1     
    7    2   14 1     
    8    3    4 1     
    9    3    6 1     
   10    4    5 1     
   11    4   15 1     
   12    4   16 1     
   13    5   17 1     
   14    5   18 1     
   15    5   19 1     
   16    6    7 2     
   17    6    8 2     
   18    6    9 1     
@<TRIPOS>SUBSTRUCTURE
      1 ****           1
@<TRIPOS>COMMENT
> <Gold.Version>
2022.2.0

> <Gold.Id.Protein>
1qkm|1qkm_protein|mol2

> <Gold.Protein.RotatedTorsions>
[  496  491  490  487 ] final  166.72 input  -89.99 | X-H torsion

> <Gold.Protein.ActiveResidues>
 MET295  LEU298  THR299  LEU301  ALA302  GLU305  TRP335  MET336  LEU339  MET340 
 GLY342  LEU343  ARG346  PHE356  ILE373  ILE376  PHE377  LEU380  LYS471  GLY472 
 MET473  HIS475  LEU476  LEU477  ASN478  MET479  VAL484  VAL487 

> <Gold.Protein.RotatedAtoms>
   37.3109   33.2844   40.9942 H   0  0  0  0  0  0  0  0  0  0  0  0  # atno 496  bound_to 491 

> <Gold.Score>
     Score     S(PLP)   S(hbond)     S(cho)   S(metal)  DE(clash)   DE(tors)     intcor
     28.76     -29.33       0.00       0.00       0.00       0.00       1.28       1.98

> <Gold.PLP.Fitness>
28.7581

> <Gold.PLP.PLP>
-29.3338

> <Gold.PLP.part.hbond>
0.0000

> <Gold.PLP.part.metal>
0.0000

> <Gold.PLP.part.buried>
-1.1457

> <Gold.PLP.part.nonpolar>
-28.3167

> <Gold.PLP.part.repulsive>
0.1307

> <Gold.PLP.ligand.clash>
0.0000

> <Gold.PLP.ligand.torsion>
1.2802

> <Gold.PLP.Chemscore.Hbond>
0.0000

> <Gold.PLP.Chemscore.CHOScore>
0.0000

> <Gold.PLP.Chemscore.Metal>
0.0000

> <Gold.PLP.Chemscore.Internal.Correction>
1.9847

