#       Name:                EN300-23873_i001
#       Creating user name   aseyller
#       Creation time:       Fri Apr 21 17:31:01 2023


#       File generated by GOLD software.
#

@<TRIPOS>MOLECULE
EN300-23873_i001|Sulfonylchlorides|mol2|283|dock10
    19    18     1
SMALL
USER_CHARGES


@<TRIPOS>ATOM
      1 C1          29.7191  39.3336  37.2968 C.3            1 <1>                0.0000
      2 C2          29.0405  37.9640  37.2311 C.3            1 <1>                0.0000
      3 N3          29.6370  37.0749  38.2311 N.pl3          1 <1>                0.0000
      4 C4          31.0753  36.7986  38.2007 C.3            1 <1>                0.0000
      5 C5          31.3041  35.2858  38.1990 C.3            1 <1>                0.0000
      6 S6          28.6852  36.3822  39.3960 S.o2           1 <1>                0.0000
      7 O7          28.7019  34.9831  39.1480 O.2            1 <1>                0.0000
      8 O8          29.0829  36.9571  40.6332 O.2            1 <1>                0.0000
      9 Cl9         26.7902  36.9979  39.0639 Cl             1 <1>                0.0000
     10 H10         29.5814  39.7601  38.2904 H              1 <1>                0.0000
     11 H11         30.7843  39.2214  37.0940 H              1 <1>                0.0000
     12 H12         29.2754  39.9950  36.5527 H              1 <1>                0.0000
     13 H13         27.9754  38.0761  37.4339 H              1 <1>                0.0000
     14 H14         29.1782  37.5375  36.2376 H              1 <1>                0.0000
     15 H15         31.5098  37.2328  37.3001 H              1 <1>                0.0000
     16 H16         31.5482  37.2365  39.0797 H              1 <1>                0.0000
     17 H17         32.3743  35.0801  38.1763 H              1 <1>                0.0000
     18 H18         30.8697  34.8517  39.0995 H              1 <1>                0.0000
     19 H19         30.8313  34.8478  37.3199 H              1 <1>                0.0000
@<TRIPOS>BOND
    1    1    2 1     
    2    1   10 1     
    3    1   11 1     
    4    1   12 1     
    5    2    3 1     
    6    2   13 1     
    7    2   14 1     
    8    3    4 1     
    9    3    6 1     
   10    4    5 1     
   11    4   15 1     
   12    4   16 1     
   13    5   17 1     
   14    5   18 1     
   15    5   19 1     
   16    6    7 2     
   17    6    8 2     
   18    6    9 1     
@<TRIPOS>SUBSTRUCTURE
      1 ****           1
@<TRIPOS>COMMENT
> <Gold.Version>
2022.2.0

> <Gold.Id.Protein>
1qkm|1qkm_protein|mol2

> <Gold.Protein.RotatedTorsions>
[  496  491  490  487 ] final   35.77 input  -89.99 | X-H torsion

> <Gold.Protein.ActiveResidues>
 MET295  LEU298  THR299  LEU301  ALA302  GLU305  TRP335  MET336  LEU339  MET340 
 GLY342  LEU343  ARG346  PHE356  ILE373  ILE376  PHE377  LEU380  LYS471  GLY472 
 MET473  HIS475  LEU476  LEU477  ASN478  MET479  VAL484  VAL487 

> <Gold.Protein.RotatedAtoms>
   36.3779   33.6660   42.3831 H   0  0  0  0  0  0  0  0  0  0  0  0  # atno 496  bound_to 491 

> <Gold.Score>
     Score     S(PLP)   S(hbond)     S(cho)   S(metal)  DE(clash)   DE(tors)     intcor
     27.64     -28.29       0.00       0.00       0.00       0.00       1.32       1.98

> <Gold.PLP.Fitness>
27.6364

> <Gold.PLP.PLP>
-28.2881

> <Gold.PLP.part.hbond>
0.0000

> <Gold.PLP.part.metal>
0.0000

> <Gold.PLP.part.buried>
-2.5660

> <Gold.PLP.part.nonpolar>
-25.8586

> <Gold.PLP.part.repulsive>
0.1103

> <Gold.PLP.ligand.clash>
0.0000

> <Gold.PLP.ligand.torsion>
1.3156

> <Gold.PLP.Chemscore.Hbond>
0.0000

> <Gold.PLP.Chemscore.CHOScore>
0.0000

> <Gold.PLP.Chemscore.Metal>
0.0000

> <Gold.PLP.Chemscore.Internal.Correction>
1.9794

