#       Name:                EN300-23873_i001
#       Creating user name   aseyller
#       Creation time:       Fri Apr 21 17:31:05 2023


#       File generated by GOLD software.
#

@<TRIPOS>MOLECULE
EN300-23873_i001|Sulfonylchlorides|mol2|283|dock15
    19    18     1
SMALL
USER_CHARGES


@<TRIPOS>ATOM
      1 C1          25.8366  37.1834  39.7790 C.3            1 <1>                0.0000
      2 C2          26.6123  36.8639  38.4997 C.3            1 <1>                0.0000
      3 N3          28.0494  36.9881  38.7559 N.pl3          1 <1>                0.0000
      4 C4          28.8590  37.9108  37.9563 C.3            1 <1>                0.0000
      5 C5          29.5168  37.1463  36.8058 C.3            1 <1>                0.0000
      6 S6          28.7586  36.0854  39.9494 S.o2           1 <1>                0.0000
      7 O7          29.4541  37.0005  40.7850 O.2            1 <1>                0.0000
      8 O8          27.7574  35.1995  40.4312 O.2            1 <1>                0.0000
      9 Cl9         30.1655  34.9324  39.0710 Cl             1 <1>                0.0000
     10 H10         26.1273  36.4854  40.5642 H              1 <1>                0.0000
     11 H11         26.0624  38.2016  40.0962 H              1 <1>                0.0000
     12 H12         24.7674  37.0910  39.5884 H              1 <1>                0.0000
     13 H13         26.3865  35.8457  38.1826 H              1 <1>                0.0000
     14 H14         26.3216  37.5618  37.7146 H              1 <1>                0.0000
     15 H15         28.2213  38.6972  37.5524 H              1 <1>                0.0000
     16 H16         29.6303  38.3556  38.5849 H              1 <1>                0.0000
     17 H17         30.1191  37.8328  36.2108 H              1 <1>                0.0000
     18 H18         30.1545  36.3600  37.2097 H              1 <1>                0.0000
     19 H19         28.7453  36.7015  36.1771 H              1 <1>                0.0000
@<TRIPOS>BOND
    1    1    2 1     
    2    1   10 1     
    3    1   11 1     
    4    1   12 1     
    5    2    3 1     
    6    2   13 1     
    7    2   14 1     
    8    3    4 1     
    9    3    6 1     
   10    4    5 1     
   11    4   15 1     
   12    4   16 1     
   13    5   17 1     
   14    5   18 1     
   15    5   19 1     
   16    6    7 2     
   17    6    8 2     
   18    6    9 1     
@<TRIPOS>SUBSTRUCTURE
      1 ****           1
@<TRIPOS>COMMENT
> <Gold.Version>
2022.2.0

> <Gold.Id.Protein>
1qkm|1qkm_protein|mol2

> <Gold.Protein.RotatedTorsions>
[  496  491  490  487 ] final -119.85 input  -89.99 | X-H torsion

> <Gold.Protein.ActiveResidues>
 MET295  LEU298  THR299  LEU301  ALA302  GLU305  TRP335  MET336  LEU339  MET340 
 GLY342  LEU343  ARG346  PHE356  ILE373  ILE376  PHE377  LEU380  LYS471  GLY472 
 MET473  HIS475  LEU476  LEU477  ASN478  MET479  VAL484  VAL487 

> <Gold.Protein.RotatedAtoms>
   37.0248   34.3579   40.8013 H   0  0  0  0  0  0  0  0  0  0  0  0  # atno 496  bound_to 491 

> <Gold.Score>
     Score     S(PLP)   S(hbond)     S(cho)   S(metal)  DE(clash)   DE(tors)     intcor
     26.69     -27.52       0.00       0.00       0.00       0.00       1.40       1.98

> <Gold.PLP.Fitness>
26.6910

> <Gold.PLP.PLP>
-27.5187

> <Gold.PLP.part.hbond>
0.0000

> <Gold.PLP.part.metal>
0.0000

> <Gold.PLP.part.buried>
-2.8102

> <Gold.PLP.part.nonpolar>
-25.4069

> <Gold.PLP.part.repulsive>
0.1850

> <Gold.PLP.ligand.clash>
0.0000

> <Gold.PLP.ligand.torsion>
1.4035

> <Gold.PLP.Chemscore.Hbond>
0.0000

> <Gold.PLP.Chemscore.CHOScore>
0.0000

> <Gold.PLP.Chemscore.Metal>
0.0000

> <Gold.PLP.Chemscore.Internal.Correction>
1.9794

