#       Name:                EN300-23873_i001
#       Creating user name   aseyller
#       Creation time:       Fri Apr 21 17:31:08 2023


#       File generated by GOLD software.
#

@<TRIPOS>MOLECULE
EN300-23873_i001|Sulfonylchlorides|mol2|283|dock19
    19    18     1
SMALL
USER_CHARGES


@<TRIPOS>ATOM
      1 C1          28.7599  36.6341  41.2100 C.3            1 <1>                0.0000
      2 C2          29.4147  36.3431  39.8582 C.3            1 <1>                0.0000
      3 N3          28.5036  36.7347  38.7798 N.pl3          1 <1>                0.0000
      4 C4          27.1999  36.0794  38.6482 C.3            1 <1>                0.0000
      5 C5          26.0950  37.0554  39.0575 C.3            1 <1>                0.0000
      6 S6          28.9474  37.9179  37.7096 S.o2           1 <1>                0.0000
      7 O7          27.7469  38.5559  37.2962 O.2            1 <1>                0.0000
      8 O8          30.0314  38.6146  38.3086 O.2            1 <1>                0.0000
      9 Cl9         29.6955  36.9960  36.0753 Cl             1 <1>                0.0000
     10 H10         28.5428  37.6996  41.2867 H              1 <1>                0.0000
     11 H11         27.8326  36.0674  41.2941 H              1 <1>                0.0000
     12 H12         29.4378  36.3428  42.0122 H              1 <1>                0.0000
     13 H13         30.3419  36.9099  39.7741 H              1 <1>                0.0000
     14 H14         29.6318  35.2778  39.7815 H              1 <1>                0.0000
     15 H15         27.0497  35.7739  37.6127 H              1 <1>                0.0000
     16 H16         27.1673  35.2021  39.2942 H              1 <1>                0.0000
     17 H17         25.1249  36.5679  38.9595 H              1 <1>                0.0000
     18 H18         26.2452  37.3608  40.0929 H              1 <1>                0.0000
     19 H19         26.1275  37.9328  38.4114 H              1 <1>                0.0000
@<TRIPOS>BOND
    1    1    2 1     
    2    1   10 1     
    3    1   11 1     
    4    1   12 1     
    5    2    3 1     
    6    2   13 1     
    7    2   14 1     
    8    3    4 1     
    9    3    6 1     
   10    4    5 1     
   11    4   15 1     
   12    4   16 1     
   13    5   17 1     
   14    5   18 1     
   15    5   19 1     
   16    6    7 2     
   17    6    8 2     
   18    6    9 1     
@<TRIPOS>SUBSTRUCTURE
      1 ****           1
@<TRIPOS>COMMENT
> <Gold.Version>
2022.2.0

> <Gold.Id.Protein>
1qkm|1qkm_protein|mol2

> <Gold.Protein.RotatedTorsions>
[  496  491  490  487 ] final   71.61 input  -89.99 | X-H torsion

> <Gold.Protein.ActiveResidues>
 MET295  LEU298  THR299  LEU301  ALA302  GLU305  TRP335  MET336  LEU339  MET340 
 GLY342  LEU343  ARG346  PHE356  ILE373  ILE376  PHE377  LEU380  LYS471  GLY472 
 MET473  HIS475  LEU476  LEU477  ASN478  MET479  VAL484  VAL487 

> <Gold.Protein.RotatedAtoms>
   36.6517   33.1822   42.2160 H   0  0  0  0  0  0  0  0  0  0  0  0  # atno 496  bound_to 491 

> <Gold.Score>
     Score     S(PLP)   S(hbond)     S(cho)   S(metal)  DE(clash)   DE(tors)     intcor
     27.73     -28.00       0.00       0.00       0.00       0.00       1.12       1.98

> <Gold.PLP.Fitness>
27.7308

> <Gold.PLP.PLP>
-27.9969

> <Gold.PLP.part.hbond>
0.0000

> <Gold.PLP.part.metal>
0.0000

> <Gold.PLP.part.buried>
0.7491

> <Gold.PLP.part.nonpolar>
-27.9804

> <Gold.PLP.part.repulsive>
0.0000

> <Gold.PLP.ligand.clash>
0.0000

> <Gold.PLP.ligand.torsion>
1.1228

> <Gold.PLP.Chemscore.Hbond>
0.0000

> <Gold.PLP.Chemscore.CHOScore>
0.0000

> <Gold.PLP.Chemscore.Metal>
0.0000

> <Gold.PLP.Chemscore.Internal.Correction>
1.9794

