#       Name:                EN300-23873_i001
#       Creating user name   aseyller
#       Creation time:       Fri Apr 21 17:31:01 2023


#       File generated by GOLD software.
#

@<TRIPOS>MOLECULE
EN300-23873_i001|Sulfonylchlorides|mol2|283|dock9
    19    18     1
SMALL
USER_CHARGES


@<TRIPOS>ATOM
      1 C1          31.8015  33.4194  38.1966 C.3            1 <1>                0.0000
      2 C2          30.7706  34.3153  38.8861 C.3            1 <1>                0.0000
      3 N3          30.9775  35.7055  38.4728 N.pl3          1 <1>                0.0000
      4 C4          32.2601  36.1148  37.8952 C.3            1 <1>                0.0000
      5 C5          32.0588  36.5011  36.4285 C.3            1 <1>                0.0000
      6 S6          29.7616  36.8142  38.6587 S.o2           1 <1>                0.0000
      7 O7          30.2922  38.0651  38.2426 O.2            1 <1>                0.0000
      8 O8          28.5982  36.2339  38.0850 O.2            1 <1>                0.0000
      9 Cl9         29.3996  36.9784  40.6392 Cl             1 <1>                0.0000
     10 H10         31.6861  33.4980  37.1156 H              1 <1>                0.0000
     11 H11         32.8054  33.7368  38.4789 H              1 <1>                0.0000
     12 H12         31.6475  32.3851  38.5041 H              1 <1>                0.0000
     13 H13         29.7667  33.9979  38.6037 H              1 <1>                0.0000
     14 H14         30.8860  34.2366  39.9670 H              1 <1>                0.0000
     15 H15         32.6501  36.9706  38.4461 H              1 <1>                0.0000
     16 H16         32.9678  35.2883  37.9594 H              1 <1>                0.0000
     17 H17         33.0131  36.8057  35.9987 H              1 <1>                0.0000
     18 H18         31.6689  35.6452  35.8776 H              1 <1>                0.0000
     19 H19         31.3511  37.3277  36.3643 H              1 <1>                0.0000
@<TRIPOS>BOND
    1    1    2 1     
    2    1   10 1     
    3    1   11 1     
    4    1   12 1     
    5    2    3 1     
    6    2   13 1     
    7    2   14 1     
    8    3    4 1     
    9    3    6 1     
   10    4    5 1     
   11    4   15 1     
   12    4   16 1     
   13    5   17 1     
   14    5   18 1     
   15    5   19 1     
   16    6    7 2     
   17    6    8 2     
   18    6    9 1     
@<TRIPOS>SUBSTRUCTURE
      1 ****           1
@<TRIPOS>COMMENT
> <Gold.Version>
2022.2.0

> <Gold.Id.Protein>
1qkm|1qkm_protein|mol2

> <Gold.Protein.RotatedTorsions>
[  496  491  490  487 ] final   56.59 input  -89.99 | X-H torsion

> <Gold.Protein.ActiveResidues>
 MET295  LEU298  THR299  LEU301  ALA302  GLU305  TRP335  MET336  LEU339  MET340 
 GLY342  LEU343  ARG346  PHE356  ILE373  ILE376  PHE377  LEU380  LYS471  GLY472 
 MET473  HIS475  LEU476  LEU477  ASN478  MET479  VAL484  VAL487 

> <Gold.Protein.RotatedAtoms>
   36.5237   33.3638   42.3229 H   0  0  0  0  0  0  0  0  0  0  0  0  # atno 496  bound_to 491 

> <Gold.Score>
     Score     S(PLP)   S(hbond)     S(cho)   S(metal)  DE(clash)   DE(tors)     intcor
     28.34     -29.07       0.00       0.00       0.00       0.00       1.35       1.98

> <Gold.PLP.Fitness>
28.3382

> <Gold.PLP.PLP>
-29.0686

> <Gold.PLP.part.hbond>
0.0000

> <Gold.PLP.part.metal>
0.0000

> <Gold.PLP.part.buried>
-1.1143

> <Gold.PLP.part.nonpolar>
-27.9905

> <Gold.PLP.part.repulsive>
0.0000

> <Gold.PLP.ligand.clash>
0.0000

> <Gold.PLP.ligand.torsion>
1.3549

> <Gold.PLP.Chemscore.Hbond>
0.0000

> <Gold.PLP.Chemscore.CHOScore>
0.0000

> <Gold.PLP.Chemscore.Metal>
0.0000

> <Gold.PLP.Chemscore.Internal.Correction>
1.9794

