#       Name:                EN300-23873_i001
#       Creating user name   aseyller
#       Creation time:       Fri Apr 21 17:30:56 2023


#       File generated by GOLD software.
#

@<TRIPOS>MOLECULE
EN300-23873_i001|Sulfonylchlorides|mol2|283|dock2
    19    18     1
SMALL
USER_CHARGES


@<TRIPOS>ATOM
      1 C1          28.2741  39.0923  37.0112 C.3            1 <1>                0.0000
      2 C2          27.6793  37.8057  37.5869 C.3            1 <1>                0.0000
      3 N3          28.6251  37.2121  38.5352 N.pl3          1 <1>                0.0000
      4 C4          30.0392  37.5926  38.4947 C.3            1 <1>                0.0000
      5 C5          30.8861  36.3707  38.1336 C.3            1 <1>                0.0000
      6 S6          28.0957  36.1106  39.6528 S.o2           1 <1>                0.0000
      7 O7          26.6797  36.2244  39.6886 O.2            1 <1>                0.0000
      8 O8          28.7707  34.8932  39.3672 O.2            1 <1>                0.0000
      9 Cl9         28.7631  36.7229  41.4583 Cl             1 <1>                0.0000
     10 H10         28.4681  39.7968  37.8201 H              1 <1>                0.0000
     11 H11         29.2078  38.8629  36.4975 H              1 <1>                0.0000
     12 H12         27.5704  39.5340  36.3056 H              1 <1>                0.0000
     13 H13         26.7456  38.0352  38.1006 H              1 <1>                0.0000
     14 H14         27.4853  37.1014  36.7781 H              1 <1>                0.0000
     15 H15         30.1849  38.3702  37.7448 H              1 <1>                0.0000
     16 H16         30.3423  37.9689  39.4717 H              1 <1>                0.0000
     17 H17         31.9383  36.6539  38.1034 H              1 <1>                0.0000
     18 H18         30.7404  35.5932  38.8835 H              1 <1>                0.0000
     19 H19         30.5830  35.9944  37.1564 H              1 <1>                0.0000
@<TRIPOS>BOND
    1    1    2 1     
    2    1   10 1     
    3    1   11 1     
    4    1   12 1     
    5    2    3 1     
    6    2   13 1     
    7    2   14 1     
    8    3    4 1     
    9    3    6 1     
   10    4    5 1     
   11    4   15 1     
   12    4   16 1     
   13    5   17 1     
   14    5   18 1     
   15    5   19 1     
   16    6    7 2     
   17    6    8 2     
   18    6    9 1     
@<TRIPOS>SUBSTRUCTURE
      1 ****           1
@<TRIPOS>COMMENT
> <Gold.Version>
2022.2.0

> <Gold.Id.Protein>
1qkm|1qkm_protein|mol2

> <Gold.Protein.RotatedTorsions>
[  496  491  490  487 ] final -132.17 input  -89.99 | X-H torsion

> <Gold.Protein.ActiveResidues>
 MET295  LEU298  THR299  LEU301  ALA302  GLU305  TRP335  MET336  LEU339  MET340 
 GLY342  LEU343  ARG346  PHE356  ILE373  ILE376  PHE377  LEU380  LYS471  GLY472 
 MET473  HIS475  LEU476  LEU477  ASN478  MET479  VAL484  VAL487 

> <Gold.Protein.RotatedAtoms>
   37.1206   34.1898   40.7421 H   0  0  0  0  0  0  0  0  0  0  0  0  # atno 496  bound_to 491 

> <Gold.Score>
     Score     S(PLP)   S(hbond)     S(cho)   S(metal)  DE(clash)   DE(tors)     intcor
     27.71     -28.47       0.00       0.00       0.00       0.00       1.38       1.99

> <Gold.PLP.Fitness>
27.7059

> <Gold.PLP.PLP>
-28.4736

> <Gold.PLP.part.hbond>
0.0000

> <Gold.PLP.part.metal>
0.0000

> <Gold.PLP.part.buried>
-2.4672

> <Gold.PLP.part.nonpolar>
-26.2383

> <Gold.PLP.part.repulsive>
0.1166

> <Gold.PLP.ligand.clash>
0.0000

> <Gold.PLP.ligand.torsion>
1.3781

> <Gold.PLP.Chemscore.Hbond>
0.0000

> <Gold.PLP.Chemscore.CHOScore>
0.0000

> <Gold.PLP.Chemscore.Metal>
0.0000

> <Gold.PLP.Chemscore.Internal.Correction>
1.9885

