#       Name:                EN300-23873_i001
#       Creating user name   aseyller
#       Creation time:       Fri Apr 21 17:30:57 2023


#       File generated by GOLD software.
#

@<TRIPOS>MOLECULE
EN300-23873_i001|Sulfonylchlorides|mol2|283|dock4
    19    18     1
SMALL
USER_CHARGES


@<TRIPOS>ATOM
      1 C1          25.8911  36.7001  39.6183 C.3            1 <1>                0.0000
      2 C2          26.9379  36.7951  38.5066 C.3            1 <1>                0.0000
      3 N3          28.2595  36.4749  39.0515 N.pl3          1 <1>                0.0000
      4 C4          28.3730  35.7355  40.3111 C.3            1 <1>                0.0000
      5 C5          28.7636  36.6983  41.4342 C.3            1 <1>                0.0000
      6 S6          29.6253  36.9488  38.2436 S.o2           1 <1>                0.0000
      7 O7          29.3609  36.7555  36.8609 O.2            1 <1>                0.0000
      8 O8          30.0026  38.2030  38.7949 O.2            1 <1>                0.0000
      9 Cl9         31.0907  35.6471  38.7317 Cl             1 <1>                0.0000
     10 H10         25.8817  35.6881  40.0231 H              1 <1>                0.0000
     11 H11         26.1380  37.4063  40.4112 H              1 <1>                0.0000
     12 H12         24.9078  36.9384  39.2128 H              1 <1>                0.0000
     13 H13         26.6910  36.0889  37.7138 H              1 <1>                0.0000
     14 H14         26.9472  37.8070  38.1018 H              1 <1>                0.0000
     15 H15         27.4156  35.2710  40.5473 H              1 <1>                0.0000
     16 H16         29.1365  34.9640  40.2121 H              1 <1>                0.0000
     17 H17         28.8479  36.1482  42.3715 H              1 <1>                0.0000
     18 H18         29.7209  37.1628  41.1981 H              1 <1>                0.0000
     19 H19         27.9999  37.4699  41.5333 H              1 <1>                0.0000
@<TRIPOS>BOND
    1    1    2 1     
    2    1   10 1     
    3    1   11 1     
    4    1   12 1     
    5    2    3 1     
    6    2   13 1     
    7    2   14 1     
    8    3    4 1     
    9    3    6 1     
   10    4    5 1     
   11    4   15 1     
   12    4   16 1     
   13    5   17 1     
   14    5   18 1     
   15    5   19 1     
   16    6    7 2     
   17    6    8 2     
   18    6    9 1     
@<TRIPOS>SUBSTRUCTURE
      1 ****           1
@<TRIPOS>COMMENT
> <Gold.Version>
2022.2.0

> <Gold.Id.Protein>
1qkm|1qkm_protein|mol2

> <Gold.Protein.RotatedTorsions>
[  496  491  490  487 ] final  -87.66 input  -89.99 | X-H torsion

> <Gold.Protein.ActiveResidues>
 MET295  LEU298  THR299  LEU301  ALA302  GLU305  TRP335  MET336  LEU339  MET340 
 GLY342  LEU343  ARG346  PHE356  ILE373  ILE376  PHE377  LEU380  LYS471  GLY472 
 MET473  HIS475  LEU476  LEU477  ASN478  MET479  VAL484  VAL487 

> <Gold.Protein.RotatedAtoms>
   36.7358   34.6680   41.1075 H   0  0  0  0  0  0  0  0  0  0  0  0  # atno 496  bound_to 491 

> <Gold.Score>
     Score     S(PLP)   S(hbond)     S(cho)   S(metal)  DE(clash)   DE(tors)     intcor
     28.00     -29.38       0.00       0.00       0.00       0.00       1.68       1.98

> <Gold.PLP.Fitness>
27.9989

> <Gold.PLP.PLP>
-29.3776

> <Gold.PLP.part.hbond>
0.0000

> <Gold.PLP.part.metal>
0.0000

> <Gold.PLP.part.buried>
0.9865

> <Gold.PLP.part.nonpolar>
-29.8220

> <Gold.PLP.part.repulsive>
0.0049

> <Gold.PLP.ligand.clash>
0.0000

> <Gold.PLP.ligand.torsion>
1.6807

> <Gold.PLP.Chemscore.Hbond>
0.0000

> <Gold.PLP.Chemscore.CHOScore>
0.0000

> <Gold.PLP.Chemscore.Metal>
0.0000

> <Gold.PLP.Chemscore.Internal.Correction>
1.9827

