#       Name:                EN300-23873_i001
#       Creating user name   aseyller
#       Creation time:       Fri Apr 21 17:31:02 2023


#       File generated by GOLD software.
#

@<TRIPOS>MOLECULE
EN300-23873_i001|Sulfonylchlorides|mol2|283|dock11
    19    18     1
SMALL
USER_CHARGES


@<TRIPOS>ATOM
      1 C1          29.1135  37.5758  36.7005 C.3            1 <1>                0.0000
      2 C2          28.0165  38.0564  37.6526 C.3            1 <1>                0.0000
      3 N3          27.6885  36.9874  38.5990 N.pl3          1 <1>                0.0000
      4 C4          26.2934  36.5858  38.7957 C.3            1 <1>                0.0000
      5 C5          25.8046  37.0891  40.1553 C.3            1 <1>                0.0000
      6 S6          28.8946  36.2330  39.4467 S.o2           1 <1>                0.0000
      7 O7          28.8001  34.8500  39.1342 O.2            1 <1>                0.0000
      8 O8          30.0729  36.9987  39.2354 O.2            1 <1>                0.0000
      9 Cl9         28.4456  36.4067  41.4084 Cl             1 <1>                0.0000
     10 H10         30.0025  37.3126  37.2738 H              1 <1>                0.0000
     11 H11         28.7620  36.7011  36.1531 H              1 <1>                0.0000
     12 H12         29.3575  38.3712  35.9964 H              1 <1>                0.0000
     13 H13         28.3681  38.9310  38.2000 H              1 <1>                0.0000
     14 H14         27.1276  38.3196  37.0794 H              1 <1>                0.0000
     15 H15         25.6768  37.0154  38.0061 H              1 <1>                0.0000
     16 H16         26.2201  35.4987  38.7630 H              1 <1>                0.0000
     17 H17         24.7665  36.7904  40.3016 H              1 <1>                0.0000
     18 H18         26.4211  36.6595  40.9449 H              1 <1>                0.0000
     19 H19         25.8778  38.1763  40.1880 H              1 <1>                0.0000
@<TRIPOS>BOND
    1    1    2 1     
    2    1   10 1     
    3    1   11 1     
    4    1   12 1     
    5    2    3 1     
    6    2   13 1     
    7    2   14 1     
    8    3    4 1     
    9    3    6 1     
   10    4    5 1     
   11    4   15 1     
   12    4   16 1     
   13    5   17 1     
   14    5   18 1     
   15    5   19 1     
   16    6    7 2     
   17    6    8 2     
   18    6    9 1     
@<TRIPOS>SUBSTRUCTURE
      1 ****           1
@<TRIPOS>COMMENT
> <Gold.Version>
2022.2.0

> <Gold.Id.Protein>
1qkm|1qkm_protein|mol2

> <Gold.Protein.RotatedTorsions>
[  496  491  490  487 ] final  123.85 input  -89.99 | X-H torsion

> <Gold.Protein.ActiveResidues>
 MET295  LEU298  THR299  LEU301  ALA302  GLU305  TRP335  MET336  LEU339  MET340 
 GLY342  LEU343  ARG346  PHE356  ILE373  ILE376  PHE377  LEU380  LYS471  GLY472 
 MET473  HIS475  LEU476  LEU477  ASN478  MET479  VAL484  VAL487 

> <Gold.Protein.RotatedAtoms>
   37.1096   32.9508   41.5629 H   0  0  0  0  0  0  0  0  0  0  0  0  # atno 496  bound_to 491 

> <Gold.Score>
     Score     S(PLP)   S(hbond)     S(cho)   S(metal)  DE(clash)   DE(tors)     intcor
     30.22     -30.84       0.00       0.00       0.00       0.00       1.30       1.98

> <Gold.PLP.Fitness>
30.2249

> <Gold.PLP.PLP>
-30.8407

> <Gold.PLP.part.hbond>
0.0000

> <Gold.PLP.part.metal>
0.0000

> <Gold.PLP.part.buried>
-2.2916

> <Gold.PLP.part.nonpolar>
-28.8296

> <Gold.PLP.part.repulsive>
0.1007

> <Gold.PLP.ligand.clash>
0.0000

> <Gold.PLP.ligand.torsion>
1.2976

> <Gold.PLP.Chemscore.Hbond>
0.0000

> <Gold.PLP.Chemscore.CHOScore>
0.0000

> <Gold.PLP.Chemscore.Metal>
0.0000

> <Gold.PLP.Chemscore.Internal.Correction>
1.9794

