#       Name:                EN300-23873_i001
#       Creating user name   aseyller
#       Creation time:       Fri Apr 21 17:30:55 2023


#       File generated by GOLD software.
#

@<TRIPOS>MOLECULE
EN300-23873_i001|Sulfonylchlorides|mol2|283|dock1
    19    18     1
SMALL
USER_CHARGES


@<TRIPOS>ATOM
      1 C1          31.7888  34.5547  38.0189 C.3            1 <1>                0.0000
      2 C2          32.0410  36.0533  38.1960 C.3            1 <1>                0.0000
      3 N3          30.8624  36.8025  37.7535 N.pl3          1 <1>                0.0000
      4 C4          29.5720  36.5961  38.4158 C.3            1 <1>                0.0000
      5 C5          29.7002  36.9405  39.9010 C.3            1 <1>                0.0000
      6 S6          30.9886  37.8826  36.5046 S.o2           1 <1>                0.0000
      7 O7          32.3624  38.2350  36.4164 O.2            1 <1>                0.0000
      8 O8          30.2571  37.3287  35.4196 O.2            1 <1>                0.0000
      9 Cl9         30.0047  39.5569  37.0603 Cl             1 <1>                0.0000
     10 H10         30.9253  34.2586  38.6146 H              1 <1>                0.0000
     11 H11         31.5957  34.3404  36.9677 H              1 <1>                0.0000
     12 H12         32.6657  33.9973  38.3481 H              1 <1>                0.0000
     13 H13         32.2340  36.2675  39.2472 H              1 <1>                0.0000
     14 H14         32.9044  36.3493  37.6004 H              1 <1>                0.0000
     15 H15         28.8211  37.2395  37.9571 H              1 <1>                0.0000
     16 H16         29.2715  35.5538  38.3092 H              1 <1>                0.0000
     17 H17         28.7401  36.7870  40.3938 H              1 <1>                0.0000
     18 H18         30.4510  36.2971  40.3597 H              1 <1>                0.0000
     19 H19         30.0007  37.9829  40.0076 H              1 <1>                0.0000
@<TRIPOS>BOND
    1    1    2 1     
    2    1   10 1     
    3    1   11 1     
    4    1   12 1     
    5    2    3 1     
    6    2   13 1     
    7    2   14 1     
    8    3    4 1     
    9    3    6 1     
   10    4    5 1     
   11    4   15 1     
   12    4   16 1     
   13    5   17 1     
   14    5   18 1     
   15    5   19 1     
   16    6    7 2     
   17    6    8 2     
   18    6    9 1     
@<TRIPOS>SUBSTRUCTURE
      1 ****           1
@<TRIPOS>COMMENT
> <Gold.Version>
2022.2.0

> <Gold.Id.Protein>
1qkm|1qkm_protein|mol2

> <Gold.Protein.RotatedTorsions>
[  496  491  490  487 ] final  123.98 input  -89.99 | X-H torsion

> <Gold.Protein.ActiveResidues>
 MET295  LEU298  THR299  LEU301  ALA302  GLU305  TRP335  MET336  LEU339  MET340 
 GLY342  LEU343  ARG346  PHE356  ILE373  ILE376  PHE377  LEU380  LYS471  GLY472 
 MET473  HIS475  LEU476  LEU477  ASN478  MET479  VAL484  VAL487 

> <Gold.Protein.RotatedAtoms>
   37.1106   32.9511   41.5610 H   0  0  0  0  0  0  0  0  0  0  0  0  # atno 496  bound_to 491 

> <Gold.Score>
     Score     S(PLP)   S(hbond)     S(cho)   S(metal)  DE(clash)   DE(tors)     intcor
     27.09     -27.35       0.00       0.00       0.00       0.00       1.13       1.99

> <Gold.PLP.Fitness>
27.0930

> <Gold.PLP.PLP>
-27.3525

> <Gold.PLP.part.hbond>
0.0000

> <Gold.PLP.part.metal>
0.0000

> <Gold.PLP.part.buried>
-2.0350

> <Gold.PLP.part.nonpolar>
-25.2811

> <Gold.PLP.part.repulsive>
0.0401

> <Gold.PLP.ligand.clash>
0.0000

> <Gold.PLP.ligand.torsion>
1.1261

> <Gold.PLP.Chemscore.Hbond>
0.0000

> <Gold.PLP.Chemscore.CHOScore>
0.0000

> <Gold.PLP.Chemscore.Metal>
0.0000

> <Gold.PLP.Chemscore.Internal.Correction>
1.9928

