#       Name:                EN300-23873_i001
#       Creating user name   aseyller
#       Creation time:       Fri Apr 21 17:30:58 2023


#       File generated by GOLD software.
#

@<TRIPOS>MOLECULE
EN300-23873_i001|Sulfonylchlorides|mol2|283|dock6
    19    18     1
SMALL
USER_CHARGES


@<TRIPOS>ATOM
      1 C1          28.4999  35.7962  41.9510 C.3            1 <1>                0.0000
      2 C2          29.0250  37.0014  41.1685 C.3            1 <1>                0.0000
      3 N3          28.7585  36.8104  39.7407 N.pl3          1 <1>                0.0000
      4 C4          29.8725  36.7103  38.7945 C.3            1 <1>                0.0000
      5 C5          29.7748  37.8425  37.7701 C.3            1 <1>                0.0000
      6 S6          27.1979  36.7077  39.1961 S.o2           1 <1>                0.0000
      7 O7          27.0049  37.8106  38.3211 O.2            1 <1>                0.0000
      8 O8          26.9991  35.3575  38.8003 O.2            1 <1>                0.0000
      9 Cl9         25.9888  37.0206  40.7837 Cl             1 <1>                0.0000
     10 H10         27.4259  35.6994  41.7917 H              1 <1>                0.0000
     11 H11         29.0013  34.8921  41.6056 H              1 <1>                0.0000
     12 H12         28.6982  35.9383  43.0133 H              1 <1>                0.0000
     13 H13         28.5235  37.9054  41.5139 H              1 <1>                0.0000
     14 H14         30.0989  37.0982  41.3279 H              1 <1>                0.0000
     15 H15         30.8161  36.7893  39.3345 H              1 <1>                0.0000
     16 H16         29.8274  35.7503  38.2804 H              1 <1>                0.0000
     17 H17         30.6037  37.7681  37.0661 H              1 <1>                0.0000
     18 H18         28.8313  37.7634  37.2300 H              1 <1>                0.0000
     19 H19         29.8200  38.8026  38.2842 H              1 <1>                0.0000
@<TRIPOS>BOND
    1    1    2 1     
    2    1   10 1     
    3    1   11 1     
    4    1   12 1     
    5    2    3 1     
    6    2   13 1     
    7    2   14 1     
    8    3    4 1     
    9    3    6 1     
   10    4    5 1     
   11    4   15 1     
   12    4   16 1     
   13    5   17 1     
   14    5   18 1     
   15    5   19 1     
   16    6    7 2     
   17    6    8 2     
   18    6    9 1     
@<TRIPOS>SUBSTRUCTURE
      1 ****           1
@<TRIPOS>COMMENT
> <Gold.Version>
2022.2.0

> <Gold.Id.Protein>
1qkm|1qkm_protein|mol2

> <Gold.Protein.RotatedTorsions>
[  496  491  490  487 ] final  -25.15 input  -89.99 | X-H torsion

> <Gold.Protein.ActiveResidues>
 MET295  LEU298  THR299  LEU301  ALA302  GLU305  TRP335  MET336  LEU339  MET340 
 GLY342  LEU343  ARG346  PHE356  ILE373  ILE376  PHE377  LEU380  LYS471  GLY472 
 MET473  HIS475  LEU476  LEU477  ASN478  MET479  VAL484  VAL487 

> <Gold.Protein.RotatedAtoms>
   36.2965   34.5246   41.9704 H   0  0  0  0  0  0  0  0  0  0  0  0  # atno 496  bound_to 491 

> <Gold.Score>
     Score     S(PLP)   S(hbond)     S(cho)   S(metal)  DE(clash)   DE(tors)     intcor
     30.48     -31.04       0.00       0.00       0.00       0.00       1.27       1.98

> <Gold.PLP.Fitness>
30.4845

> <Gold.PLP.PLP>
-31.0396

> <Gold.PLP.part.hbond>
0.0000

> <Gold.PLP.part.metal>
0.0000

> <Gold.PLP.part.buried>
-1.2559

> <Gold.PLP.part.nonpolar>
-29.4648

> <Gold.PLP.part.repulsive>
0.0363

> <Gold.PLP.ligand.clash>
0.0000

> <Gold.PLP.ligand.torsion>
1.2689

> <Gold.PLP.Chemscore.Hbond>
0.0000

> <Gold.PLP.Chemscore.CHOScore>
0.0000

> <Gold.PLP.Chemscore.Metal>
0.0000

> <Gold.PLP.Chemscore.Internal.Correction>
1.9827

