#       Name:                plp ligand
#       Creating user name   aseyller
#       Creation time:       Fri Apr 21 17:30:55 2023


#       File generated by GOLD software.
#

@<TRIPOS>MOLECULE
plp ligand
    19    18     1
SMALL
USER_CHARGES


@<TRIPOS>ATOM
      1 C1          -0.0448  -2.2885   0.1495 NONPOLAR       1 <1>                0.0000
      2 C2           0.2586  -1.0823  -0.7414 NONPOLAR       1 <1>                0.0000
      3 N3          -0.2790   0.1309  -0.1206 NONPOLAR       1 <1>                0.0000
      4 C4           0.5089   0.8512   0.8827 NONPOLAR       1 <1>                0.0000
      5 C5           1.4708   1.8126   0.1818 NONPOLAR       1 <1>                0.0000
      6 S6          -1.7774   0.6880  -0.5529 NONPOLAR       1 <1>                0.0000
      7 O7          -1.7416   2.0997  -0.3946 ACCEPTOR       1 <1>                0.0000
      8 O8          -2.1031   0.0516  -1.7810 ACCEPTOR       1 <1>                0.0000
      9 Cl9         -3.0912  -0.0064   0.8153 NONPOLAR       1 <1>                0.0000
     10 H10          0.4177  -2.1445   1.1260                1 <1>                0.0000
     11 H11         -1.1235  -2.3893   0.2697                1 <1>                0.0000
     12 H12          0.3552  -3.1911  -0.3124                1 <1>                0.0000
     13 H13          1.3373  -0.9815  -0.8615                1 <1>                0.0000
     14 H14         -0.2038  -1.2263  -1.7178                1 <1>                0.0000
     15 H15         -0.1595   1.4157   1.5329                1 <1>                0.0000
     16 H16          1.0782   0.1377   1.4784                1 <1>                0.0000
     17 H17          2.0570   2.3486   0.9283                1 <1>                0.0000
     18 H18          2.1392   1.2481  -0.4683                1 <1>                0.0000
     19 H19          0.9014   2.5262  -0.4139                1 <1>                0.0000
@<TRIPOS>BOND
    1    1    2 1     
    2    1   10 1     
    3    1   11 1     
    4    1   12 1     
    5    2    3 1     
    6    2   13 1     
    7    2   14 1     
    8    3    4 1     
    9    3    6 1     
   10    4    5 1     
   11    4   15 1     
   12    4   16 1     
   13    5   17 1     
   14    5   18 1     
   15    5   19 1     
   16    6    7 2     
   17    6    8 2     
   18    6    9 1     
@<TRIPOS>SUBSTRUCTURE
      1 ****           1
@<TRIPOS>SET
DONOR_HYDROGENS      STATIC     ATOMS    <user>   **** ""
0
ATOM$RED        STATIC     ATOMS    COLORGROUP SYSTEM
0
