#       Name:                EN300-736597_i001
#       Creating user name   aseyller
#       Creation time:       Fri Apr 21 16:30:34 2023


#       File generated by GOLD software.
#

@<TRIPOS>MOLECULE
EN300-736597_i001|Sulfonylchlorides|mol2|26|dock14
    21    21     1
SMALL
USER_CHARGES


@<TRIPOS>ATOM
      1 C1          30.6214  39.4265  35.7495 C.3            1 <1>                0.0000
      2 O2          30.8716  38.3673  36.7108 O.3            1 <1>                0.0000
      3 C3          31.5271  37.2765  36.2634 C.2            1 <1>                0.0000
      4 O4          32.0303  37.2810  35.1560 O.2            1 <1>                0.0000
      5 C5          31.6329  36.0874  37.1107 C.2            1 <1>                0.0000
      6 S6          32.5746  34.6500  36.7384 S.3            1 <1>                0.0000
      7 C7          32.1003  33.9042  38.1977 C.2            1 <1>                0.0000
      8 C8          31.2878  34.7021  38.9014 C.2            1 <1>                0.0000
      9 C9          31.0199  35.9188  38.3214 C.2            1 <1>                0.0000
     10 C10         30.1297  36.9588  38.9514 C.3            1 <1>                0.0000
     11 S11         28.5292  36.2131  39.3672 S.o2           1 <1>                0.0000
     12 O12         27.4629  37.0343  38.9112 O.2            1 <1>                0.0000
     13 O13         28.5449  34.8174  39.1002 O.2            1 <1>                0.0000
     14 Cl14        28.4248  36.3338  41.3809 Cl             1 <1>                0.0000
     15 H15         31.5703  39.7945  35.3594 H              1 <1>                0.0000
     16 H16         30.0177  39.0377  34.9295 H              1 <1>                0.0000
     17 H17         30.0885  40.2421  36.2380 H              1 <1>                0.0000
     18 H18         32.4136  32.9196  38.5119 H              1 <1>                0.0000
     19 H19         30.8768  34.4127  39.8572 H              1 <1>                0.0000
     20 H20         30.6002  37.3386  39.8584 H              1 <1>                0.0000
     21 H21         29.9770  37.7794  38.2505 H              1 <1>                0.0000
@<TRIPOS>BOND
    1    1    2 1     
    2    1   15 1     
    3    1   16 1     
    4    1   17 1     
    5    2    3 1     
    6    3    4 2     
    7    3    5 1     
    8    5    6 1     
    9    5    9 2     
   10    6    7 1     
   11    7    8 2     
   12    7   18 1     
   13    8    9 1     
   14    8   19 1     
   15    9   10 1     
   16   10   11 1     
   17   10   20 1     
   18   10   21 1     
   19   11   12 2     
   20   11   13 2     
   21   11   14 1     
@<TRIPOS>SUBSTRUCTURE
      1 ****           1
@<TRIPOS>COMMENT
> <Gold.Version>
2022.2.0

> <Gold.Id.Protein>
1qkm|1qkm_protein|mol2

> <Gold.Protein.RotatedTorsions>
[  496  491  490  487 ] final   -9.14 input  -89.99 | X-H torsion

> <Gold.Protein.ActiveResidues>
 MET295  LEU298  THR299  LEU301  ALA302  GLU305  TRP335  MET336  LEU339  MET340 
 GLY342  LEU343  ARG346  PHE356  ILE373  ILE376  PHE377  LEU380  LYS471  GLY472 
 MET473  HIS475  LEU476  LEU477  ASN478  MET479  VAL484  VAL487 

> <Gold.Protein.RotatedAtoms>
   36.2614   34.3384   42.1523 H   0  0  0  0  0  0  0  0  0  0  0  0  # atno 496  bound_to 491 

> <Gold.Score>
     Score     S(PLP)   S(hbond)     S(cho)   S(metal)  DE(clash)   DE(tors)     intcor
     39.44     -39.77       0.00       0.00       0.00       0.05       0.23       0.17

> <Gold.PLP.Fitness>
39.4368

> <Gold.PLP.PLP>
-39.7706

> <Gold.PLP.part.hbond>
0.0000

> <Gold.PLP.part.metal>
0.0000

> <Gold.PLP.part.buried>
-3.9230

> <Gold.PLP.part.nonpolar>
-37.1171

> <Gold.PLP.part.repulsive>
0.1229

> <Gold.PLP.ligand.clash>
0.0510

> <Gold.PLP.ligand.torsion>
0.2271

> <Gold.PLP.Chemscore.Hbond>
0.0000

> <Gold.PLP.Chemscore.CHOScore>
0.0000

> <Gold.PLP.Chemscore.Metal>
0.0000

> <Gold.PLP.Chemscore.Internal.Correction>
0.1714

