#       Name:                EN300-736597_i001
#       Creating user name   aseyller
#       Creation time:       Fri Apr 21 16:30:38 2023


#       File generated by GOLD software.
#

@<TRIPOS>MOLECULE
EN300-736597_i001|Sulfonylchlorides|mol2|26|dock19
    21    21     1
SMALL
USER_CHARGES


@<TRIPOS>ATOM
      1 C1          26.5325  36.2028  38.8315 C.3            1 <1>                0.0000
      2 O2          27.8236  36.7312  38.4285 O.3            1 <1>                0.0000
      3 C3          27.8244  37.9052  37.7642 C.2            1 <1>                0.0000
      4 O4          26.7828  38.5112  37.5989 O.2            1 <1>                0.0000
      5 C5          29.0790  38.4501  37.2424 C.2            1 <1>                0.0000
      6 S6          29.2723  40.0297  36.4946 S.3            1 <1>                0.0000
      7 C7          30.9383  39.7595  36.2450 C.2            1 <1>                0.0000
      8 C8          31.3018  38.5548  36.7017 C.2            1 <1>                0.0000
      9 C9          30.2896  37.8145  37.2636 C.2            1 <1>                0.0000
     10 C10         30.4913  36.4349  37.8354 C.3            1 <1>                0.0000
     11 S11         32.0781  35.7687  37.2621 S.o2           1 <1>                0.0000
     12 O12         32.0806  35.6344  35.8475 O.2            1 <1>                0.0000
     13 O13         33.1571  36.3974  37.9403 O.2            1 <1>                0.0000
     14 Cl14        32.1021  33.8671  37.9432 Cl             1 <1>                0.0000
     15 H15         26.0395  36.9143  39.4938 H              1 <1>                0.0000
     16 H16         25.9148  36.0400  37.9484 H              1 <1>                0.0000
     17 H17         26.6743  35.2573  39.3549 H              1 <1>                0.0000
     18 H18         31.6101  40.4661  35.7804 H              1 <1>                0.0000
     19 H19         32.3174  38.1931  36.6374 H              1 <1>                0.0000
     20 H20         30.4922  36.4894  38.9241 H              1 <1>                0.0000
     21 H21         29.6829  35.7828  37.5050 H              1 <1>                0.0000
@<TRIPOS>BOND
    1    1    2 1     
    2    1   15 1     
    3    1   16 1     
    4    1   17 1     
    5    2    3 1     
    6    3    4 2     
    7    3    5 1     
    8    5    6 1     
    9    5    9 2     
   10    6    7 1     
   11    7    8 2     
   12    7   18 1     
   13    8    9 1     
   14    8   19 1     
   15    9   10 1     
   16   10   11 1     
   17   10   20 1     
   18   10   21 1     
   19   11   12 2     
   20   11   13 2     
   21   11   14 1     
@<TRIPOS>SUBSTRUCTURE
      1 ****           1
@<TRIPOS>COMMENT
> <Gold.Version>
2022.2.0

> <Gold.Id.Protein>
1qkm|1qkm_protein|mol2

> <Gold.Protein.RotatedTorsions>
[  496  491  490  487 ] final  116.76 input  -89.99 | X-H torsion

> <Gold.Protein.ActiveResidues>
 MET295  LEU298  THR299  LEU301  ALA302  GLU305  TRP335  MET336  LEU339  MET340 
 GLY342  LEU343  ARG346  PHE356  ILE373  ILE376  PHE377  LEU380  LYS471  GLY472 
 MET473  HIS475  LEU476  LEU477  ASN478  MET479  VAL484  VAL487 

> <Gold.Protein.RotatedAtoms>
   37.0551   32.9400   41.6655 H   0  0  0  0  0  0  0  0  0  0  0  0  # atno 496  bound_to 491 

> <Gold.Score>
     Score     S(PLP)   S(hbond)     S(cho)   S(metal)  DE(clash)   DE(tors)     intcor
     38.54     -39.10       0.00       0.00       0.00       0.04       0.35       0.17

> <Gold.PLP.Fitness>
38.5367

> <Gold.PLP.PLP>
-39.0995

> <Gold.PLP.part.hbond>
0.0000

> <Gold.PLP.part.metal>
0.0000

> <Gold.PLP.part.buried>
-2.8025

> <Gold.PLP.part.nonpolar>
-36.5876

> <Gold.PLP.part.repulsive>
0.0984

> <Gold.PLP.ligand.clash>
0.0419

> <Gold.PLP.ligand.torsion>
0.3461

> <Gold.PLP.Chemscore.Hbond>
0.0000

> <Gold.PLP.Chemscore.CHOScore>
0.0000

> <Gold.PLP.Chemscore.Metal>
0.0000

> <Gold.PLP.Chemscore.Internal.Correction>
0.1714

