#       Name:                EN300-736597_i001
#       Creating user name   aseyller
#       Creation time:       Fri Apr 21 16:30:30 2023


#       File generated by GOLD software.
#

@<TRIPOS>MOLECULE
EN300-736597_i001|Sulfonylchlorides|mol2|26|dock8
    21    21     1
SMALL
USER_CHARGES


@<TRIPOS>ATOM
      1 C1          31.8614  38.5114  34.5115 C.3            1 <1>                0.0000
      2 O2          32.1605  37.4658  35.4737 O.3            1 <1>                0.0000
      3 C3          31.4355  37.4548  36.6113 C.2            1 <1>                0.0000
      4 O4          30.7824  38.4316  36.9257 O.2            1 <1>                0.0000
      5 C5          31.4347  36.2672  37.4673 C.2            1 <1>                0.0000
      6 S6          32.4873  34.8717  37.2767 S.3            1 <1>                0.0000
      7 C7          31.7868  34.1002  38.6277 C.2            1 <1>                0.0000
      8 C8          30.8276  34.8607  39.1695 C.2            1 <1>                0.0000
      9 C9          30.6193  36.0679  38.5468 C.2            1 <1>                0.0000
     10 C10         29.5870  37.0673  39.0013 C.3            1 <1>                0.0000
     11 S11         28.1288  36.1883  39.6269 S.o2           1 <1>                0.0000
     12 O12         26.9868  37.0335  39.5984 O.2            1 <1>                0.0000
     13 O13         28.0775  34.8694  39.1003 O.2            1 <1>                0.0000
     14 Cl14        28.5045  35.9249  41.5941 Cl             1 <1>                0.0000
     15 H15         30.8217  38.4275  34.1954 H              1 <1>                0.0000
     16 H16         32.0238  39.4860  34.9718 H              1 <1>                0.0000
     17 H17         32.5143  38.4055  33.6452 H              1 <1>                0.0000
     18 H18         32.0784  33.1280  38.9966 H              1 <1>                0.0000
     19 H19         30.2620  34.5502  40.0355 H              1 <1>                0.0000
     20 H20         30.0057  37.6870  39.7943 H              1 <1>                0.0000
     21 H21         29.2979  37.6987  38.1612 H              1 <1>                0.0000
@<TRIPOS>BOND
    1    1    2 1     
    2    1   15 1     
    3    1   16 1     
    4    1   17 1     
    5    2    3 1     
    6    3    4 2     
    7    3    5 1     
    8    5    6 1     
    9    5    9 2     
   10    6    7 1     
   11    7    8 2     
   12    7   18 1     
   13    8    9 1     
   14    8   19 1     
   15    9   10 1     
   16   10   11 1     
   17   10   20 1     
   18   10   21 1     
   19   11   12 2     
   20   11   13 2     
   21   11   14 1     
@<TRIPOS>SUBSTRUCTURE
      1 ****           1
@<TRIPOS>COMMENT
> <Gold.Version>
2022.2.0

> <Gold.Id.Protein>
1qkm|1qkm_protein|mol2

> <Gold.Protein.RotatedTorsions>
[  496  491  490  487 ] final  -98.04 input  -89.99 | X-H torsion

> <Gold.Protein.ActiveResidues>
 MET295  LEU298  THR299  LEU301  ALA302  GLU305  TRP335  MET336  LEU339  MET340 
 GLY342  LEU343  ARG346  PHE356  ILE373  ILE376  PHE377  LEU380  LYS471  GLY472 
 MET473  HIS475  LEU476  LEU477  ASN478  MET479  VAL484  VAL487 

> <Gold.Protein.RotatedAtoms>
   36.8317   34.5927   40.9881 H   0  0  0  0  0  0  0  0  0  0  0  0  # atno 496  bound_to 491 

> <Gold.Score>
     Score     S(PLP)   S(hbond)     S(cho)   S(metal)  DE(clash)   DE(tors)     intcor
     39.63     -41.58       0.00       0.00       0.00       0.00       1.07       0.18

> <Gold.PLP.Fitness>
39.6312

> <Gold.PLP.PLP>
-41.5811

> <Gold.PLP.part.hbond>
0.0000

> <Gold.PLP.part.metal>
0.0000

> <Gold.PLP.part.buried>
-2.7922

> <Gold.PLP.part.nonpolar>
-39.1829

> <Gold.PLP.part.repulsive>
0.0993

> <Gold.PLP.ligand.clash>
0.0000

> <Gold.PLP.ligand.torsion>
1.0655

> <Gold.PLP.Chemscore.Hbond>
0.0000

> <Gold.PLP.Chemscore.CHOScore>
0.0000

> <Gold.PLP.Chemscore.Metal>
0.0000

> <Gold.PLP.Chemscore.Internal.Correction>
0.1811

