#       Name:                EN300-736597_i001
#       Creating user name   aseyller
#       Creation time:       Fri Apr 21 16:30:33 2023


#       File generated by GOLD software.
#

@<TRIPOS>MOLECULE
EN300-736597_i001|Sulfonylchlorides|mol2|26|dock12
    21    21     1
SMALL
USER_CHARGES


@<TRIPOS>ATOM
      1 C1          26.5728  36.9544  39.9339 C.3            1 <1>                0.0000
      2 O2          27.7934  36.8084  39.1612 O.3            1 <1>                0.0000
      3 C3          28.7538  36.0142  39.6775 C.2            1 <1>                0.0000
      4 O4          28.5930  35.4938  40.7651 O.2            1 <1>                0.0000
      5 C5          29.9895  35.7784  38.9288 C.2            1 <1>                0.0000
      6 S6          31.0169  34.3592  39.0767 S.3            1 <1>                0.0000
      7 C7          32.1017  34.9649  37.9075 C.2            1 <1>                0.0000
      8 C8          31.6974  36.1565  37.4507 C.2            1 <1>                0.0000
      9 C9          30.5267  36.6239  37.9979 C.2            1 <1>                0.0000
     10 C10         29.9034  37.9425  37.6186 C.3            1 <1>                0.0000
     11 S11         30.7572  38.6200  36.1686 S.o2           1 <1>                0.0000
     12 O12         32.1581  38.6823  36.3987 O.2            1 <1>                0.0000
     13 O13         30.2355  38.0552  34.9736 O.2            1 <1>                0.0000
     14 Cl14        30.1772  40.5538  36.1000 Cl             1 <1>                0.0000
     15 H15         26.1064  35.9779  40.0643 H              1 <1>                0.0000
     16 H16         26.8092  37.3774  40.9102 H              1 <1>                0.0000
     17 H17         25.8864  37.6174  39.4073 H              1 <1>                0.0000
     18 H18         32.9956  34.4551  37.5797 H              1 <1>                0.0000
     19 H19         32.2484  36.7079  36.7033 H              1 <1>                0.0000
     20 H20         28.8500  37.7918  37.3824 H              1 <1>                0.0000
     21 H21         29.9929  38.6398  38.4515 H              1 <1>                0.0000
@<TRIPOS>BOND
    1    1    2 1     
    2    1   15 1     
    3    1   16 1     
    4    1   17 1     
    5    2    3 1     
    6    3    4 2     
    7    3    5 1     
    8    5    6 1     
    9    5    9 2     
   10    6    7 1     
   11    7    8 2     
   12    7   18 1     
   13    8    9 1     
   14    8   19 1     
   15    9   10 1     
   16   10   11 1     
   17   10   20 1     
   18   10   21 1     
   19   11   12 2     
   20   11   13 2     
   21   11   14 1     
@<TRIPOS>SUBSTRUCTURE
      1 ****           1
@<TRIPOS>COMMENT
> <Gold.Version>
2022.2.0

> <Gold.Id.Protein>
1qkm|1qkm_protein|mol2

> <Gold.Protein.RotatedTorsions>
[  496  491  490  487 ] final   58.56 input  -89.99 | X-H torsion

> <Gold.Protein.ActiveResidues>
 MET295  LEU298  THR299  LEU301  ALA302  GLU305  TRP335  MET336  LEU339  MET340 
 GLY342  LEU343  ARG346  PHE356  ILE373  ILE376  PHE377  LEU380  LYS471  GLY472 
 MET473  HIS475  LEU476  LEU477  ASN478  MET479  VAL484  VAL487 

> <Gold.Protein.RotatedAtoms>
   36.5396   33.3379   42.3118 H   0  0  0  0  0  0  0  0  0  0  0  0  # atno 496  bound_to 491 

> <Gold.Score>
     Score     S(PLP)   S(hbond)     S(cho)   S(metal)  DE(clash)   DE(tors)     intcor
     37.98     -39.13       0.00       0.00       0.00       0.00       0.66       0.18

> <Gold.PLP.Fitness>
37.9786

> <Gold.PLP.PLP>
-39.1287

> <Gold.PLP.part.hbond>
0.0000

> <Gold.PLP.part.metal>
0.0000

> <Gold.PLP.part.buried>
-2.7275

> <Gold.PLP.part.nonpolar>
-35.8224

> <Gold.PLP.part.repulsive>
0.1572

> <Gold.PLP.ligand.clash>
0.0000

> <Gold.PLP.ligand.torsion>
0.6636

> <Gold.PLP.Chemscore.Hbond>
0.0000

> <Gold.PLP.Chemscore.CHOScore>
0.0000

> <Gold.PLP.Chemscore.Metal>
0.0000

> <Gold.PLP.Chemscore.Internal.Correction>
0.1772

