#       Name:                EN300-736597_i001
#       Creating user name   aseyller
#       Creation time:       Fri Apr 21 16:30:28 2023


#       File generated by GOLD software.
#

@<TRIPOS>MOLECULE
EN300-736597_i001|Sulfonylchlorides|mol2|26|dock6
    21    21     1
SMALL
USER_CHARGES


@<TRIPOS>ATOM
      1 C1          30.4590  39.6945  36.0387 C.3            1 <1>                0.0000
      2 O2          30.4381  38.4876  36.8457 O.3            1 <1>                0.0000
      3 C3          31.3598  37.5446  36.5611 C.2            1 <1>                0.0000
      4 O4          32.1432  37.7163  35.6467 O.2            1 <1>                0.0000
      5 C5          31.4171  36.3146  37.3529 C.2            1 <1>                0.0000
      6 S6          32.4098  34.9105  36.9859 S.3            1 <1>                0.0000
      7 C7          31.8322  34.0841  38.3622 C.2            1 <1>                0.0000
      8 C8          30.9525  34.8340  39.0371 C.2            1 <1>                0.0000
      9 C9          30.7116  36.0756  38.4997 C.2            1 <1>                0.0000
     10 C10         29.7561  37.0702  39.1072 C.3            1 <1>                0.0000
     11 S11         28.2525  36.2115  39.6480 S.o2           1 <1>                0.0000
     12 O12         28.2034  34.9004  39.1023 O.2            1 <1>                0.0000
     13 O13         28.0186  36.4387  41.0311 O.2            1 <1>                0.0000
     14 Cl14        26.7503  37.1935  38.7209 Cl             1 <1>                0.0000
     15 H15         31.4251  40.1873  36.1470 H              1 <1>                0.0000
     16 H16         30.2988  39.4348  34.9923 H              1 <1>                0.0000
     17 H17         29.6686  40.3675  36.3710 H              1 <1>                0.0000
     18 H18         32.1358  33.0885  38.6505 H              1 <1>                0.0000
     19 H19         30.4708  34.4903  39.9405 H              1 <1>                0.0000
     20 H20         30.2282  37.5508  39.9642 H              1 <1>                0.0000
     21 H21         29.4965  37.8249  38.3649 H              1 <1>                0.0000
@<TRIPOS>BOND
    1    1    2 1     
    2    1   15 1     
    3    1   16 1     
    4    1   17 1     
    5    2    3 1     
    6    3    4 2     
    7    3    5 1     
    8    5    6 1     
    9    5    9 2     
   10    6    7 1     
   11    7    8 2     
   12    7   18 1     
   13    8    9 1     
   14    8   19 1     
   15    9   10 1     
   16   10   11 1     
   17   10   20 1     
   18   10   21 1     
   19   11   12 2     
   20   11   13 2     
   21   11   14 1     
@<TRIPOS>SUBSTRUCTURE
      1 ****           1
@<TRIPOS>COMMENT
> <Gold.Version>
2022.2.0

> <Gold.Id.Protein>
1qkm|1qkm_protein|mol2

> <Gold.Protein.RotatedTorsions>
[  496  491  490  487 ] final  167.43 input  -89.99 | X-H torsion

> <Gold.Protein.ActiveResidues>
 MET295  LEU298  THR299  LEU301  ALA302  GLU305  TRP335  MET336  LEU339  MET340 
 GLY342  LEU343  ARG346  PHE356  ILE373  ILE376  PHE377  LEU380  LYS471  GLY472 
 MET473  HIS475  LEU476  LEU477  ASN478  MET479  VAL484  VAL487 

> <Gold.Protein.RotatedAtoms>
   37.3120   33.2932   40.9866 H   0  0  0  0  0  0  0  0  0  0  0  0  # atno 496  bound_to 491 

> <Gold.Score>
     Score     S(PLP)   S(hbond)     S(cho)   S(metal)  DE(clash)   DE(tors)     intcor
     40.61     -41.15       0.00       0.00       0.00       0.00       0.36       0.18

> <Gold.PLP.Fitness>
40.6106

> <Gold.PLP.PLP>
-41.1539

> <Gold.PLP.part.hbond>
0.0000

> <Gold.PLP.part.metal>
0.0000

> <Gold.PLP.part.buried>
-3.5903

> <Gold.PLP.part.nonpolar>
-38.0462

> <Gold.PLP.part.repulsive>
0.1690

> <Gold.PLP.ligand.clash>
0.0000

> <Gold.PLP.ligand.torsion>
0.3637

> <Gold.PLP.Chemscore.Hbond>
0.0000

> <Gold.PLP.Chemscore.CHOScore>
0.0000

> <Gold.PLP.Chemscore.Metal>
0.0000

> <Gold.PLP.Chemscore.Internal.Correction>
0.1841

