#       Name:                EN300-736597_i001
#       Creating user name   aseyller
#       Creation time:       Fri Apr 21 16:30:23 2023


#       File generated by GOLD software.
#

@<TRIPOS>MOLECULE
EN300-736597_i001|Sulfonylchlorides|mol2|26|dock1
    21    21     1
SMALL
USER_CHARGES


@<TRIPOS>ATOM
      1 C1          32.1258  38.1906  34.3178 C.3            1 <1>                0.0000
      2 O2          32.4444  37.3761  35.4769 O.3            1 <1>                0.0000
      3 C3          31.5700  37.4035  36.5037 C.2            1 <1>                0.0000
      4 O4          30.8706  38.3827  36.6809 O.2            1 <1>                0.0000
      5 C5          31.4628  36.2546  37.4047 C.2            1 <1>                0.0000
      6 S6          32.5067  34.8399  37.3825 S.3            1 <1>                0.0000
      7 C7          31.6598  34.1366  38.6859 C.2            1 <1>                0.0000
      8 C8          30.6626  34.9311  39.0936 C.2            1 <1>                0.0000
      9 C9          30.5384  36.1122  38.4023 C.2            1 <1>                0.0000
     10 C10         29.4813  37.1426  38.7056 C.3            1 <1>                0.0000
     11 S11         28.0947  36.3509  39.5666 S.o2           1 <1>                0.0000
     12 O12         27.9138  35.0201  39.1021 O.2            1 <1>                0.0000
     13 O13         28.1393  36.6420  40.9567 O.2            1 <1>                0.0000
     14 Cl14        26.4609  37.3364  38.9034 Cl             1 <1>                0.0000
     15 H15         31.1722  37.8692  33.8990 H              1 <1>                0.0000
     16 H16         32.0574  39.2366  34.6165 H              1 <1>                0.0000
     17 H17         32.9086  38.0774  33.5679 H              1 <1>                0.0000
     18 H18         31.8965  33.1781  39.1236 H              1 <1>                0.0000
     19 H19         30.0066  34.6655  39.9094 H              1 <1>                0.0000
     20 H20         29.9049  37.9221  39.3390 H              1 <1>                0.0000
     21 H21         29.1263  37.5840  37.7744 H              1 <1>                0.0000
@<TRIPOS>BOND
    1    1    2 1     
    2    1   15 1     
    3    1   16 1     
    4    1   17 1     
    5    2    3 1     
    6    3    4 2     
    7    3    5 1     
    8    5    6 1     
    9    5    9 2     
   10    6    7 1     
   11    7    8 2     
   12    7   18 1     
   13    8    9 1     
   14    8   19 1     
   15    9   10 1     
   16   10   11 1     
   17   10   20 1     
   18   10   21 1     
   19   11   12 2     
   20   11   13 2     
   21   11   14 1     
@<TRIPOS>SUBSTRUCTURE
      1 ****           1
@<TRIPOS>COMMENT
> <Gold.Version>
2022.2.0

> <Gold.Id.Protein>
1qkm|1qkm_protein|mol2

> <Gold.Protein.RotatedTorsions>
[  496  491  490  487 ] final  140.03 input  -89.99 | X-H torsion

> <Gold.Protein.ActiveResidues>
 MET295  LEU298  THR299  LEU301  ALA302  GLU305  TRP335  MET336  LEU339  MET340 
 GLY342  LEU343  ARG346  PHE356  ILE373  ILE376  PHE377  LEU380  LYS471  GLY472 
 MET473  HIS475  LEU476  LEU477  ASN478  MET479  VAL484  VAL487 

> <Gold.Protein.RotatedAtoms>
   37.2145   33.0255   41.3307 H   0  0  0  0  0  0  0  0  0  0  0  0  # atno 496  bound_to 491 

> <Gold.Score>
     Score     S(PLP)   S(hbond)     S(cho)   S(metal)  DE(clash)   DE(tors)     intcor
     39.75     -41.92       0.00       0.00       0.00       0.00       1.18       0.18

> <Gold.PLP.Fitness>
39.7500

> <Gold.PLP.PLP>
-41.9206

> <Gold.PLP.part.hbond>
0.0000

> <Gold.PLP.part.metal>
0.0000

> <Gold.PLP.part.buried>
-4.0488

> <Gold.PLP.part.nonpolar>
-38.4324

> <Gold.PLP.part.repulsive>
0.1765

> <Gold.PLP.ligand.clash>
0.0000

> <Gold.PLP.ligand.torsion>
1.1773

> <Gold.PLP.Chemscore.Hbond>
0.0000

> <Gold.PLP.Chemscore.CHOScore>
0.0000

> <Gold.PLP.Chemscore.Metal>
0.0000

> <Gold.PLP.Chemscore.Internal.Correction>
0.1841

