#       Name:                EN300-736597_i001
#       Creating user name   aseyller
#       Creation time:       Fri Apr 21 16:30:24 2023


#       File generated by GOLD software.
#

@<TRIPOS>MOLECULE
EN300-736597_i001|Sulfonylchlorides|mol2|26|dock2
    21    21     1
SMALL
USER_CHARGES


@<TRIPOS>ATOM
      1 C1          28.4371  36.6905  41.5014 C.3            1 <1>                0.0000
      2 O2          29.0955  35.7929  40.5690 O.3            1 <1>                0.0000
      3 C3          29.8180  36.3590  39.5804 C.2            1 <1>                0.0000
      4 O4          29.6777  37.5398  39.3243 O.2            1 <1>                0.0000
      5 C5          30.7708  35.5523  38.8159 C.2            1 <1>                0.0000
      6 S6          31.0342  33.8251  39.0134 S.3            1 <1>                0.0000
      7 C7          32.2220  33.8188  37.7888 C.2            1 <1>                0.0000
      8 C8          32.3920  35.0453  37.2800 C.2            1 <1>                0.0000
      9 C9          31.5945  36.0201  37.8297 C.2            1 <1>                0.0000
     10 C10         31.6324  37.4631  37.3968 C.3            1 <1>                0.0000
     11 S11         31.4330  37.5597  35.5964 S.o2           1 <1>                0.0000
     12 O12         30.3885  36.6990  35.1635 O.2            1 <1>                0.0000
     13 O13         31.4981  38.9103  35.1593 O.2            1 <1>                0.0000
     14 Cl14        33.1128  36.7155  34.8573 Cl             1 <1>                0.0000
     15 H15         29.1841  37.3073  42.0009 H              1 <1>                0.0000
     16 H16         27.7409  37.3305  40.9594 H              1 <1>                0.0000
     17 H17         27.8920  36.1074  42.2436 H              1 <1>                0.0000
     18 H18         32.7646  32.9422  37.4669 H              1 <1>                0.0000
     19 H19         33.1007  35.2526  36.4919 H              1 <1>                0.0000
     20 H20         30.8233  38.0093  37.8818 H              1 <1>                0.0000
     21 H21         32.5886  37.9026  37.6806 H              1 <1>                0.0000
@<TRIPOS>BOND
    1    1    2 1     
    2    1   15 1     
    3    1   16 1     
    4    1   17 1     
    5    2    3 1     
    6    3    4 2     
    7    3    5 1     
    8    5    6 1     
    9    5    9 2     
   10    6    7 1     
   11    7    8 2     
   12    7   18 1     
   13    8    9 1     
   14    8   19 1     
   15    9   10 1     
   16   10   11 1     
   17   10   20 1     
   18   10   21 1     
   19   11   12 2     
   20   11   13 2     
   21   11   14 1     
@<TRIPOS>SUBSTRUCTURE
      1 ****           1
@<TRIPOS>COMMENT
> <Gold.Version>
2022.2.0

> <Gold.Id.Protein>
1qkm|1qkm_protein|mol2

> <Gold.Protein.RotatedTorsions>
[  496  491  490  487 ] final  131.06 input  -89.99 | X-H torsion

> <Gold.Protein.ActiveResidues>
 MET295  LEU298  THR299  LEU301  ALA302  GLU305  TRP335  MET336  LEU339  MET340 
 GLY342  LEU343  ARG346  PHE356  ILE373  ILE376  PHE377  LEU380  LYS471  GLY472 
 MET473  HIS475  LEU476  LEU477  ASN478  MET479  VAL484  VAL487 

> <Gold.Protein.RotatedAtoms>
   37.1600   32.9756   41.4585 H   0  0  0  0  0  0  0  0  0  0  0  0  # atno 496  bound_to 491 

> <Gold.Score>
     Score     S(PLP)   S(hbond)     S(cho)   S(metal)  DE(clash)   DE(tors)     intcor
     41.02     -41.73       0.00       0.00       0.00       0.14       0.38       0.18

> <Gold.PLP.Fitness>
41.0205

> <Gold.PLP.PLP>
-41.7319

> <Gold.PLP.part.hbond>
0.0000

> <Gold.PLP.part.metal>
0.0000

> <Gold.PLP.part.buried>
-3.6930

> <Gold.PLP.part.nonpolar>
-38.3724

> <Gold.PLP.part.repulsive>
0.2347

> <Gold.PLP.ligand.clash>
0.1379

> <Gold.PLP.ligand.torsion>
0.3788

> <Gold.PLP.Chemscore.Hbond>
0.0000

> <Gold.PLP.Chemscore.CHOScore>
0.0000

> <Gold.PLP.Chemscore.Metal>
0.0000

> <Gold.PLP.Chemscore.Internal.Correction>
0.1841

