#       Name:                EN300-736597_i001
#       Creating user name   aseyller
#       Creation time:       Fri Apr 21 16:30:32 2023


#       File generated by GOLD software.
#

@<TRIPOS>MOLECULE
EN300-736597_i001|Sulfonylchlorides|mol2|26|dock11
    21    21     1
SMALL
USER_CHARGES


@<TRIPOS>ATOM
      1 C1          30.9060  39.4232  35.1406 C.3            1 <1>                0.0000
      2 O2          31.2638  38.2155  35.8631 O.3            1 <1>                0.0000
      3 C3          30.6572  38.0098  37.0504 C.2            1 <1>                0.0000
      4 O4          29.9802  38.8894  37.5479 O.2            1 <1>                0.0000
      5 C5          30.8136  36.7279  37.7398 C.2            1 <1>                0.0000
      6 S6          31.8967  35.4320  37.2508 S.3            1 <1>                0.0000
      7 C7          31.4008  34.4595  38.5619 C.2            1 <1>                0.0000
      8 C8          30.4813  35.0886  39.3040 C.2            1 <1>                0.0000
      9 C9          30.1451  36.3486  38.8708 C.2            1 <1>                0.0000
     10 C10         29.1318  37.2208  39.5663 C.3            1 <1>                0.0000
     11 S11         27.4728  36.5261  39.3305 S.o2           1 <1>                0.0000
     12 O12         26.6971  37.3637  38.4843 O.2            1 <1>                0.0000
     13 O13         27.5461  35.1248  39.1066 O.2            1 <1>                0.0000
     14 Cl14        26.5933  36.6959  41.1412 Cl             1 <1>                0.0000
     15 H15         29.8374  39.4149  34.9259 H              1 <1>                0.0000
     16 H16         31.1479  40.2952  35.7481 H              1 <1>                0.0000
     17 H17         31.4641  39.4658  34.2054 H              1 <1>                0.0000
     18 H18         31.7783  33.4684  38.7659 H              1 <1>                0.0000
     19 H19         30.0395  34.6404  40.1816 H              1 <1>                0.0000
     20 H20         29.3597  37.2640  40.6314 H              1 <1>                0.0000
     21 H21         29.1679  38.2258  39.1460 H              1 <1>                0.0000
@<TRIPOS>BOND
    1    1    2 1     
    2    1   15 1     
    3    1   16 1     
    4    1   17 1     
    5    2    3 1     
    6    3    4 2     
    7    3    5 1     
    8    5    6 1     
    9    5    9 2     
   10    6    7 1     
   11    7    8 2     
   12    7   18 1     
   13    8    9 1     
   14    8   19 1     
   15    9   10 1     
   16   10   11 1     
   17   10   20 1     
   18   10   21 1     
   19   11   12 2     
   20   11   13 2     
   21   11   14 1     
@<TRIPOS>SUBSTRUCTURE
      1 ****           1
@<TRIPOS>COMMENT
> <Gold.Version>
2022.2.0

> <Gold.Id.Protein>
1qkm|1qkm_protein|mol2

> <Gold.Protein.RotatedTorsions>
[  496  491  490  487 ] final   98.34 input  -89.99 | X-H torsion

> <Gold.Protein.ActiveResidues>
 MET295  LEU298  THR299  LEU301  ALA302  GLU305  TRP335  MET336  LEU339  MET340 
 GLY342  LEU343  ARG346  PHE356  ILE373  ILE376  PHE377  LEU380  LYS471  GLY472 
 MET473  HIS475  LEU476  LEU477  ASN478  MET479  VAL484  VAL487 

> <Gold.Protein.RotatedAtoms>
   36.8966   32.9761   41.9200 H   0  0  0  0  0  0  0  0  0  0  0  0  # atno 496  bound_to 491 

> <Gold.Score>
     Score     S(PLP)   S(hbond)     S(cho)   S(metal)  DE(clash)   DE(tors)     intcor
     36.91     -37.80       0.00       0.00       0.00       0.00       0.53       0.18

> <Gold.PLP.Fitness>
36.9090

> <Gold.PLP.PLP>
-37.7964

> <Gold.PLP.part.hbond>
0.0000

> <Gold.PLP.part.metal>
0.0000

> <Gold.PLP.part.buried>
-3.3116

> <Gold.PLP.part.nonpolar>
-34.9433

> <Gold.PLP.part.repulsive>
0.0195

> <Gold.PLP.ligand.clash>
0.0000

> <Gold.PLP.ligand.torsion>
0.5323

> <Gold.PLP.Chemscore.Hbond>
0.0000

> <Gold.PLP.Chemscore.CHOScore>
0.0000

> <Gold.PLP.Chemscore.Metal>
0.0000

> <Gold.PLP.Chemscore.Internal.Correction>
0.1772

