#       Name:                EN300-736597_i001
#       Creating user name   aseyller
#       Creation time:       Fri Apr 21 16:30:37 2023


#       File generated by GOLD software.
#

@<TRIPOS>MOLECULE
EN300-736597_i001|Sulfonylchlorides|mol2|26|dock17
    21    21     1
SMALL
USER_CHARGES


@<TRIPOS>ATOM
      1 C1          27.0320  36.9912  39.0851 C.3            1 <1>                0.0000
      2 O2          28.4464  36.9845  38.7566 O.3            1 <1>                0.0000
      3 C3          29.2089  36.0443  39.3520 C.2            1 <1>                0.0000
      4 O4          28.8819  35.5905  40.4321 O.2            1 <1>                0.0000
      5 C5          30.4298  35.5702  38.6981 C.2            1 <1>                0.0000
      6 S6          31.0792  33.9400  38.8089 S.3            1 <1>                0.0000
      7 C7          32.3941  34.3449  37.8000 C.2            1 <1>                0.0000
      8 C8          32.3278  35.6261  37.4179 C.2            1 <1>                0.0000
      9 C9          31.2450  36.3226  37.8985 C.2            1 <1>                0.0000
     10 C10         30.9880  37.7740  37.5851 C.3            1 <1>                0.0000
     11 S11         30.8945  37.9971  35.7873 S.o2           1 <1>                0.0000
     12 O12         30.0495  37.0134  35.2060 O.2            1 <1>                0.0000
     13 O13         30.7487  39.3727  35.4623 O.2            1 <1>                0.0000
     14 Cl14        32.7422  37.5216  35.1236 Cl             1 <1>                0.0000
     15 H15         26.5896  36.0351  38.8054 H              1 <1>                0.0000
     16 H16         26.9085  37.1492  40.1564 H              1 <1>                0.0000
     17 H17         26.5362  37.7943  38.5399 H              1 <1>                0.0000
     18 H18         33.1759  33.6591  37.5086 H              1 <1>                0.0000
     19 H19         33.0685  36.0781  36.7750 H              1 <1>                0.0000
     20 H20         30.0461  38.0825  38.0389 H              1 <1>                0.0000
     21 H21         31.7999  38.3814  37.9847 H              1 <1>                0.0000
@<TRIPOS>BOND
    1    1    2 1     
    2    1   15 1     
    3    1   16 1     
    4    1   17 1     
    5    2    3 1     
    6    3    4 2     
    7    3    5 1     
    8    5    6 1     
    9    5    9 2     
   10    6    7 1     
   11    7    8 2     
   12    7   18 1     
   13    8    9 1     
   14    8   19 1     
   15    9   10 1     
   16   10   11 1     
   17   10   20 1     
   18   10   21 1     
   19   11   12 2     
   20   11   13 2     
   21   11   14 1     
@<TRIPOS>SUBSTRUCTURE
      1 ****           1
@<TRIPOS>COMMENT
> <Gold.Version>
2022.2.0

> <Gold.Id.Protein>
1qkm|1qkm_protein|mol2

> <Gold.Protein.RotatedTorsions>
[  496  491  490  487 ] final   38.56 input  -89.99 | X-H torsion

> <Gold.Protein.ActiveResidues>
 MET295  LEU298  THR299  LEU301  ALA302  GLU305  TRP335  MET336  LEU339  MET340 
 GLY342  LEU343  ARG346  PHE356  ILE373  ILE376  PHE377  LEU380  LYS471  GLY472 
 MET473  HIS475  LEU476  LEU477  ASN478  MET479  VAL484  VAL487 

> <Gold.Protein.RotatedAtoms>
   36.3947   33.6233   42.3813 H   0  0  0  0  0  0  0  0  0  0  0  0  # atno 496  bound_to 491 

> <Gold.Score>
     Score     S(PLP)   S(hbond)     S(cho)   S(metal)  DE(clash)   DE(tors)     intcor
     38.43     -40.06       0.00       0.00       0.00       0.00       0.90       0.17

> <Gold.PLP.Fitness>
38.4283

> <Gold.PLP.PLP>
-40.0633

> <Gold.PLP.part.hbond>
0.0000

> <Gold.PLP.part.metal>
0.0000

> <Gold.PLP.part.buried>
-4.9670

> <Gold.PLP.part.nonpolar>
-35.1950

> <Gold.PLP.part.repulsive>
0.1541

> <Gold.PLP.ligand.clash>
0.0000

> <Gold.PLP.ligand.torsion>
0.9032

> <Gold.PLP.Chemscore.Hbond>
0.0000

> <Gold.PLP.Chemscore.CHOScore>
0.0000

> <Gold.PLP.Chemscore.Metal>
0.0000

> <Gold.PLP.Chemscore.Internal.Correction>
0.1714

