#       Name:                EN300-736597_i001
#       Creating user name   aseyller
#       Creation time:       Fri Apr 21 16:30:30 2023


#       File generated by GOLD software.
#

@<TRIPOS>MOLECULE
EN300-736597_i001|Sulfonylchlorides|mol2|26|dock9
    21    21     1
SMALL
USER_CHARGES


@<TRIPOS>ATOM
      1 C1          30.5853  40.0177  35.5842 C.3            1 <1>                0.0000
      2 O2          31.1032  38.7116  35.9507 O.3            1 <1>                0.0000
      3 C3          30.5564  38.1172  37.0312 C.2            1 <1>                0.0000
      4 O4          29.6602  38.6694  37.6408 O.2            1 <1>                0.0000
      5 C5          31.0415  36.8076  37.4702 C.2            1 <1>                0.0000
      6 S6          32.1283  35.7655  36.5621 S.3            1 <1>                0.0000
      7 C7          32.1001  34.5847  37.7933 C.2            1 <1>                0.0000
      8 C8          31.3187  34.9707  38.8093 C.2            1 <1>                0.0000
      9 C9          30.7268  36.2012  38.6547 C.2            1 <1>                0.0000
     10 C10         29.8125  36.8158  39.6830 C.3            1 <1>                0.0000
     11 S11         28.4083  35.7074  39.9831 S.o2           1 <1>                0.0000
     12 O12         28.4557  34.5929  39.1027 O.2            1 <1>                0.0000
     13 O13         28.2014  35.5309  41.3779 O.2            1 <1>                0.0000
     14 Cl14        26.7962  36.7587  39.3695 Cl             1 <1>                0.0000
     15 H15         29.5201  39.9383  35.3671 H              1 <1>                0.0000
     16 H16         30.7371  40.7134  36.4094 H              1 <1>                0.0000
     17 H17         31.1100  40.3818  34.7009 H              1 <1>                0.0000
     18 H18         32.6405  33.6503  37.7576 H              1 <1>                0.0000
     19 H19         31.1682  34.3616  39.6883 H              1 <1>                0.0000
     20 H20         30.3611  36.9672  40.6128 H              1 <1>                0.0000
     21 H21         29.4464  37.7749  39.3169 H              1 <1>                0.0000
@<TRIPOS>BOND
    1    1    2 1     
    2    1   15 1     
    3    1   16 1     
    4    1   17 1     
    5    2    3 1     
    6    3    4 2     
    7    3    5 1     
    8    5    6 1     
    9    5    9 2     
   10    6    7 1     
   11    7    8 2     
   12    7   18 1     
   13    8    9 1     
   14    8   19 1     
   15    9   10 1     
   16   10   11 1     
   17   10   20 1     
   18   10   21 1     
   19   11   12 2     
   20   11   13 2     
   21   11   14 1     
@<TRIPOS>SUBSTRUCTURE
      1 ****           1
@<TRIPOS>COMMENT
> <Gold.Version>
2022.2.0

> <Gold.Id.Protein>
1qkm|1qkm_protein|mol2

> <Gold.Protein.RotatedTorsions>
[  496  491  490  487 ] final   60.91 input  -89.99 | X-H torsion

> <Gold.Protein.ActiveResidues>
 MET295  LEU298  THR299  LEU301  ALA302  GLU305  TRP335  MET336  LEU339  MET340 
 GLY342  LEU343  ARG346  PHE356  ILE373  ILE376  PHE377  LEU380  LYS471  GLY472 
 MET473  HIS475  LEU476  LEU477  ASN478  MET479  VAL484  VAL487 

> <Gold.Protein.RotatedAtoms>
   36.5591   33.3076   42.2973 H   0  0  0  0  0  0  0  0  0  0  0  0  # atno 496  bound_to 491 

> <Gold.Score>
     Score     S(PLP)   S(hbond)     S(cho)   S(metal)  DE(clash)   DE(tors)     intcor
     40.01     -40.11       0.00       0.00       0.00       0.00       0.14       0.18

> <Gold.PLP.Fitness>
40.0070

> <Gold.PLP.PLP>
-40.1074

> <Gold.PLP.part.hbond>
0.0000

> <Gold.PLP.part.metal>
0.0000

> <Gold.PLP.part.buried>
-4.2405

> <Gold.PLP.part.nonpolar>
-37.1190

> <Gold.PLP.part.repulsive>
0.1787

> <Gold.PLP.ligand.clash>
0.0000

> <Gold.PLP.ligand.torsion>
0.1388

> <Gold.PLP.Chemscore.Hbond>
0.0000

> <Gold.PLP.Chemscore.CHOScore>
0.0000

> <Gold.PLP.Chemscore.Metal>
0.0000

> <Gold.PLP.Chemscore.Internal.Correction>
0.1772

