#       Name:                EN300-736597_i001
#       Creating user name   aseyller
#       Creation time:       Fri Apr 21 16:30:25 2023


#       File generated by GOLD software.
#

@<TRIPOS>MOLECULE
EN300-736597_i001|Sulfonylchlorides|mol2|26|dock3
    21    21     1
SMALL
USER_CHARGES


@<TRIPOS>ATOM
      1 C1          29.4982  40.2641  36.4635 C.3            1 <1>                0.0000
      2 O2          29.8681  39.0553  37.1778 O.3            1 <1>                0.0000
      3 C3          30.5764  38.1327  36.4945 C.2            1 <1>                0.0000
      4 O4          30.8363  38.3128  35.3199 O.2            1 <1>                0.0000
      5 C5          31.0324  36.9147  37.1666 C.2            1 <1>                0.0000
      6 S6          32.1424  35.7307  36.4900 S.3            1 <1>                0.0000
      7 C7          32.0571  34.7753  37.9008 C.2            1 <1>                0.0000
      8 C8          31.2419  35.3299  38.8063 C.2            1 <1>                0.0000
      9 C9          30.6679  36.5183  38.4236 C.2            1 <1>                0.0000
     10 C10         29.7217  37.3007  39.2974 C.3            1 <1>                0.0000
     11 S11         28.3315  36.2415  39.7832 S.o2           1 <1>                0.0000
     12 O12         27.0946  36.8820  39.5021 O.2            1 <1>                0.0000
     13 O13         28.5669  34.8971  39.3877 O.2            1 <1>                0.0000
     14 Cl14        28.4184  36.1896  41.8007 Cl             1 <1>                0.0000
     15 H15         30.3989  40.7770  36.1265 H              1 <1>                0.0000
     16 H16         28.8844  40.0032  35.6013 H              1 <1>                0.0000
     17 H17         28.9334  40.9195  37.1265 H              1 <1>                0.0000
     18 H18         32.5896  33.8467  38.0443 H              1 <1>                0.0000
     19 H19         31.0529  34.8786  39.7692 H              1 <1>                0.0000
     20 H20         30.2481  37.6411  40.1892 H              1 <1>                0.0000
     21 H21         29.3463  38.1626  38.7459 H              1 <1>                0.0000
@<TRIPOS>BOND
    1    1    2 1     
    2    1   15 1     
    3    1   16 1     
    4    1   17 1     
    5    2    3 1     
    6    3    4 2     
    7    3    5 1     
    8    5    6 1     
    9    5    9 2     
   10    6    7 1     
   11    7    8 2     
   12    7   18 1     
   13    8    9 1     
   14    8   19 1     
   15    9   10 1     
   16   10   11 1     
   17   10   20 1     
   18   10   21 1     
   19   11   12 2     
   20   11   13 2     
   21   11   14 1     
@<TRIPOS>SUBSTRUCTURE
      1 ****           1
@<TRIPOS>COMMENT
> <Gold.Version>
2022.2.0

> <Gold.Id.Protein>
1qkm|1qkm_protein|mol2

> <Gold.Protein.RotatedTorsions>
[  496  491  490  487 ] final  152.38 input  -89.99 | X-H torsion

> <Gold.Protein.ActiveResidues>
 MET295  LEU298  THR299  LEU301  ALA302  GLU305  TRP335  MET336  LEU339  MET340 
 GLY342  LEU343  ARG346  PHE356  ILE373  ILE376  PHE377  LEU380  LYS471  GLY472 
 MET473  HIS475  LEU476  LEU477  ASN478  MET479  VAL484  VAL487 

> <Gold.Protein.RotatedAtoms>
   37.2721   33.1263   41.1645 H   0  0  0  0  0  0  0  0  0  0  0  0  # atno 496  bound_to 491 

> <Gold.Score>
     Score     S(PLP)   S(hbond)     S(cho)   S(metal)  DE(clash)   DE(tors)     intcor
     41.90     -41.97       0.00       0.00       0.00       0.00       0.13       0.18

> <Gold.PLP.Fitness>
41.9021

> <Gold.PLP.PLP>
-41.9687

> <Gold.PLP.part.hbond>
0.0000

> <Gold.PLP.part.metal>
0.0000

> <Gold.PLP.part.buried>
-4.5104

> <Gold.PLP.part.nonpolar>
-37.8340

> <Gold.PLP.part.repulsive>
0.0666

> <Gold.PLP.ligand.clash>
0.0000

> <Gold.PLP.ligand.torsion>
0.1253

> <Gold.PLP.Chemscore.Hbond>
0.0000

> <Gold.PLP.Chemscore.CHOScore>
0.0000

> <Gold.PLP.Chemscore.Metal>
0.0000

> <Gold.PLP.Chemscore.Internal.Correction>
0.1841

