#       Name:                EN300-736597_i001
#       Creating user name   aseyller
#       Creation time:       Fri Apr 21 16:30:27 2023


#       File generated by GOLD software.
#

@<TRIPOS>MOLECULE
EN300-736597_i001|Sulfonylchlorides|mol2|26|dock5
    21    21     1
SMALL
USER_CHARGES


@<TRIPOS>ATOM
      1 C1          27.2253  37.1200  38.6392 C.3            1 <1>                0.0000
      2 O2          28.3735  36.3021  38.9874 O.3            1 <1>                0.0000
      3 C3          29.5785  36.7189  38.5471 C.2            1 <1>                0.0000
      4 O4          29.7923  37.9064  38.3932 O.2            1 <1>                0.0000
      5 C5          30.6289  35.7421  38.2546 C.2            1 <1>                0.0000
      6 S6          30.5406  34.0182  38.5891 S.3            1 <1>                0.0000
      7 C7          32.1017  33.7664  37.9485 C.2            1 <1>                0.0000
      8 C8          32.6340  34.9168  37.5179 C.2            1 <1>                0.0000
      9 C9          31.8337  36.0232  37.6720 C.2            1 <1>                0.0000
     10 C10         32.2475  37.4100  37.2516 C.3            1 <1>                0.0000
     11 S11         31.1548  37.9910  35.9253 S.o2           1 <1>                0.0000
     12 O12         30.1964  36.9947  35.5965 O.2            1 <1>                0.0000
     13 O13         30.7625  39.3371  36.1562 O.2            1 <1>                0.0000
     14 Cl14        32.3471  38.0917  34.2978 Cl             1 <1>                0.0000
     15 H15         27.3558  38.1221  39.0477 H              1 <1>                0.0000
     16 H16         27.1366  37.1786  37.5544 H              1 <1>                0.0000
     17 H17         26.3218  36.6733  39.0540 H              1 <1>                0.0000
     18 H18         32.5948  32.8069  37.8972 H              1 <1>                0.0000
     19 H19         33.6186  34.9705  37.0774 H              1 <1>                0.0000
     20 H20         32.1746  38.0850  38.1044 H              1 <1>                0.0000
     21 H21         33.2761  37.3889  36.8918 H              1 <1>                0.0000
@<TRIPOS>BOND
    1    1    2 1     
    2    1   15 1     
    3    1   16 1     
    4    1   17 1     
    5    2    3 1     
    6    3    4 2     
    7    3    5 1     
    8    5    6 1     
    9    5    9 2     
   10    6    7 1     
   11    7    8 2     
   12    7   18 1     
   13    8    9 1     
   14    8   19 1     
   15    9   10 1     
   16   10   11 1     
   17   10   20 1     
   18   10   21 1     
   19   11   12 2     
   20   11   13 2     
   21   11   14 1     
@<TRIPOS>SUBSTRUCTURE
      1 ****           1
@<TRIPOS>COMMENT
> <Gold.Version>
2022.2.0

> <Gold.Id.Protein>
1qkm|1qkm_protein|mol2

> <Gold.Protein.RotatedTorsions>
[  496  491  490  487 ] final -146.49 input  -89.99 | X-H torsion

> <Gold.Protein.ActiveResidues>
 MET295  LEU298  THR299  LEU301  ALA302  GLU305  TRP335  MET336  LEU339  MET340 
 GLY342  LEU343  ARG346  PHE356  ILE373  ILE376  PHE377  LEU380  LYS471  GLY472 
 MET473  HIS475  LEU476  LEU477  ASN478  MET479  VAL484  VAL487 

> <Gold.Protein.RotatedAtoms>
   37.2125   33.9745   40.7203 H   0  0  0  0  0  0  0  0  0  0  0  0  # atno 496  bound_to 491 

> <Gold.Score>
     Score     S(PLP)   S(hbond)     S(cho)   S(metal)  DE(clash)   DE(tors)     intcor
     39.70     -40.61       0.00       0.00       0.00       0.00       0.55       0.18

> <Gold.PLP.Fitness>
39.7011

> <Gold.PLP.PLP>
-40.6126

> <Gold.PLP.part.hbond>
0.0000

> <Gold.PLP.part.metal>
0.0000

> <Gold.PLP.part.buried>
-4.5610

> <Gold.PLP.part.nonpolar>
-36.6030

> <Gold.PLP.part.repulsive>
0.0392

> <Gold.PLP.ligand.clash>
0.0000

> <Gold.PLP.ligand.torsion>
0.5478

> <Gold.PLP.Chemscore.Hbond>
0.0000

> <Gold.PLP.Chemscore.CHOScore>
0.0000

> <Gold.PLP.Chemscore.Metal>
0.0000

> <Gold.PLP.Chemscore.Internal.Correction>
0.1841

