#       Name:                EN300-736597_i001
#       Creating user name   aseyller
#       Creation time:       Fri Apr 21 16:30:37 2023


#       File generated by GOLD software.
#

@<TRIPOS>MOLECULE
EN300-736597_i001|Sulfonylchlorides|mol2|26|dock18
    21    21     1
SMALL
USER_CHARGES


@<TRIPOS>ATOM
      1 C1          31.5823  34.0610  38.7999 C.3            1 <1>                0.0000
      2 O2          30.7703  35.2298  38.5115 O.3            1 <1>                0.0000
      3 C3          31.1869  36.0332  37.5111 C.2            1 <1>                0.0000
      4 O4          32.2123  35.7744  36.9102 O.2            1 <1>                0.0000
      5 C5          30.4048  37.2164  37.1486 C.2            1 <1>                0.0000
      6 S6          30.6457  38.1968  35.7091 S.3            1 <1>                0.0000
      7 C7          29.3670  39.2379  36.1471 C.2            1 <1>                0.0000
      8 C8          28.8112  38.8538  37.3027 C.2            1 <1>                0.0000
      9 C9          29.3659  37.7330  37.8724 C.2            1 <1>                0.0000
     10 C10         28.8850  37.1395  39.1715 C.3            1 <1>                0.0000
     11 S11         27.1091  36.7889  39.0553 S.o2           1 <1>                0.0000
     12 O12         26.4171  37.8984  38.4991 O.2            1 <1>                0.0000
     13 O13         26.8916  35.4714  38.5693 O.2            1 <1>                0.0000
     14 Cl14        26.4819  36.7217  40.9743 Cl             1 <1>                0.0000
     15 H15         31.6317  33.4259  37.9155 H              1 <1>                0.0000
     16 H16         32.5880  34.3768  39.0772 H              1 <1>                0.0000
     17 H17         31.1366  33.5032  39.6234 H              1 <1>                0.0000
     18 H18         29.0485  40.0929  35.5692 H              1 <1>                0.0000
     19 H19         27.9840  39.3833  37.7521 H              1 <1>                0.0000
     20 H20         29.4258  36.2141  39.3703 H              1 <1>                0.0000
     21 H21         29.0636  37.8460  39.9820 H              1 <1>                0.0000
@<TRIPOS>BOND
    1    1    2 1     
    2    1   15 1     
    3    1   16 1     
    4    1   17 1     
    5    2    3 1     
    6    3    4 2     
    7    3    5 1     
    8    5    6 1     
    9    5    9 2     
   10    6    7 1     
   11    7    8 2     
   12    7   18 1     
   13    8    9 1     
   14    8   19 1     
   15    9   10 1     
   16   10   11 1     
   17   10   20 1     
   18   10   21 1     
   19   11   12 2     
   20   11   13 2     
   21   11   14 1     
@<TRIPOS>SUBSTRUCTURE
      1 ****           1
@<TRIPOS>COMMENT
> <Gold.Version>
2022.2.0

> <Gold.Id.Protein>
1qkm|1qkm_protein|mol2

> <Gold.Protein.RotatedTorsions>
[  496  491  490  487 ] final   35.02 input  -89.99 | X-H torsion

> <Gold.Protein.ActiveResidues>
 MET295  LEU298  THR299  LEU301  ALA302  GLU305  TRP335  MET336  LEU339  MET340 
 GLY342  LEU343  ARG346  PHE356  ILE373  ILE376  PHE377  LEU380  LYS471  GLY472 
 MET473  HIS475  LEU476  LEU477  ASN478  MET479  VAL484  VAL487 

> <Gold.Protein.RotatedAtoms>
   36.3735   33.6775   42.3833 H   0  0  0  0  0  0  0  0  0  0  0  0  # atno 496  bound_to 491 

> <Gold.Score>
     Score     S(PLP)   S(hbond)     S(cho)   S(metal)  DE(clash)   DE(tors)     intcor
     37.19     -38.03       0.00       0.00       0.00       0.00       0.50       0.17

> <Gold.PLP.Fitness>
37.1947

> <Gold.PLP.PLP>
-38.0269

> <Gold.PLP.part.hbond>
0.0000

> <Gold.PLP.part.metal>
0.0000

> <Gold.PLP.part.buried>
-3.4441

> <Gold.PLP.part.nonpolar>
-34.4459

> <Gold.PLP.part.repulsive>
0.1391

> <Gold.PLP.ligand.clash>
0.0000

> <Gold.PLP.ligand.torsion>
0.5018

> <Gold.PLP.Chemscore.Hbond>
0.0000

> <Gold.PLP.Chemscore.CHOScore>
0.0000

> <Gold.PLP.Chemscore.Metal>
0.0000

> <Gold.PLP.Chemscore.Internal.Correction>
0.1714

