#       Name:                EN300-736597_i001
#       Creating user name   aseyller
#       Creation time:       Fri Apr 21 16:30:35 2023


#       File generated by GOLD software.
#

@<TRIPOS>MOLECULE
EN300-736597_i001|Sulfonylchlorides|mol2|26|dock15
    21    21     1
SMALL
USER_CHARGES


@<TRIPOS>ATOM
      1 C1          27.1229  35.7986  40.7425 C.3            1 <1>                0.0000
      2 O2          28.3960  35.3333  40.2218 O.3            1 <1>                0.0000
      3 C3          28.9524  36.0565  39.2282 C.2            1 <1>                0.0000
      4 O4          28.3923  37.0540  38.8149 O.2            1 <1>                0.0000
      5 C5          30.2303  35.6407  38.6474 C.2            1 <1>                0.0000
      6 S6          30.9333  34.0340  38.7732 S.3            1 <1>                0.0000
      7 C7          32.2939  34.5068  37.8589 C.2            1 <1>                0.0000
      8 C8          32.2032  35.7917  37.4945 C.2            1 <1>                0.0000
      9 C9          31.0657  36.4380  37.9151 C.2            1 <1>                0.0000
     10 C10         30.7738  37.8846  37.6098 C.3            1 <1>                0.0000
     11 S11         30.8724  38.1564  35.8190 S.o2           1 <1>                0.0000
     12 O12         30.2255  37.1028  35.1184 O.2            1 <1>                0.0000
     13 O13         30.6058  39.5166  35.5056 O.2            1 <1>                0.0000
     14 Cl14        32.8297  37.9185  35.3800 Cl             1 <1>                0.0000
     15 H15         27.2404  36.8053  41.1434 H              1 <1>                0.0000
     16 H16         26.3849  35.8107  39.9404 H              1 <1>                0.0000
     17 H17         26.7877  35.1289  41.5345 H              1 <1>                0.0000
     18 H18         33.1186  33.8563  37.6076 H              1 <1>                0.0000
     19 H19         32.9659  36.2832  36.9088 H              1 <1>                0.0000
     20 H20         29.7727  38.1352  37.9608 H              1 <1>                0.0000
     21 H21         31.5045  38.5170  38.1139 H              1 <1>                0.0000
@<TRIPOS>BOND
    1    1    2 1     
    2    1   15 1     
    3    1   16 1     
    4    1   17 1     
    5    2    3 1     
    6    3    4 2     
    7    3    5 1     
    8    5    6 1     
    9    5    9 2     
   10    6    7 1     
   11    7    8 2     
   12    7   18 1     
   13    8    9 1     
   14    8   19 1     
   15    9   10 1     
   16   10   11 1     
   17   10   20 1     
   18   10   21 1     
   19   11   12 2     
   20   11   13 2     
   21   11   14 1     
@<TRIPOS>SUBSTRUCTURE
      1 ****           1
@<TRIPOS>COMMENT
> <Gold.Version>
2022.2.0

> <Gold.Id.Protein>
1qkm|1qkm_protein|mol2

> <Gold.Protein.RotatedTorsions>
[  496  491  490  487 ] final  -13.57 input  -89.99 | X-H torsion

> <Gold.Protein.ActiveResidues>
 MET295  LEU298  THR299  LEU301  ALA302  GLU305  TRP335  MET336  LEU339  MET340 
 GLY342  LEU343  ARG346  PHE356  ILE373  ILE376  PHE377  LEU380  LYS471  GLY472 
 MET473  HIS475  LEU476  LEU477  ASN478  MET479  VAL484  VAL487 

> <Gold.Protein.RotatedAtoms>
   36.2671   34.3945   42.1061 H   0  0  0  0  0  0  0  0  0  0  0  0  # atno 496  bound_to 491 

> <Gold.Score>
     Score     S(PLP)   S(hbond)     S(cho)   S(metal)  DE(clash)   DE(tors)     intcor
     38.27     -38.77       0.00       0.00       0.00       0.00       0.33       0.17

> <Gold.PLP.Fitness>
38.2742

> <Gold.PLP.PLP>
-38.7682

> <Gold.PLP.part.hbond>
0.0000

> <Gold.PLP.part.metal>
0.0000

> <Gold.PLP.part.buried>
-4.8543

> <Gold.PLP.part.nonpolar>
-34.3092

> <Gold.PLP.part.repulsive>
0.1414

> <Gold.PLP.ligand.clash>
0.0000

> <Gold.PLP.ligand.torsion>
0.3327

> <Gold.PLP.Chemscore.Hbond>
0.0000

> <Gold.PLP.Chemscore.CHOScore>
0.0000

> <Gold.PLP.Chemscore.Metal>
0.0000

> <Gold.PLP.Chemscore.Internal.Correction>
0.1714

