#       Name:                EN300-736597_i001
#       Creating user name   aseyller
#       Creation time:       Fri Apr 21 16:30:31 2023


#       File generated by GOLD software.
#

@<TRIPOS>MOLECULE
EN300-736597_i001|Sulfonylchlorides|mol2|26|dock10
    21    21     1
SMALL
USER_CHARGES


@<TRIPOS>ATOM
      1 C1          26.9149  36.3530  39.3883 C.3            1 <1>                0.0000
      2 O2          28.0570  35.4900  39.1447 O.3            1 <1>                0.0000
      3 C3          29.2139  36.0894  38.7952 C.2            1 <1>                0.0000
      4 O4          29.2863  37.3033  38.7691 O.2            1 <1>                0.0000
      5 C5          30.3823  35.2787  38.4474 C.2            1 <1>                0.0000
      6 S6          30.5402  33.5484  38.7168 S.3            1 <1>                0.0000
      7 C7          32.1064  33.5387  38.0403 C.2            1 <1>                0.0000
      8 C8          32.4652  34.7664  37.6454 C.2            1 <1>                0.0000
      9 C9          31.5236  35.7449  37.8556 C.2            1 <1>                0.0000
     10 C10         31.7326  37.1898  37.4820 C.3            1 <1>                0.0000
     11 S11         31.8431  37.3378  35.6774 S.o2           1 <1>                0.0000
     12 O12         30.8391  36.5518  35.0502 O.2            1 <1>                0.0000
     13 O13         32.0563  38.6911  35.3001 O.2            1 <1>                0.0000
     14 Cl14        33.5727  36.4095  35.2005 Cl             1 <1>                0.0000
     15 H15         27.1460  37.0404  40.2019 H              1 <1>                0.0000
     16 H16         26.6896  36.9209  38.4856 H              1 <1>                0.0000
     17 H17         26.0518  35.7453  39.6601 H              1 <1>                0.0000
     18 H18         32.7259  32.6593  37.9437 H              1 <1>                0.0000
     19 H19         33.4229  34.9719  37.1905 H              1 <1>                0.0000
     20 H20         30.8936  37.7838  37.8445 H              1 <1>                0.0000
     21 H21         32.6562  37.5520  37.9334 H              1 <1>                0.0000
@<TRIPOS>BOND
    1    1    2 1     
    2    1   15 1     
    3    1   16 1     
    4    1   17 1     
    5    2    3 1     
    6    3    4 2     
    7    3    5 1     
    8    5    6 1     
    9    5    9 2     
   10    6    7 1     
   11    7    8 2     
   12    7   18 1     
   13    8    9 1     
   14    8   19 1     
   15    9   10 1     
   16   10   11 1     
   17   10   20 1     
   18   10   21 1     
   19   11   12 2     
   20   11   13 2     
   21   11   14 1     
@<TRIPOS>SUBSTRUCTURE
      1 ****           1
@<TRIPOS>COMMENT
> <Gold.Version>
2022.2.0

> <Gold.Id.Protein>
1qkm|1qkm_protein|mol2

> <Gold.Protein.RotatedTorsions>
[  496  491  490  487 ] final  160.99 input  -89.99 | X-H torsion

> <Gold.Protein.ActiveResidues>
 MET295  LEU298  THR299  LEU301  ALA302  GLU305  TRP335  MET336  LEU339  MET340 
 GLY342  LEU343  ARG346  PHE356  ILE373  ILE376  PHE377  LEU380  LYS471  GLY472 
 MET473  HIS475  LEU476  LEU477  ASN478  MET479  VAL484  VAL487 

> <Gold.Protein.RotatedAtoms>
   37.2993   33.2165   41.0586 H   0  0  0  0  0  0  0  0  0  0  0  0  # atno 496  bound_to 491 

> <Gold.Score>
     Score     S(PLP)   S(hbond)     S(cho)   S(metal)  DE(clash)   DE(tors)     intcor
     38.00     -38.32       0.00       0.00       0.00       0.00       0.25       0.18

> <Gold.PLP.Fitness>
37.9952

> <Gold.PLP.PLP>
-38.3188

> <Gold.PLP.part.hbond>
0.0000

> <Gold.PLP.part.metal>
0.0000

> <Gold.PLP.part.buried>
-3.3878

> <Gold.PLP.part.nonpolar>
-35.6253

> <Gold.PLP.part.repulsive>
0.1438

> <Gold.PLP.ligand.clash>
0.0000

> <Gold.PLP.ligand.torsion>
0.2504

> <Gold.PLP.Chemscore.Hbond>
0.0000

> <Gold.PLP.Chemscore.CHOScore>
0.0000

> <Gold.PLP.Chemscore.Metal>
0.0000

> <Gold.PLP.Chemscore.Internal.Correction>
0.1772

