#       Name:                EN300-736597_i001
#       Creating user name   aseyller
#       Creation time:       Fri Apr 21 16:30:33 2023


#       File generated by GOLD software.
#

@<TRIPOS>MOLECULE
EN300-736597_i001|Sulfonylchlorides|mol2|26|dock13
    21    21     1
SMALL
USER_CHARGES


@<TRIPOS>ATOM
      1 C1          27.7084  36.3984  41.5176 C.3            1 <1>                0.0000
      2 O2          28.9662  36.0544  40.8786 O.3            1 <1>                0.0000
      3 C3          28.8964  35.4597  39.6698 C.2            1 <1>                0.0000
      4 O4          27.8130  35.2138  39.1747 O.2            1 <1>                0.0000
      5 C5          30.1247  35.1104  38.9540 C.2            1 <1>                0.0000
      6 S6          30.7895  33.4900  38.7992 S.3            1 <1>                0.0000
      7 C7          32.1046  34.0670  37.8781 C.2            1 <1>                0.0000
      8 C8          32.0274  35.3929  37.7113 C.2            1 <1>                0.0000
      9 C9          30.9358  35.9912  38.2935 C.2            1 <1>                0.0000
     10 C10         30.6660  37.4721  38.2214 C.3            1 <1>                0.0000
     11 S11         30.9356  38.0538  36.5245 S.o2           1 <1>                0.0000
     12 O12         32.3228  38.0673  36.2164 O.2            1 <1>                0.0000
     13 O13         29.9942  37.4628  35.6392 O.2            1 <1>                0.0000
     14 Cl14        30.4169  40.0055  36.5724 Cl             1 <1>                0.0000
     15 H15         27.1555  37.0902  40.8823 H              1 <1>                0.0000
     16 H16         27.1189  35.4943  41.6695 H              1 <1>                0.0000
     17 H17         27.9068  36.8688  42.4806 H              1 <1>                0.0000
     18 H18         32.8943  33.4454  37.4825 H              1 <1>                0.0000
     19 H19         32.7664  35.9510  37.1557 H              1 <1>                0.0000
     20 H20         29.6341  37.6680  38.5130 H              1 <1>                0.0000
     21 H21         31.3406  37.9977  38.8971 H              1 <1>                0.0000
@<TRIPOS>BOND
    1    1    2 1     
    2    1   15 1     
    3    1   16 1     
    4    1   17 1     
    5    2    3 1     
    6    3    4 2     
    7    3    5 1     
    8    5    6 1     
    9    5    9 2     
   10    6    7 1     
   11    7    8 2     
   12    7   18 1     
   13    8    9 1     
   14    8   19 1     
   15    9   10 1     
   16   10   11 1     
   17   10   20 1     
   18   10   21 1     
   19   11   12 2     
   20   11   13 2     
   21   11   14 1     
@<TRIPOS>SUBSTRUCTURE
      1 ****           1
@<TRIPOS>COMMENT
> <Gold.Version>
2022.2.0

> <Gold.Id.Protein>
1qkm|1qkm_protein|mol2

> <Gold.Protein.RotatedTorsions>
[  496  491  490  487 ] final  -78.42 input  -89.99 | X-H torsion

> <Gold.Protein.ActiveResidues>
 MET295  LEU298  THR299  LEU301  ALA302  GLU305  TRP335  MET336  LEU339  MET340 
 GLY342  LEU343  ARG346  PHE356  ILE373  ILE376  PHE377  LEU380  LYS471  GLY472 
 MET473  HIS475  LEU476  LEU477  ASN478  MET479  VAL484  VAL487 

> <Gold.Protein.RotatedAtoms>
   36.6517   34.7122   41.2263 H   0  0  0  0  0  0  0  0  0  0  0  0  # atno 496  bound_to 491 

> <Gold.Score>
     Score     S(PLP)   S(hbond)     S(cho)   S(metal)  DE(clash)   DE(tors)     intcor
     37.48     -40.68       0.00       0.00       0.00       0.00       1.69       0.18

> <Gold.PLP.Fitness>
37.4806

> <Gold.PLP.PLP>
-40.6814

> <Gold.PLP.part.hbond>
0.0000

> <Gold.PLP.part.metal>
0.0000

> <Gold.PLP.part.buried>
-5.0560

> <Gold.PLP.part.nonpolar>
-36.3179

> <Gold.PLP.part.repulsive>
0.1537

> <Gold.PLP.ligand.clash>
0.0000

> <Gold.PLP.ligand.torsion>
1.6890

> <Gold.PLP.Chemscore.Hbond>
0.0000

> <Gold.PLP.Chemscore.CHOScore>
0.0000

> <Gold.PLP.Chemscore.Metal>
0.0000

> <Gold.PLP.Chemscore.Internal.Correction>
0.1772

