#       Name:                EN300-736597_i001
#       Creating user name   aseyller
#       Creation time:       Fri Apr 21 16:30:29 2023


#       File generated by GOLD software.
#

@<TRIPOS>MOLECULE
EN300-736597_i001|Sulfonylchlorides|mol2|26|dock7
    21    21     1
SMALL
USER_CHARGES


@<TRIPOS>ATOM
      1 C1          28.1589  36.2575  41.4370 C.3            1 <1>                0.0000
      2 O2          29.0886  35.5137  40.6058 O.3            1 <1>                0.0000
      3 C3          29.7001  36.1921  39.6130 C.2            1 <1>                0.0000
      4 O4          29.4014  37.3507  39.3943 O.2            1 <1>                0.0000
      5 C5          30.7235  35.5338  38.7990 C.2            1 <1>                0.0000
      6 S6          31.1525  33.8306  38.8810 S.3            1 <1>                0.0000
      7 C7          32.3311  34.0208  37.6622 C.2            1 <1>                0.0000
      8 C8          32.3805  35.2892  37.2373 C.2            1 <1>                0.0000
      9 C9          31.4949  36.1437  37.8487 C.2            1 <1>                0.0000
     10 C10         31.3923  37.6094  37.5138 C.3            1 <1>                0.0000
     11 S11         31.1453  37.8056  35.7274 S.o2           1 <1>                0.0000
     12 O12         32.3843  37.7057  35.0388 O.2            1 <1>                0.0000
     13 O13         30.0070  37.0714  35.2978 O.2            1 <1>                0.0000
     14 Cl14        30.6049  39.7389  35.5025 Cl             1 <1>                0.0000
     15 H15         28.6841  37.0790  41.9240 H              1 <1>                0.0000
     16 H16         27.3560  36.6562  40.8169 H              1 <1>                0.0000
     17 H17         27.7386  35.5954  42.1940 H              1 <1>                0.0000
     18 H18         32.9544  33.2240  37.2838 H              1 <1>                0.0000
     19 H19         33.0632  35.6161  36.4670 H              1 <1>                0.0000
     20 H20         30.5479  38.0459  38.0474 H              1 <1>                0.0000
     21 H21         32.3107  38.1154  37.8112 H              1 <1>                0.0000
@<TRIPOS>BOND
    1    1    2 1     
    2    1   15 1     
    3    1   16 1     
    4    1   17 1     
    5    2    3 1     
    6    3    4 2     
    7    3    5 1     
    8    5    6 1     
    9    5    9 2     
   10    6    7 1     
   11    7    8 2     
   12    7   18 1     
   13    8    9 1     
   14    8   19 1     
   15    9   10 1     
   16   10   11 1     
   17   10   20 1     
   18   10   21 1     
   19   11   12 2     
   20   11   13 2     
   21   11   14 1     
@<TRIPOS>SUBSTRUCTURE
      1 ****           1
@<TRIPOS>COMMENT
> <Gold.Version>
2022.2.0

> <Gold.Id.Protein>
1qkm|1qkm_protein|mol2

> <Gold.Protein.RotatedTorsions>
[  496  491  490  487 ] final  108.30 input  -89.99 | X-H torsion

> <Gold.Protein.ActiveResidues>
 MET295  LEU298  THR299  LEU301  ALA302  GLU305  TRP335  MET336  LEU339  MET340 
 GLY342  LEU343  ARG346  PHE356  ILE373  ILE376  PHE377  LEU380  LYS471  GLY472 
 MET473  HIS475  LEU476  LEU477  ASN478  MET479  VAL484  VAL487 

> <Gold.Protein.RotatedAtoms>
   36.9848   32.9451   41.7854 H   0  0  0  0  0  0  0  0  0  0  0  0  # atno 496  bound_to 491 

> <Gold.Score>
     Score     S(PLP)   S(hbond)     S(cho)   S(metal)  DE(clash)   DE(tors)     intcor
     39.71     -40.15       0.00       0.00       0.00       0.00       0.31       0.18

> <Gold.PLP.Fitness>
39.7058

> <Gold.PLP.PLP>
-40.1492

> <Gold.PLP.part.hbond>
0.0000

> <Gold.PLP.part.metal>
0.0000

> <Gold.PLP.part.buried>
-4.2488

> <Gold.PLP.part.nonpolar>
-36.8168

> <Gold.PLP.part.repulsive>
0.3262

> <Gold.PLP.ligand.clash>
0.0000

> <Gold.PLP.ligand.torsion>
0.3123

> <Gold.PLP.Chemscore.Hbond>
0.0000

> <Gold.PLP.Chemscore.CHOScore>
0.0000

> <Gold.PLP.Chemscore.Metal>
0.0000

> <Gold.PLP.Chemscore.Internal.Correction>
0.1811

