#       Name:                EN300-736597_i001
#       Creating user name   aseyller
#       Creation time:       Fri Apr 21 16:30:36 2023


#       File generated by GOLD software.
#

@<TRIPOS>MOLECULE
EN300-736597_i001|Sulfonylchlorides|mol2|26|dock16
    21    21     1
SMALL
USER_CHARGES


@<TRIPOS>ATOM
      1 C1          30.3824  40.0577  36.1597 C.3            1 <1>                0.0000
      2 O2          30.2267  38.9000  37.0222 O.3            1 <1>                0.0000
      3 C3          31.2198  37.9872  37.0073 C.2            1 <1>                0.0000
      4 O4          32.2354  38.2037  36.3738 O.2            1 <1>                0.0000
      5 C5          31.0754  36.7361  37.7536 C.2            1 <1>                0.0000
      6 S6          32.1868  35.3752  37.6883 S.3            1 <1>                0.0000
      7 C7          31.2418  34.4899  38.7992 C.2            1 <1>                0.0000
      8 C8          30.1671  35.1915  39.1796 C.2            1 <1>                0.0000
      9 C9          30.0576  36.4407  38.6178 C.2            1 <1>                0.0000
     10 C10         28.9225  37.3864  38.9153 C.3            1 <1>                0.0000
     11 S11         27.5365  36.4609  39.6316 S.o2           1 <1>                0.0000
     12 O12         26.4126  37.3105  39.8174 O.2            1 <1>                0.0000
     13 O13         27.4017  35.1956  38.9990 O.2            1 <1>                0.0000
     14 Cl14        28.1418  36.0182  41.5072 Cl             1 <1>                0.0000
     15 H15         31.2842  40.6015  36.4408 H              1 <1>                0.0000
     16 H16         30.4637  39.7302  35.1232 H              1 <1>                0.0000
     17 H17         29.5161  40.7103  36.2676 H              1 <1>                0.0000
     18 H18         31.4789  33.4959  39.1488 H              1 <1>                0.0000
     19 H19         29.4416  34.8057  39.8805 H              1 <1>                0.0000
     20 H20         29.2574  38.1447  39.6230 H              1 <1>                0.0000
     21 H21         28.5994  37.8681  37.9925 H              1 <1>                0.0000
@<TRIPOS>BOND
    1    1    2 1     
    2    1   15 1     
    3    1   16 1     
    4    1   17 1     
    5    2    3 1     
    6    3    4 2     
    7    3    5 1     
    8    5    6 1     
    9    5    9 2     
   10    6    7 1     
   11    7    8 2     
   12    7   18 1     
   13    8    9 1     
   14    8   19 1     
   15    9   10 1     
   16   10   11 1     
   17   10   20 1     
   18   10   21 1     
   19   11   12 2     
   20   11   13 2     
   21   11   14 1     
@<TRIPOS>SUBSTRUCTURE
      1 ****           1
@<TRIPOS>COMMENT
> <Gold.Version>
2022.2.0

> <Gold.Id.Protein>
1qkm|1qkm_protein|mol2

> <Gold.Protein.RotatedTorsions>
[  496  491  490  487 ] final  -27.51 input  -89.99 | X-H torsion

> <Gold.Protein.ActiveResidues>
 MET295  LEU298  THR299  LEU301  ALA302  GLU305  TRP335  MET336  LEU339  MET340 
 GLY342  LEU343  ARG346  PHE356  ILE373  ILE376  PHE377  LEU380  LYS471  GLY472 
 MET473  HIS475  LEU476  LEU477  ASN478  MET479  VAL484  VAL487 

> <Gold.Protein.RotatedAtoms>
   36.3050   34.5479   41.9404 H   0  0  0  0  0  0  0  0  0  0  0  0  # atno 496  bound_to 491 

> <Gold.Score>
     Score     S(PLP)   S(hbond)     S(cho)   S(metal)  DE(clash)   DE(tors)     intcor
     39.39     -40.34       0.00       0.00       0.00       0.00       0.56       0.17

> <Gold.PLP.Fitness>
39.3900

> <Gold.PLP.PLP>
-40.3359

> <Gold.PLP.part.hbond>
0.0000

> <Gold.PLP.part.metal>
0.0000

> <Gold.PLP.part.buried>
-4.0199

> <Gold.PLP.part.nonpolar>
-36.8182

> <Gold.PLP.part.repulsive>
0.0557

> <Gold.PLP.ligand.clash>
0.0000

> <Gold.PLP.ligand.torsion>
0.5587

> <Gold.PLP.Chemscore.Hbond>
0.0000

> <Gold.PLP.Chemscore.CHOScore>
0.0000

> <Gold.PLP.Chemscore.Metal>
0.0000

> <Gold.PLP.Chemscore.Internal.Correction>
0.1714

