#       Name:                EN300-736597_i001
#       Creating user name   aseyller
#       Creation time:       Fri Apr 21 16:30:39 2023


#       File generated by GOLD software.
#

@<TRIPOS>MOLECULE
EN300-736597_i001|Sulfonylchlorides|mol2|26|dock20
    21    21     1
SMALL
USER_CHARGES


@<TRIPOS>ATOM
      1 C1          29.7390  40.3535  36.2937 C.3            1 <1>                0.0000
      2 O2          30.4025  39.1678  36.8061 O.3            1 <1>                0.0000
      3 C3          29.6200  38.2209  37.3636 C.2            1 <1>                0.0000
      4 O4          28.4137  38.3722  37.3990 O.2            1 <1>                0.0000
      5 C5          30.2229  37.0111  37.9260 C.2            1 <1>                0.0000
      6 S6          31.8937  36.5084  37.7090 S.3            1 <1>                0.0000
      7 C7          31.6458  35.1121  38.6576 C.2            1 <1>                0.0000
      8 C8          30.3829  35.0497  39.0971 C.2            1 <1>                0.0000
      9 C9          29.5783  36.0940  38.7092 C.2            1 <1>                0.0000
     10 C10         28.1271  36.2106  39.0983 C.3            1 <1>                0.0000
     11 S11         27.9852  36.2241  40.9067 S.o2           1 <1>                0.0000
     12 O12         27.8942  34.8981  41.4096 O.2            1 <1>                0.0000
     13 O13         28.8921  37.1612  41.4711 O.2            1 <1>                0.0000
     14 Cl14        26.1623  37.0182  41.2633 Cl             1 <1>                0.0000
     15 H15         29.0293  40.0660  35.5181 H              1 <1>                0.0000
     16 H16         29.2086  40.8521  37.1049 H              1 <1>                0.0000
     17 H17         30.4812  41.0322  35.8737 H              1 <1>                0.0000
     18 H18         32.4063  34.3765  38.8744 H              1 <1>                0.0000
     19 H19         30.0239  34.2402  39.7154 H              1 <1>                0.0000
     20 H20         27.7159  37.1359  38.6947 H              1 <1>                0.0000
     21 H21         27.5738  35.3617  38.6968 H              1 <1>                0.0000
@<TRIPOS>BOND
    1    1    2 1     
    2    1   15 1     
    3    1   16 1     
    4    1   17 1     
    5    2    3 1     
    6    3    4 2     
    7    3    5 1     
    8    5    6 1     
    9    5    9 2     
   10    6    7 1     
   11    7    8 2     
   12    7   18 1     
   13    8    9 1     
   14    8   19 1     
   15    9   10 1     
   16   10   11 1     
   17   10   20 1     
   18   10   21 1     
   19   11   12 2     
   20   11   13 2     
   21   11   14 1     
@<TRIPOS>SUBSTRUCTURE
      1 ****           1
@<TRIPOS>COMMENT
> <Gold.Version>
2022.2.0

> <Gold.Id.Protein>
1qkm|1qkm_protein|mol2

> <Gold.Protein.RotatedTorsions>
[  496  491  490  487 ] final  134.59 input  -89.99 | X-H torsion

> <Gold.Protein.ActiveResidues>
 MET295  LEU298  THR299  LEU301  ALA302  GLU305  TRP335  MET336  LEU339  MET340 
 GLY342  LEU343  ARG346  PHE356  ILE373  ILE376  PHE377  LEU380  LYS471  GLY472 
 MET473  HIS475  LEU476  LEU477  ASN478  MET479  VAL484  VAL487 

> <Gold.Protein.RotatedAtoms>
   37.1826   32.9928   41.4078 H   0  0  0  0  0  0  0  0  0  0  0  0  # atno 496  bound_to 491 

> <Gold.Score>
     Score     S(PLP)   S(hbond)     S(cho)   S(metal)  DE(clash)   DE(tors)     intcor
     37.31     -38.02       0.00       0.00       0.00       0.00       0.44       0.17

> <Gold.PLP.Fitness>
37.3115

> <Gold.PLP.PLP>
-38.0181

> <Gold.PLP.part.hbond>
0.0000

> <Gold.PLP.part.metal>
0.0000

> <Gold.PLP.part.buried>
-2.4349

> <Gold.PLP.part.nonpolar>
-38.1563

> <Gold.PLP.part.repulsive>
1.0733

> <Gold.PLP.ligand.clash>
0.0000

> <Gold.PLP.ligand.torsion>
0.4390

> <Gold.PLP.Chemscore.Hbond>
0.0000

> <Gold.PLP.Chemscore.CHOScore>
0.0000

> <Gold.PLP.Chemscore.Metal>
0.0000

> <Gold.PLP.Chemscore.Internal.Correction>
0.1714

