#       Name:                EN300-736597_i001
#       Creating user name   aseyller
#       Creation time:       Fri Apr 21 16:30:26 2023


#       File generated by GOLD software.
#

@<TRIPOS>MOLECULE
EN300-736597_i001|Sulfonylchlorides|mol2|26|dock4
    21    21     1
SMALL
USER_CHARGES


@<TRIPOS>ATOM
      1 C1          29.7224  40.1369  36.8604 C.3            1 <1>                0.0000
      2 O2          29.8259  38.8838  37.5867 O.3            1 <1>                0.0000
      3 C3          30.7039  37.9740  37.1163 C.2            1 <1>                0.0000
      4 O4          31.3498  38.2139  36.1139 O.2            1 <1>                0.0000
      5 C5          30.8795  36.6982  37.8123 C.2            1 <1>                0.0000
      6 S6          32.0939  35.4857  37.4291 S.3            1 <1>                0.0000
      7 C7          31.5381  34.4664  38.6793 C.2            1 <1>                0.0000
      8 C8          30.5072  35.0220  39.3277 C.2            1 <1>                0.0000
      9 C9          30.1290  36.2608  38.8685 C.2            1 <1>                0.0000
     10 C10         28.9928  37.0530  39.4621 C.3            1 <1>                0.0000
     11 S11         27.6493  35.9269  39.9285 S.o2           1 <1>                0.0000
     12 O12         27.1767  35.2168  38.7919 O.2            1 <1>                0.0000
     13 O13         27.9637  35.2492  41.1372 O.2            1 <1>                0.0000
     14 Cl14        26.1183  37.1474  40.4254 Cl             1 <1>                0.0000
     15 H15         30.6907  40.6374  36.8598 H              1 <1>                0.0000
     16 H16         29.4158  39.9375  35.8336 H              1 <1>                0.0000
     17 H17         28.9832  40.7763  37.3426 H              1 <1>                0.0000
     18 H18         31.9614  33.5014  38.9159 H              1 <1>                0.0000
     19 H19         30.0120  34.5345  40.1544 H              1 <1>                0.0000
     20 H20         29.3440  37.5855  40.3461 H              1 <1>                0.0000
     21 H21         28.6270  37.7703  38.7274 H              1 <1>                0.0000
@<TRIPOS>BOND
    1    1    2 1     
    2    1   15 1     
    3    1   16 1     
    4    1   17 1     
    5    2    3 1     
    6    3    4 2     
    7    3    5 1     
    8    5    6 1     
    9    5    9 2     
   10    6    7 1     
   11    7    8 2     
   12    7   18 1     
   13    8    9 1     
   14    8   19 1     
   15    9   10 1     
   16   10   11 1     
   17   10   20 1     
   18   10   21 1     
   19   11   12 2     
   20   11   13 2     
   21   11   14 1     
@<TRIPOS>SUBSTRUCTURE
      1 ****           1
@<TRIPOS>COMMENT
> <Gold.Version>
2022.2.0

> <Gold.Id.Protein>
1qkm|1qkm_protein|mol2

> <Gold.Protein.RotatedTorsions>
[  496  491  490  487 ] final  -93.89 input  -89.99 | X-H torsion

> <Gold.Protein.ActiveResidues>
 MET295  LEU298  THR299  LEU301  ALA302  GLU305  TRP335  MET336  LEU339  MET340 
 GLY342  LEU343  ARG346  PHE356  ILE373  ILE376  PHE377  LEU380  LYS471  GLY472 
 MET473  HIS475  LEU476  LEU477  ASN478  MET479  VAL484  VAL487 

> <Gold.Protein.RotatedAtoms>
   36.7933   34.6259   41.0339 H   0  0  0  0  0  0  0  0  0  0  0  0  # atno 496  bound_to 491 

> <Gold.Score>
     Score     S(PLP)   S(hbond)     S(cho)   S(metal)  DE(clash)   DE(tors)     intcor
     38.76     -39.55       0.00       0.00       0.00       0.00       0.48       0.18

> <Gold.PLP.Fitness>
38.7643

> <Gold.PLP.PLP>
-39.5486

> <Gold.PLP.part.hbond>
0.0000

> <Gold.PLP.part.metal>
0.0000

> <Gold.PLP.part.buried>
-2.9798

> <Gold.PLP.part.nonpolar>
-37.9649

> <Gold.PLP.part.repulsive>
0.1655

> <Gold.PLP.ligand.clash>
0.0000

> <Gold.PLP.ligand.torsion>
0.4842

> <Gold.PLP.Chemscore.Hbond>
0.0000

> <Gold.PLP.Chemscore.CHOScore>
0.0000

> <Gold.PLP.Chemscore.Metal>
0.0000

> <Gold.PLP.Chemscore.Internal.Correction>
0.1841

