#       Name:                plp ligand
#       Creating user name   aseyller
#       Creation time:       Fri Apr 21 16:30:22 2023


#       File generated by GOLD software.
#

@<TRIPOS>MOLECULE
plp ligand
    21    21     1
SMALL
USER_CHARGES


@<TRIPOS>ATOM
      1 C1           2.1022   3.1002   0.3550 NONPOLAR       1 <1>                0.0000
      2 O2           2.1070   1.6483   0.3757 ACCEPTOR       1 <1>                0.0000
      3 C3           0.9764   1.0265  -0.0178 NONPOLAR       1 <1>                0.0000
      4 O4           0.0130   1.6809  -0.3687 ACCEPTOR       1 <1>                0.0000
      5 C5           0.9090  -0.4359  -0.0226 NONPOLAR       1 <1>                0.0000
      6 S6           2.2097  -1.5186   0.4544 NONPOLAR       1 <1>                0.0000
      7 C7           1.2491  -2.8909   0.1306 NONPOLAR       1 <1>                0.0000
      8 C8           0.0352  -2.5336  -0.3061 NONPOLAR       1 <1>                0.0000
      9 C9          -0.1776  -1.1788  -0.3932 NONPOLAR       1 <1>                0.0000
     10 C10         -1.4752  -0.5724  -0.8618 NONPOLAR       1 <1>                0.0000
     11 S11         -2.5715  -0.3165   0.5606 NONPOLAR       1 <1>                0.0000
     12 O12         -3.0014  -1.5634   1.0895 ACCEPTOR       1 <1>                0.0000
     13 O13         -2.0583   0.7014   1.4090 ACCEPTOR       1 <1>                0.0000
     14 Cl14        -4.2446   0.4920  -0.2316 NONPOLAR       1 <1>                0.0000
     15 H15          1.9148   3.4484  -0.6607                1 <1>                0.0000
     16 H16          1.3189   3.4704   1.0164                1 <1>                0.0000
     17 H17          3.0693   3.4716   0.6938                1 <1>                0.0000
     18 H18          1.5767  -3.9118   0.2605                1 <1>                0.0000
     19 H19         -0.7231  -3.2572  -0.5664                1 <1>                0.0000
     20 H20         -1.2758   0.3848  -1.3437                1 <1>                0.0000
     21 H21         -1.9544  -1.2446  -1.5735                1 <1>                0.0000
@<TRIPOS>BOND
    1    1    2 1     
    2    1   15 1     
    3    1   16 1     
    4    1   17 1     
    5    2    3 1     
    6    3    4 2     
    7    3    5 1     
    8    5    6 1     
    9    5    9 2     
   10    6    7 1     
   11    7    8 2     
   12    7   18 1     
   13    8    9 1     
   14    8   19 1     
   15    9   10 1     
   16   10   11 1     
   17   10   20 1     
   18   10   21 1     
   19   11   12 2     
   20   11   13 2     
   21   11   14 1     
@<TRIPOS>SUBSTRUCTURE
      1 ****           1
@<TRIPOS>SET
DONOR_HYDROGENS      STATIC     ATOMS    <user>   **** ""
0
ATOM$RED        STATIC     ATOMS    COLORGROUP SYSTEM
0
