#       Name:                amine_i004
#       Creating user name   fsindt
#       Creation time:       Fri Aug 11 18:08:26 2023


#       File generated by GOLD software.
#

@<TRIPOS>MOLECULE
amine_i004|amine|mol2|4|dock4
    26    26     1
SMALL
NO_CHARGES


@<TRIPOS>ATOM
      1 C1          -0.3134 -19.4388  11.0920 C.3            1 <1>                0.0000
      2 C2           0.6134 -18.9822  12.2204 C.3            1 <1>                0.0000
      3 N3           0.9570 -17.5668  12.0294 N.4            1 <1>                0.0000
      4 H4           1.5185 -17.4622  11.1977 H              1 <1>                0.0000
      5 C5          -0.2801 -16.7678  11.8982 C.3            1 <1>                0.0000
      6 C6           0.0371 -15.4281  12.6083 C.3            1 <1>                0.0000
      7 C7           0.9086 -15.9039  13.8003 C.3            1 <1>                0.0000
      8 C8           1.7074 -17.0760  13.1998 C.3            1 <1>                0.0000
      9 C9           1.8484 -18.1942  14.2346 C.3            1 <1>                0.0000
     10 N10          2.5983 -17.6957  15.3952 N.3            1 <1>                0.0000
     11 H11         -1.2235 -18.8393  11.1041 H              1 <1>                0.0000
     12 H12          0.1915 -19.3137  10.1341 H              1 <1>                0.0000
     13 H13         -0.5683 -20.4892  11.2337 H              1 <1>                0.0000
     14 H14          0.1086 -19.1075  13.1783 H              1 <1>                0.0000
     15 H15          1.5235 -19.5819  12.2083 H              1 <1>                0.0000
     16 H16         -0.5105 -16.5949  10.8470 H              1 <1>                0.0000
     17 H17         -1.1112 -17.2715  12.3918 H              1 <1>                0.0000
     18 H18          0.6004 -14.7631  11.9537 H              1 <1>                0.0000
     19 H19         -0.8756 -14.9468  12.9596 H              1 <1>                0.0000
     20 H20          1.5775 -15.1091  14.1302 H              1 <1>                0.0000
     21 H21          0.2817 -16.2477  14.6230 H              1 <1>                0.0000
     22 H22          2.6929 -16.7313  12.8867 H              1 <1>                0.0000
     23 H23          0.8586 -18.5202  14.5543 H              1 <1>                0.0000
     24 H24          2.3820 -19.0347  13.7910 H              1 <1>                0.0000
     25 H25          2.5462 -18.3453  16.1656 H              1 <1>                0.0000
     26 H26          3.5577 -17.5021  15.1497 H              1 <1>                0.0000
@<TRIPOS>BOND
    1    1    2 1     
    2    1   11 1     
    3    1   12 1     
    4    1   13 1     
    5    2    3 1     
    6    2   14 1     
    7    2   15 1     
    8    3    4 1     
    9    3    8 1     
   10    3    5 1     
   11    5    6 1     
   12    5   16 1     
   13    5   17 1     
   14    6    7 1     
   15    6   18 1     
   16    6   19 1     
   17    7    8 1     
   18    7   20 1     
   19    7   21 1     
   20    8    9 1     
   21    8   22 1     
   22    9   10 1     
   23    9   23 1     
   24    9   24 1     
   25   10   25 1     
   26   10   26 1     
@<TRIPOS>SUBSTRUCTURE
      1 ****           1
@<TRIPOS>SET
DONOR_HYDROGENS      STATIC     ATOMS    <user>   **** ""
3 4 25 26
ATOM$RED        STATIC     ATOMS    COLORGROUP SYSTEM
3 4 25 26
@<TRIPOS>COMMENT
> <Gold.Version>
2022.2.0

> <Gold.Id.Protein>
3pbl|protein|mol2

> <Gold.Protein.RotatedTorsions>
[ 1303 1298 1297 1294 ] final  -44.50 input  179.99 | X-H torsion
[ 2461 2456 2455 2452 ] final  151.42 input   30.03 | X-H torsion
[ 2515 2510 2509 2506 ] final -142.87 input  -89.99 | X-H torsion
[ 3721 3712 3711 3710 ] final  111.35 input -179.91 | X-H torsion
[ 3841 3832 3831 3830 ] final  121.07 input -179.91 | X-H torsion
[ 3767 3762 3761 3758 ] final  114.69 input  -89.99 | X-H torsion
[ 2472 2467 2466 2463 ] final -167.92 input  -89.97 | X-H torsion

> <Gold.Protein.ActiveResidues>
 VAL82   VAL86   LEU89   PHE106  VAL107  ASP110  VAL111  MET112  CYS114  THR115 
 CYS181  SER182  ILE183  PHE188  VAL189  ILE190  SER192  SER193  SER196  TRP342 
 PHE345  PHE346  HIS349  VAL350  TYR365  THR369  GLY372  TYR373 

> <Gold.Protein.RotatedAtoms>
    3.3906   -9.2060    3.7918 H   0  0  0  0  0  0  0  0  0  0  0  0  # atno 1303 bound_to 1298
    1.8527   -8.9964    8.3212 H   0  0  0  0  0  0  0  0  0  0  0  0  # atno 2461 bound_to 2456
   -5.2189   -5.4261    9.1659 H   0  0  0  0  0  0  0  0  0  0  0  0  # atno 2472 bound_to 2467
    2.5804   -9.2559    5.3459 H   0  0  0  0  0  0  0  0  0  0  0  0  # atno 2515 bound_to 2510
   -2.9441  -17.3467   13.0317 H   0  0  0  0  0  0  0  0  0  0  0  0  # atno 3721 bound_to 3712
   -3.9834  -23.2265   10.8303 H   0  0  0  0  0  0  0  0  0  0  0  0  # atno 3767 bound_to 3762
    3.0864  -20.7152    8.9273 H   0  0  0  0  0  0  0  0  0  0  0  0  # atno 3841 bound_to 3832
    4.7501   -8.6935    4.5370 LP  0  0  0  0  0  0  0  0  0  0  0  0  # atno 4297 bound_to 1298
    4.2217  -10.2220    4.7630 LP  0  0  0  0  0  0  0  0  0  0  0  0  # atno 4298 bound_to 1298
    1.5362   -7.9195    7.1348 LP  0  0  0  0  0  0  0  0  0  0  0  0  # atno 4299 bound_to 2456
    0.3490   -8.8924    7.6923 LP  0  0  0  0  0  0  0  0  0  0  0  0  # atno 4300 bound_to 2456
    2.0329   -7.8258    5.9122 LP  0  0  0  0  0  0  0  0  0  0  0  0  # atno 4301 bound_to 2510
    2.6833   -7.9170    4.4171 LP  0  0  0  0  0  0  0  0  0  0  0  0  # atno 4302 bound_to 2510
   -2.6565  -18.0561   14.4430 LP  0  0  0  0  0  0  0  0  0  0  0  0  # atno 4306 bound_to 3712
   -3.4722  -16.6431   14.3747 LP  0  0  0  0  0  0  0  0  0  0  0  0  # atno 4307 bound_to 3712
    1.5798  -20.6325    9.4744 LP  0  0  0  0  0  0  0  0  0  0  0  0  # atno 4314 bound_to 3832
    2.0842  -19.6436    8.2768 LP  0  0  0  0  0  0  0  0  0  0  0  0  # atno 4315 bound_to 3832
   -5.3684  -22.6517   10.1837 LP  0  0  0  0  0  0  0  0  0  0  0  0  # atno 4318 bound_to 3762
   -4.7752  -21.9971   11.5571 LP  0  0  0  0  0  0  0  0  0  0  0  0  # atno 4319 bound_to 3762
   -4.8373   -4.8501    7.6864 LP  0  0  0  0  0  0  0  0  0  0  0  0  # atno 4320 bound_to 2467
   -3.6609   -5.1173    8.7869 LP  0  0  0  0  0  0  0  0  0  0  0  0  # atno 4321 bound_to 2467

> <Gold.Score>
     Score     S(PLP)   S(hbond)     S(cho)   S(metal)  DE(clash)   DE(tors)     intcor
     32.36     -23.47       2.98       0.00       0.00       0.00       0.02       0.00

> <Gold.PLP.Fitness>
32.3577

> <Gold.PLP.PLP>
-23.4746

> <Gold.PLP.part.hbond>
-2.0000

> <Gold.PLP.part.metal>
0.0000

> <Gold.PLP.part.buried>
-1.9014

> <Gold.PLP.part.nonpolar>
-19.9446

> <Gold.PLP.part.repulsive>
0.0000

> <Gold.PLP.ligand.clash>
0.0000

> <Gold.PLP.ligand.torsion>
0.0234

> <Gold.PLP.Chemscore.Hbond>
2.9760

> <Gold.PLP.Chemscore.CHOScore>
0.0000

> <Gold.PLP.Chemscore.Metal>
0.0000

> <Gold.Chemscore.Hbonds>
donor molecule, donor type, donor heavy atom, donor atom, acceptor molecule, acceptor atom, score
      L1  H     3     4       P1  1227  2.00
      L1  H    10    25       P1  2287  0.98

> <Gold.PLP.Chemscore.Internal.Correction>
0.0019

