#       Name:                amine_i004
#       Creating user name   fsindt
#       Creation time:       Fri Aug 11 18:08:25 2023


#       File generated by GOLD software.
#

@<TRIPOS>MOLECULE
amine_i004|amine|mol2|4|dock2
    26    26     1
SMALL
NO_CHARGES


@<TRIPOS>ATOM
      1 C1           1.4004 -11.7457   6.0137 C.3            1 <1>                0.0000
      2 C2           0.8559 -12.9003   6.8571 C.3            1 <1>                0.0000
      3 N3           1.0107 -12.5809   8.2826 N.4            1 <1>                0.0000
      4 H4           1.9239 -12.1837   8.4451 H              1 <1>                0.0000
      5 C5          -0.0317 -11.6158   8.6923 C.3            1 <1>                0.0000
      6 C6          -0.4074 -12.0289  10.1372 C.3            1 <1>                0.0000
      7 C7          -0.3237 -13.5758  10.0526 C.3            1 <1>                0.0000
      8 C8           0.8529 -13.8071   9.0859 C.3            1 <1>                0.0000
      9 C9           0.5483 -14.9943   8.1699 C.3            1 <1>                0.0000
     10 N10          0.1895 -16.1624   8.9853 N.3            1 <1>                0.0000
     11 H11          0.8475 -10.8351   6.2441 H              1 <1>                0.0000
     12 H12          2.4562 -11.5969   6.2401 H              1 <1>                0.0000
     13 H13          1.2856 -11.9827   4.9559 H              1 <1>                0.0000
     14 H14         -0.1999 -13.0492   6.6307 H              1 <1>                0.0000
     15 H15          1.4088 -13.8109   6.6266 H              1 <1>                0.0000
     16 H16          0.3647 -10.6005   8.6788 H              1 <1>                0.0000
     17 H17         -0.8996 -11.6939   8.0375 H              1 <1>                0.0000
     18 H18          0.3135 -11.6376  10.8551 H              1 <1>                0.0000
     19 H19         -1.4182 -11.7056  10.3854 H              1 <1>                0.0000
     20 H20         -0.1096 -14.0043  11.0317 H              1 <1>                0.0000
     21 H21         -1.2450 -13.9896   9.6427 H              1 <1>                0.0000
     22 H22          1.7655 -13.9966   9.6510 H              1 <1>                0.0000
     23 H23         -0.2830 -14.7414   7.5118 H              1 <1>                0.0000
     24 H24          1.4287 -15.2261   7.5706 H              1 <1>                0.0000
     25 H25          0.9634 -16.8062   9.0549 H              1 <1>                0.0000
     26 H26         -0.1297 -15.8805   9.9000 H              1 <1>                0.0000
@<TRIPOS>BOND
    1    1    2 1     
    2    1   11 1     
    3    1   12 1     
    4    1   13 1     
    5    2    3 1     
    6    2   14 1     
    7    2   15 1     
    8    3    4 1     
    9    3    8 1     
   10    3    5 1     
   11    5    6 1     
   12    5   16 1     
   13    5   17 1     
   14    6    7 1     
   15    6   18 1     
   16    6   19 1     
   17    7    8 1     
   18    7   20 1     
   19    7   21 1     
   20    8    9 1     
   21    8   22 1     
   22    9   10 1     
   23    9   23 1     
   24    9   24 1     
   25   10   25 1     
   26   10   26 1     
@<TRIPOS>SUBSTRUCTURE
      1 ****           1
@<TRIPOS>SET
DONOR_HYDROGENS      STATIC     ATOMS    <user>   **** ""
3 4 25 26
ATOM$RED        STATIC     ATOMS    COLORGROUP SYSTEM
3 4 25 26
@<TRIPOS>COMMENT
> <Gold.Version>
2022.2.0

> <Gold.Id.Protein>
3pbl|protein|mol2

> <Gold.Protein.RotatedTorsions>
[ 1303 1298 1297 1294 ] final  -97.43 input  179.99 | X-H torsion
[ 2461 2456 2455 2452 ] final  -85.68 input   30.03 | X-H torsion
[ 2515 2510 2509 2506 ] final  153.74 input  -89.99 | X-H torsion
[ 3721 3712 3711 3710 ] final  168.85 input -179.91 | X-H torsion
[ 3841 3832 3831 3830 ] final -112.37 input -179.91 | X-H torsion
[ 3767 3762 3761 3758 ] final   52.04 input  -89.99 | X-H torsion
[ 2472 2467 2466 2463 ] final  -46.88 input  -89.97 | X-H torsion

> <Gold.Protein.ActiveResidues>
 VAL82   VAL86   LEU89   PHE106  VAL107  ASP110  VAL111  MET112  CYS114  THR115 
 CYS181  SER182  ILE183  PHE188  VAL189  ILE190  SER192  SER193  SER196  TRP342 
 PHE345  PHE346  HIS349  VAL350  TYR365  THR369  GLY372  TYR373 

> <Gold.Protein.RotatedAtoms>
    3.9239   -8.5686    3.9151 H   0  0  0  0  0  0  0  0  0  0  0  0  # atno 1303 bound_to 1298
    0.3407   -8.8607    7.6578 H   0  0  0  0  0  0  0  0  0  0  0  0  # atno 2461 bound_to 2456
   -3.6569   -5.1120    8.7710 H   0  0  0  0  0  0  0  0  0  0  0  0  # atno 2472 bound_to 2467
    2.1630   -8.6992    6.0507 H   0  0  0  0  0  0  0  0  0  0  0  0  # atno 2515 bound_to 2510
   -3.2906  -16.6847   13.4004 H   0  0  0  0  0  0  0  0  0  0  0  0  # atno 3721 bound_to 3712
   -4.6798  -23.2369   10.1402 H   0  0  0  0  0  0  0  0  0  0  0  0  # atno 3767 bound_to 3762
    2.1218  -19.5812    8.5093 H   0  0  0  0  0  0  0  0  0  0  0  0  # atno 3841 bound_to 3832
    4.8829   -9.4318    4.9158 LP  0  0  0  0  0  0  0  0  0  0  0  0  # atno 4297 bound_to 1298
    3.5554  -10.1213    4.2609 LP  0  0  0  0  0  0  0  0  0  0  0  0  # atno 4298 bound_to 1298
    1.8172   -9.0242    8.3365 LP  0  0  0  0  0  0  0  0  0  0  0  0  # atno 4299 bound_to 2456
    1.5796   -7.9234    7.1539 LP  0  0  0  0  0  0  0  0  0  0  0  0  # atno 4300 bound_to 2456
    2.3066   -7.4146    5.0533 LP  0  0  0  0  0  0  0  0  0  0  0  0  # atno 4301 bound_to 2510
    2.8272   -8.8852    4.5709 LP  0  0  0  0  0  0  0  0  0  0  0  0  # atno 4302 bound_to 2510
   -2.6768  -18.1627   13.5283 LP  0  0  0  0  0  0  0  0  0  0  0  0  # atno 4306 bound_to 3712
   -3.0518  -17.3009   14.8637 LP  0  0  0  0  0  0  0  0  0  0  0  0  # atno 4307 bound_to 3712
    3.0994  -20.8371    8.7168 LP  0  0  0  0  0  0  0  0  0  0  0  0  # atno 4314 bound_to 3832
    1.6789  -20.7489    9.5174 LP  0  0  0  0  0  0  0  0  0  0  0  0  # atno 4315 bound_to 3832
   -5.4180  -22.0067   10.9202 LP  0  0  0  0  0  0  0  0  0  0  0  0  # atno 4318 bound_to 3762
   -4.0296  -22.6317   11.5104 LP  0  0  0  0  0  0  0  0  0  0  0  0  # atno 4319 bound_to 3762
   -5.2064   -5.4282    9.1777 LP  0  0  0  0  0  0  0  0  0  0  0  0  # atno 4320 bound_to 2467
   -4.8535   -4.8534    7.6905 LP  0  0  0  0  0  0  0  0  0  0  0  0  # atno 4321 bound_to 2467

> <Gold.Score>
     Score     S(PLP)   S(hbond)     S(cho)   S(metal)  DE(clash)   DE(tors)     intcor
     33.21     -30.53       1.00       0.00       0.00       0.00       0.16       0.00

> <Gold.PLP.Fitness>
33.2129

> <Gold.PLP.PLP>
-30.5302

> <Gold.PLP.part.hbond>
-1.0000

> <Gold.PLP.part.metal>
0.0000

> <Gold.PLP.part.buried>
-3.6527

> <Gold.PLP.part.nonpolar>
-25.7812

> <Gold.PLP.part.repulsive>
0.0139

> <Gold.PLP.ligand.clash>
0.0000

> <Gold.PLP.ligand.torsion>
0.1596

> <Gold.PLP.Chemscore.Hbond>
1.0000

> <Gold.PLP.Chemscore.CHOScore>
0.0000

> <Gold.PLP.Chemscore.Metal>
0.0000

> <Gold.Chemscore.Hbonds>
donor molecule, donor type, donor heavy atom, donor atom, acceptor molecule, acceptor atom, score
      L1  H    10    25       P1  1227  1.00

> <Gold.PLP.Chemscore.Internal.Correction>
0.0019

