#       Name:                amine_i004
#       Creating user name   fsindt
#       Creation time:       Fri Aug 11 18:08:29 2023


#       File generated by GOLD software.
#

@<TRIPOS>MOLECULE
amine_i004|amine|mol2|4|dock9
    26    26     1
SMALL
NO_CHARGES


@<TRIPOS>ATOM
      1 C1          -0.9233 -12.6163  10.7742 C.3            1 <1>                0.0000
      2 C2          -0.2148 -13.5032   9.7484 C.3            1 <1>                0.0000
      3 N3          -0.4099 -12.9472   8.4027 N.4            1 <1>                0.0000
      4 H4          -1.3960 -12.8389   8.2190 H              1 <1>                0.0000
      5 C5           0.2618 -11.6338   8.3049 C.3            1 <1>                0.0000
      6 C6           0.8136 -11.5784   6.8585 C.3            1 <1>                0.0000
      7 C7           1.2532 -13.0492   6.6343 C.3            1 <1>                0.0000
      8 C8           0.1851 -13.8512   7.4014 C.3            1 <1>                0.0000
      9 C9           0.8345 -15.0475   8.1001 C.3            1 <1>                0.0000
     10 N10          1.4892 -15.9022   7.1006 N.3            1 <1>                0.0000
     11 H11         -0.5073 -11.6097  10.7333 H              1 <1>                0.0000
     12 H12         -1.9889 -12.5787  10.5476 H              1 <1>                0.0000
     13 H13         -0.7787 -13.0288  11.7728 H              1 <1>                0.0000
     14 H14          0.8507 -13.5409   9.9750 H              1 <1>                0.0000
     15 H15         -0.6308 -14.5098   9.7895 H              1 <1>                0.0000
     16 H16         -0.4541 -10.8284   8.4691 H              1 <1>                0.0000
     17 H17          1.0776 -11.5702   9.0249 H              1 <1>                0.0000
     18 H18          0.0330 -11.2924   6.1535 H              1 <1>                0.0000
     19 H19          1.6654 -10.9017   6.7912 H              1 <1>                0.0000
     20 H20          1.2364 -13.2991   5.5734 H              1 <1>                0.0000
     21 H21          2.2424 -13.2244   7.0570 H              1 <1>                0.0000
     22 H22         -0.5862 -14.1954   6.7123 H              1 <1>                0.0000
     23 H23          1.5759 -14.6918   8.8156 H              1 <1>                0.0000
     24 H24          0.0700 -15.6213   8.6240 H              1 <1>                0.0000
     25 H25          1.0723 -15.7781   6.1901 H              1 <1>                0.0000
     26 H26          2.4825 -15.7273   7.0704 H              1 <1>                0.0000
@<TRIPOS>BOND
    1    1    2 1     
    2    1   11 1     
    3    1   12 1     
    4    1   13 1     
    5    2    3 1     
    6    2   14 1     
    7    2   15 1     
    8    3    4 1     
    9    3    8 1     
   10    3    5 1     
   11    5    6 1     
   12    5   16 1     
   13    5   17 1     
   14    6    7 1     
   15    6   18 1     
   16    6   19 1     
   17    7    8 1     
   18    7   20 1     
   19    7   21 1     
   20    8    9 1     
   21    8   22 1     
   22    9   10 1     
   23    9   23 1     
   24    9   24 1     
   25   10   25 1     
   26   10   26 1     
@<TRIPOS>SUBSTRUCTURE
      1 ****           1
@<TRIPOS>SET
DONOR_HYDROGENS      STATIC     ATOMS    <user>   **** ""
3 4 25 26
ATOM$RED        STATIC     ATOMS    COLORGROUP SYSTEM
3 4 25 26
@<TRIPOS>COMMENT
> <Gold.Version>
2022.2.0

> <Gold.Id.Protein>
3pbl|protein|mol2

> <Gold.Protein.RotatedTorsions>
[ 1303 1298 1297 1294 ] final -164.80 input  179.99 | X-H torsion
[ 2461 2456 2455 2452 ] final -172.94 input   30.03 | X-H torsion
[ 2515 2510 2509 2506 ] final   91.48 input  -89.99 | X-H torsion
[ 3721 3712 3711 3710 ] final -122.35 input -179.91 | X-H torsion
[ 3841 3832 3831 3830 ] final  176.57 input -179.91 | X-H torsion
[ 3767 3762 3761 3758 ] final   75.77 input  -89.99 | X-H torsion
[ 2472 2467 2466 2463 ] final -176.24 input  -89.97 | X-H torsion

> <Gold.Protein.ActiveResidues>
 VAL82   VAL86   LEU89   PHE106  VAL107  ASP110  VAL111  MET112  CYS114  THR115 
 CYS181  SER182  ILE183  PHE188  VAL189  ILE190  SER192  SER193  SER196  TRP342 
 PHE345  PHE346  HIS349  VAL350  TYR365  THR369  GLY372  TYR373 

> <Gold.Protein.RotatedAtoms>
    4.7521   -8.6965    4.5402 H   0  0  0  0  0  0  0  0  0  0  0  0  # atno 1303 bound_to 1298
    1.3396   -9.2501    8.3954 H   0  0  0  0  0  0  0  0  0  0  0  0  # atno 2461 bound_to 2456
   -5.3103   -5.4007    9.0675 H   0  0  0  0  0  0  0  0  0  0  0  0  # atno 2472 bound_to 2467
    2.0410   -7.7523    5.8559 H   0  0  0  0  0  0  0  0  0  0  0  0  # atno 2515 bound_to 2510
   -3.2295  -16.6398   14.3762 H   0  0  0  0  0  0  0  0  0  0  0  0  # atno 3721 bound_to 3712
   -4.3597  -23.3304   10.3378 H   0  0  0  0  0  0  0  0  0  0  0  0  # atno 3767 bound_to 3762
    2.9863  -20.0895    8.4291 H   0  0  0  0  0  0  0  0  0  0  0  0  # atno 3841 bound_to 3832
    4.2176  -10.2235    4.7607 LP  0  0  0  0  0  0  0  0  0  0  0  0  # atno 4297 bound_to 1298
    3.3922   -9.2016    3.7906 LP  0  0  0  0  0  0  0  0  0  0  0  0  # atno 4298 bound_to 1298
    1.9876   -8.0824    7.4552 LP  0  0  0  0  0  0  0  0  0  0  0  0  # atno 4299 bound_to 2456
    0.4106   -8.4759    7.2977 LP  0  0  0  0  0  0  0  0  0  0  0  0  # atno 4300 bound_to 2456
    2.7133   -8.0004    4.3888 LP  0  0  0  0  0  0  0  0  0  0  0  0  # atno 4301 bound_to 2510
    2.5426   -9.2466    5.4302 LP  0  0  0  0  0  0  0  0  0  0  0  0  # atno 4302 bound_to 2510
   -3.1712  -17.3885   12.9571 LP  0  0  0  0  0  0  0  0  0  0  0  0  # atno 4306 bound_to 3712
   -2.6279  -18.1269   14.3084 LP  0  0  0  0  0  0  0  0  0  0  0  0  # atno 4307 bound_to 3712
    2.3216  -21.1268    9.4578 LP  0  0  0  0  0  0  0  0  0  0  0  0  # atno 4314 bound_to 3832
    1.4581  -19.8721    8.8690 LP  0  0  0  0  0  0  0  0  0  0  0  0  # atno 4315 bound_to 3832
   -5.5092  -22.1997   10.5967 LP  0  0  0  0  0  0  0  0  0  0  0  0  # atno 4318 bound_to 3762
   -4.2583  -22.3453   11.6363 LP  0  0  0  0  0  0  0  0  0  0  0  0  # atno 4319 bound_to 3762
   -4.7045   -4.8274    7.6638 LP  0  0  0  0  0  0  0  0  0  0  0  0  # atno 4320 bound_to 2467
   -3.7023   -5.1655    8.9079 LP  0  0  0  0  0  0  0  0  0  0  0  0  # atno 4321 bound_to 2467

> <Gold.Score>
     Score     S(PLP)   S(hbond)     S(cho)   S(metal)  DE(clash)   DE(tors)     intcor
     34.05     -31.08       1.00       0.00       0.00       0.00       0.01       0.00

> <Gold.PLP.Fitness>
34.0520

> <Gold.PLP.PLP>
-31.0788

> <Gold.PLP.part.hbond>
-1.6564

> <Gold.PLP.part.metal>
0.0000

> <Gold.PLP.part.buried>
-3.3342

> <Gold.PLP.part.nonpolar>
-27.2986

> <Gold.PLP.part.repulsive>
0.0000

> <Gold.PLP.ligand.clash>
0.0000

> <Gold.PLP.ligand.torsion>
0.0144

> <Gold.PLP.Chemscore.Hbond>
1.0000

> <Gold.PLP.Chemscore.CHOScore>
0.0000

> <Gold.PLP.Chemscore.Metal>
0.0000

> <Gold.Chemscore.Hbonds>
donor molecule, donor type, donor heavy atom, donor atom, acceptor molecule, acceptor atom, score
      L1  H    10    26       P1  1223  1.00

> <Gold.PLP.Chemscore.Internal.Correction>
0.0019

