#       Name:                amine_i004
#       Creating user name   fsindt
#       Creation time:       Fri Aug 11 18:08:32 2023


#       File generated by GOLD software.
#

@<TRIPOS>MOLECULE
amine_i004|amine|mol2|4|dock14
    26    26     1
SMALL
NO_CHARGES


@<TRIPOS>ATOM
      1 C1           0.1305 -15.0713  11.5433 C.3            1 <1>                0.0000
      2 C2          -0.1289 -13.8325  10.6838 C.3            1 <1>                0.0000
      3 N3           0.8019 -13.8213   9.5474 N.4            1 <1>                0.0000
      4 H4           1.7517 -13.8654   9.8850 H              1 <1>                0.0000
      5 C5           0.5310 -14.9808   8.6710 C.3            1 <1>                0.0000
      6 C6           0.7792 -14.4574   7.2343 C.3            1 <1>                0.0000
      7 C7           0.2317 -13.0089   7.3296 C.3            1 <1>                0.0000
      8 C8           0.6112 -12.5882   8.7619 C.3            1 <1>                0.0000
      9 C9          -0.5132 -11.7497   9.3733 C.3            1 <1>                0.0000
     10 N10         -0.6997 -10.5276   8.5797 N.3            1 <1>                0.0000
     11 H11         -0.0190 -15.9683  10.9425 H              1 <1>                0.0000
     12 H12          1.1556 -15.0485  11.9135 H              1 <1>                0.0000
     13 H13         -0.5601 -15.0796  12.3867 H              1 <1>                0.0000
     14 H14         -1.1539 -13.8552  10.3137 H              1 <1>                0.0000
     15 H15          0.0206 -12.9355  11.2848 H              1 <1>                0.0000
     16 H16          1.2148 -15.7980   8.9006 H              1 <1>                0.0000
     17 H17         -0.5029 -15.3074   8.7825 H              1 <1>                0.0000
     18 H18          1.8431 -14.4578   6.9970 H              1 <1>                0.0000
     19 H19          0.2176 -15.0398   6.5041 H              1 <1>                0.0000
     20 H20          0.7166 -12.3646   6.5962 H              1 <1>                0.0000
     21 H21         -0.8504 -12.9967   7.1995 H              1 <1>                0.0000
     22 H22          1.5381 -12.0148   8.7468 H              1 <1>                0.0000
     23 H23         -1.4377 -12.3271   9.3740 H              1 <1>                0.0000
     24 H24         -0.2513 -11.4818  10.3969 H              1 <1>                0.0000
     25 H25         -1.5369 -10.0389   8.8599 H              1 <1>                0.0000
     26 H26          0.1086  -9.9272   8.6452 H              1 <1>                0.0000
@<TRIPOS>BOND
    1    1    2 1     
    2    1   11 1     
    3    1   12 1     
    4    1   13 1     
    5    2    3 1     
    6    2   14 1     
    7    2   15 1     
    8    3    4 1     
    9    3    8 1     
   10    3    5 1     
   11    5    6 1     
   12    5   16 1     
   13    5   17 1     
   14    6    7 1     
   15    6   18 1     
   16    6   19 1     
   17    7    8 1     
   18    7   20 1     
   19    7   21 1     
   20    8    9 1     
   21    8   22 1     
   22    9   10 1     
   23    9   23 1     
   24    9   24 1     
   25   10   25 1     
   26   10   26 1     
@<TRIPOS>SUBSTRUCTURE
      1 ****           1
@<TRIPOS>SET
DONOR_HYDROGENS      STATIC     ATOMS    <user>   **** ""
3 4 25 26
ATOM$RED        STATIC     ATOMS    COLORGROUP SYSTEM
3 4 25 26
@<TRIPOS>COMMENT
> <Gold.Version>
2022.2.0

> <Gold.Id.Protein>
3pbl|protein|mol2

> <Gold.Protein.RotatedTorsions>
[ 1303 1298 1297 1294 ] final    6.34 input  179.99 | X-H torsion
[ 2461 2456 2455 2452 ] final   21.87 input   30.03 | X-H torsion
[ 2515 2510 2509 2506 ] final -147.92 input  -89.99 | X-H torsion
[ 3721 3712 3711 3710 ] final  106.86 input -179.91 | X-H torsion
[ 3841 3832 3831 3830 ] final -148.91 input -179.91 | X-H torsion
[ 3767 3762 3761 3758 ] final  -91.10 input  -89.99 | X-H torsion
[ 2472 2467 2466 2463 ] final    3.49 input  -89.97 | X-H torsion

> <Gold.Protein.ActiveResidues>
 VAL82   VAL86   LEU89   PHE106  VAL107  ASP110  VAL111  MET112  CYS114  THR115 
 CYS181  SER182  ILE183  PHE188  VAL189  ILE190  SER192  SER193  SER196  TRP342 
 PHE345  PHE346  HIS349  VAL350  TYR365  THR369  GLY372  TYR373 

> <Gold.Protein.RotatedAtoms>
    3.4231   -9.9520    4.1039 H   0  0  0  0  0  0  0  0  0  0  0  0  # atno 1303 bound_to 1298
    1.3881   -7.9188    7.0825 H   0  0  0  0  0  0  0  0  0  0  0  0  # atno 2461 bound_to 2456
   -3.8315   -4.8635    8.0283 H   0  0  0  0  0  0  0  0  0  0  0  0  # atno 2472 bound_to 2467
    2.5468   -9.2477    5.4214 H   0  0  0  0  0  0  0  0  0  0  0  0  # atno 2515 bound_to 2510
   -2.9101  -17.4052   13.0372 H   0  0  0  0  0  0  0  0  0  0  0  0  # atno 3721 bound_to 3712
   -5.2130  -21.9183   11.2257 H   0  0  0  0  0  0  0  0  0  0  0  0  # atno 3767 bound_to 3762
    2.6144  -19.7441    8.3501 H   0  0  0  0  0  0  0  0  0  0  0  0  # atno 3841 bound_to 3832
    4.1462   -8.4894    4.0381 LP  0  0  0  0  0  0  0  0  0  0  0  0  # atno 4297 bound_to 1298
    4.7931   -9.6798    4.9497 LP  0  0  0  0  0  0  0  0  0  0  0  0  # atno 4298 bound_to 1298
    0.3918   -8.9916    7.8063 LP  0  0  0  0  0  0  0  0  0  0  0  0  # atno 4299 bound_to 2456
    1.9579   -8.8976    8.2592 LP  0  0  0  0  0  0  0  0  0  0  0  0  # atno 4300 bound_to 2456
    2.0397   -7.7596    5.8623 LP  0  0  0  0  0  0  0  0  0  0  0  0  # atno 4301 bound_to 2510
    2.7102   -7.9914    4.3915 LP  0  0  0  0  0  0  0  0  0  0  0  0  # atno 4302 bound_to 2510
   -2.6744  -18.0154   14.5034 LP  0  0  0  0  0  0  0  0  0  0  0  0  # atno 4306 bound_to 3712
   -3.4935  -16.6163   14.3080 LP  0  0  0  0  0  0  0  0  0  0  0  0  # atno 4307 bound_to 3712
    2.8019  -21.1203    9.1545 LP  0  0  0  0  0  0  0  0  0  0  0  0  # atno 4314 bound_to 3832
    1.4074  -20.2777    9.2636 LP  0  0  0  0  0  0  0  0  0  0  0  0  # atno 4315 bound_to 3832
   -3.9169  -22.9103   11.2810 LP  0  0  0  0  0  0  0  0  0  0  0  0  # atno 4318 bound_to 3762
   -4.9977  -23.0461   10.0644 LP  0  0  0  0  0  0  0  0  0  0  0  0  # atno 4319 bound_to 3762
   -4.4446   -5.4352    9.4296 LP  0  0  0  0  0  0  0  0  0  0  0  0  # atno 4320 bound_to 2467
   -5.4407   -5.0948    8.1811 LP  0  0  0  0  0  0  0  0  0  0  0  0  # atno 4321 bound_to 2467

> <Gold.Score>
     Score     S(PLP)   S(hbond)     S(cho)   S(metal)  DE(clash)   DE(tors)     intcor
     31.14     -28.19       0.99       0.00       0.00       0.00       0.01       0.00

> <Gold.PLP.Fitness>
31.1447

> <Gold.PLP.PLP>
-28.1852

> <Gold.PLP.part.hbond>
-1.0000

> <Gold.PLP.part.metal>
0.0000

> <Gold.PLP.part.buried>
-2.5710

> <Gold.PLP.part.nonpolar>
-24.9155

> <Gold.PLP.part.repulsive>
0.0072

> <Gold.PLP.ligand.clash>
0.0000

> <Gold.PLP.ligand.torsion>
0.0092

> <Gold.PLP.Chemscore.Hbond>
0.9920

> <Gold.PLP.Chemscore.CHOScore>
0.0000

> <Gold.PLP.Chemscore.Metal>
0.0000

> <Gold.Chemscore.Hbonds>
donor molecule, donor type, donor heavy atom, donor atom, acceptor molecule, acceptor atom, score
      L1  H    10    26       P1  2456  0.99

> <Gold.PLP.Chemscore.Internal.Correction>
0.0019

