#       Name:                amine_i004
#       Creating user name   fsindt
#       Creation time:       Fri Aug 11 18:08:24 2023


#       File generated by GOLD software.
#

@<TRIPOS>MOLECULE
amine_i004|amine|mol2|4|dock1
    26    26     1
SMALL
NO_CHARGES


@<TRIPOS>ATOM
      1 C1          -1.2569 -11.5055  10.5017 C.3            1 <1>                0.0000
      2 C2          -0.5677 -12.7715   9.9887 C.3            1 <1>                0.0000
      3 N3          -0.5225 -12.7436   8.5206 N.4            1 <1>                0.0000
      4 H4          -1.4372 -12.5237   8.1561 H              1 <1>                0.0000
      5 C5           0.4501 -11.7245   8.0720 C.3            1 <1>                0.0000
      6 C6           1.1056 -12.3329   6.8072 C.3            1 <1>                0.0000
      7 C7           1.1949 -13.8333   7.1914 C.3            1 <1>                0.0000
      8 C8          -0.0887 -14.0580   8.0126 C.3            1 <1>                0.0000
      9 C9           0.2005 -14.9995   9.1834 C.3            1 <1>                0.0000
     10 N10          0.2734 -16.3824   8.6933 N.3            1 <1>                0.0000
     11 H11         -0.6991 -10.6290  10.1720 H              1 <1>                0.0000
     12 H12         -2.2722 -11.4595  10.1078 H              1 <1>                0.0000
     13 H13         -1.2905 -11.5261  11.5911 H              1 <1>                0.0000
     14 H14          0.4475 -12.8175  10.3826 H              1 <1>                0.0000
     15 H15         -1.1255 -13.6479  10.3185 H              1 <1>                0.0000
     16 H16         -0.0618 -10.7946   7.8243 H              1 <1>                0.0000
     17 H17          1.2011 -11.5515   8.8428 H              1 <1>                0.0000
     18 H18          0.4714 -12.1910   5.9321 H              1 <1>                0.0000
     19 H19          2.0975 -11.9127   6.6410 H              1 <1>                0.0000
     20 H20          1.1980 -14.4600   6.2996 H              1 <1>                0.0000
     21 H21          2.0788 -14.0232   7.8003 H              1 <1>                0.0000
     22 H22         -0.8663 -14.4815   7.3768 H              1 <1>                0.0000
     23 H23          1.1504 -14.7265   9.6431 H              1 <1>                0.0000
     24 H24         -0.5973 -14.9172   9.9216 H              1 <1>                0.0000
     25 H25          1.0938 -16.8496   9.0495 H              1 <1>                0.0000
     26 H26         -0.5643 -16.8937   8.9278 H              1 <1>                0.0000
@<TRIPOS>BOND
    1    1    2 1     
    2    1   11 1     
    3    1   12 1     
    4    1   13 1     
    5    2    3 1     
    6    2   14 1     
    7    2   15 1     
    8    3    4 1     
    9    3    8 1     
   10    3    5 1     
   11    5    6 1     
   12    5   16 1     
   13    5   17 1     
   14    6    7 1     
   15    6   18 1     
   16    6   19 1     
   17    7    8 1     
   18    7   20 1     
   19    7   21 1     
   20    8    9 1     
   21    8   22 1     
   22    9   10 1     
   23    9   23 1     
   24    9   24 1     
   25   10   25 1     
   26   10   26 1     
@<TRIPOS>SUBSTRUCTURE
      1 ****           1
@<TRIPOS>SET
DONOR_HYDROGENS      STATIC     ATOMS    <user>   **** ""
3 4 25 26
ATOM$RED        STATIC     ATOMS    COLORGROUP SYSTEM
3 4 25 26
@<TRIPOS>COMMENT
> <Gold.Version>
2022.2.0

> <Gold.Id.Protein>
3pbl|protein|mol2

> <Gold.Protein.RotatedTorsions>
[ 1303 1298 1297 1294 ] final -148.36 input  179.99 | X-H torsion
[ 2461 2456 2455 2452 ] final  -43.45 input   30.03 | X-H torsion
[ 2515 2510 2509 2506 ] final -123.86 input  -89.99 | X-H torsion
[ 3721 3712 3711 3710 ] final   -6.55 input -179.91 | X-H torsion
[ 3841 3832 3831 3830 ] final  -83.53 input -179.91 | X-H torsion
[ 3767 3762 3761 3758 ] final  -12.34 input  -89.99 | X-H torsion
[ 2472 2467 2466 2463 ] final  -34.63 input  -89.97 | X-H torsion

> <Gold.Protein.ActiveResidues>
 VAL82   VAL86   LEU89   PHE106  VAL107  ASP110  VAL111  MET112  CYS114  THR115 
 CYS181  SER182  ILE183  PHE188  VAL189  ILE190  SER192  SER193  SER196  TRP342 
 PHE345  PHE346  HIS349  VAL350  TYR365  THR369  GLY372  TYR373 

> <Gold.Protein.RotatedAtoms>
    4.5915   -8.5572    4.3746 H   0  0  0  0  0  0  0  0  0  0  0  0  # atno 1303 bound_to 1298
    0.4834   -8.3664    7.2139 H   0  0  0  0  0  0  0  0  0  0  0  0  # atno 2461 bound_to 2456
   -3.6345   -5.0420    8.5837 H   0  0  0  0  0  0  0  0  0  0  0  0  # atno 2472 bound_to 2467
    2.6946   -9.2227    5.0583 H   0  0  0  0  0  0  0  0  0  0  0  0  # atno 2515 bound_to 2510
   -2.5034  -17.9142   14.3303 H   0  0  0  0  0  0  0  0  0  0  0  0  # atno 3721 bound_to 3712
   -5.4192  -22.5640   10.2396 H   0  0  0  0  0  0  0  0  0  0  0  0  # atno 3767 bound_to 3762
    1.7866  -19.6439    8.7730 H   0  0  0  0  0  0  0  0  0  0  0  0  # atno 3841 bound_to 3832
    4.4359  -10.1063    4.8669 LP  0  0  0  0  0  0  0  0  0  0  0  0  # atno 4297 bound_to 1298
    3.3346   -9.4581    3.8501 LP  0  0  0  0  0  0  0  0  0  0  0  0  # atno 4298 bound_to 1298
    1.1882   -9.2785    8.3709 LP  0  0  0  0  0  0  0  0  0  0  0  0  # atno 4299 bound_to 2456
    2.0659   -8.1632    7.5632 LP  0  0  0  0  0  0  0  0  0  0  0  0  # atno 4300 bound_to 2456
    2.0353   -8.1052    6.0494 LP  0  0  0  0  0  0  0  0  0  0  0  0  # atno 4301 bound_to 2510
    2.5667   -7.6707    4.5677 LP  0  0  0  0  0  0  0  0  0  0  0  0  # atno 4302 bound_to 2510
   -3.4765  -16.6376   14.3621 LP  0  0  0  0  0  0  0  0  0  0  0  0  # atno 4306 bound_to 3712
   -3.1609  -17.4065   12.9564 LP  0  0  0  0  0  0  0  0  0  0  0  0  # atno 4307 bound_to 3712
    3.1024  -20.4828    8.3977 LP  0  0  0  0  0  0  0  0  0  0  0  0  # atno 4314 bound_to 3832
    2.0632  -21.0309    9.5318 LP  0  0  0  0  0  0  0  0  0  0  0  0  # atno 4315 bound_to 3832
   -4.6770  -22.0424   11.5975 LP  0  0  0  0  0  0  0  0  0  0  0  0  # atno 4318 bound_to 3762
   -4.0314  -23.2687   10.7337 LP  0  0  0  0  0  0  0  0  0  0  0  0  # atno 4319 bound_to 3762
   -5.0453   -5.4530    9.2957 LP  0  0  0  0  0  0  0  0  0  0  0  0  # atno 4320 bound_to 2467
   -5.0369   -4.8985    7.7597 LP  0  0  0  0  0  0  0  0  0  0  0  0  # atno 4321 bound_to 2467

> <Gold.Score>
     Score     S(PLP)   S(hbond)     S(cho)   S(metal)  DE(clash)   DE(tors)     intcor
     33.71     -31.08       1.00       0.00       0.00       0.00       0.19       0.00

> <Gold.PLP.Fitness>
33.7077

> <Gold.PLP.PLP>
-31.0823

> <Gold.PLP.part.hbond>
-1.0000

> <Gold.PLP.part.metal>
0.0000

> <Gold.PLP.part.buried>
-3.2844

> <Gold.PLP.part.nonpolar>
-26.9730

> <Gold.PLP.part.repulsive>
0.0000

> <Gold.PLP.ligand.clash>
0.0000

> <Gold.PLP.ligand.torsion>
0.1883

> <Gold.PLP.Chemscore.Hbond>
1.0000

> <Gold.PLP.Chemscore.CHOScore>
0.0000

> <Gold.PLP.Chemscore.Metal>
0.0000

> <Gold.Chemscore.Hbonds>
donor molecule, donor type, donor heavy atom, donor atom, acceptor molecule, acceptor atom, score
      L1  H    10    25       P1  1227  1.00

> <Gold.PLP.Chemscore.Internal.Correction>
0.0019

