#       Name:                amine_i004
#       Creating user name   fsindt
#       Creation time:       Fri Aug 11 18:08:28 2023


#       File generated by GOLD software.
#

@<TRIPOS>MOLECULE
amine_i004|amine|mol2|4|dock7
    26    26     1
SMALL
NO_CHARGES


@<TRIPOS>ATOM
      1 C1          -0.1011 -16.1680  11.1978 C.3            1 <1>                0.0000
      2 C2           0.2050 -14.8478  10.4878 C.3            1 <1>                0.0000
      3 N3           0.9396 -15.1192   9.2449 N.4            1 <1>                0.0000
      4 H4           1.7561 -15.6763   9.4469 H              1 <1>                0.0000
      5 C5           0.0650 -15.8434   8.2980 C.3            1 <1>                0.0000
      6 C6           0.4519 -15.2936   6.9025 C.3            1 <1>                0.0000
      7 C7           0.7185 -13.7982   7.2176 C.3            1 <1>                0.0000
      8 C8           1.3486 -13.8468   8.6223 C.3            1 <1>                0.0000
      9 C9           0.8434 -12.6706   9.4604 C.3            1 <1>                0.0000
     10 N10          1.0379 -11.4194   8.7157 N.3            1 <1>                0.0000
     11 H11         -0.7077 -16.7982  10.5476 H              1 <1>                0.0000
     12 H12          0.8325 -16.6796  11.4319 H              1 <1>                0.0000
     13 H13         -0.6461 -15.9666  12.1201 H              1 <1>                0.0000
     14 H14         -0.7285 -14.3361  10.2537 H              1 <1>                0.0000
     15 H15          0.8116 -14.2176  11.1381 H              1 <1>                0.0000
     16 H16          0.2552 -16.9154   8.3498 H              1 <1>                0.0000
     17 H17         -0.9827 -15.6323   8.5119 H              1 <1>                0.0000
     18 H18          1.3521 -15.7801   6.5271 H              1 <1>                0.0000
     19 H19         -0.3722 -15.4032   6.1975 H              1 <1>                0.0000
     20 H20          1.4147 -13.3704   6.4962 H              1 <1>                0.0000
     21 H21         -0.2148 -13.2355   7.2344 H              1 <1>                0.0000
     22 H22          2.4351 -13.8087   8.5430 H              1 <1>                0.0000
     23 H23         -0.2170 -12.8054   9.6736 H              1 <1>                0.0000
     24 H24          1.3996 -12.6263  10.3968 H              1 <1>                0.0000
     25 H25          0.7602 -11.5256   7.7514 H              1 <1>                0.0000
     26 H26          0.5416 -10.6575   9.1530 H              1 <1>                0.0000
@<TRIPOS>BOND
    1    1    2 1     
    2    1   11 1     
    3    1   12 1     
    4    1   13 1     
    5    2    3 1     
    6    2   14 1     
    7    2   15 1     
    8    3    4 1     
    9    3    8 1     
   10    3    5 1     
   11    5    6 1     
   12    5   16 1     
   13    5   17 1     
   14    6    7 1     
   15    6   18 1     
   16    6   19 1     
   17    7    8 1     
   18    7   20 1     
   19    7   21 1     
   20    8    9 1     
   21    8   22 1     
   22    9   10 1     
   23    9   23 1     
   24    9   24 1     
   25   10   25 1     
   26   10   26 1     
@<TRIPOS>SUBSTRUCTURE
      1 ****           1
@<TRIPOS>SET
DONOR_HYDROGENS      STATIC     ATOMS    <user>   **** ""
3 4 25 26
ATOM$RED        STATIC     ATOMS    COLORGROUP SYSTEM
3 4 25 26
@<TRIPOS>COMMENT
> <Gold.Version>
2022.2.0

> <Gold.Id.Protein>
3pbl|protein|mol2

> <Gold.Protein.RotatedTorsions>
[ 1303 1298 1297 1294 ] final  150.76 input  179.99 | X-H torsion
[ 2461 2456 2455 2452 ] final   10.56 input   30.03 | X-H torsion
[ 2515 2510 2509 2506 ] final  118.30 input  -89.99 | X-H torsion
[ 3721 3712 3711 3710 ] final    3.14 input -179.91 | X-H torsion
[ 3841 3832 3831 3830 ] final -140.87 input -179.91 | X-H torsion
[ 3767 3762 3761 3758 ] final -144.42 input  -89.99 | X-H torsion
[ 2472 2467 2466 2463 ] final  133.61 input  -89.97 | X-H torsion

> <Gold.Protein.ActiveResidues>
 VAL82   VAL86   LEU89   PHE106  VAL107  ASP110  VAL111  MET112  CYS114  THR115 
 CYS181  SER182  ILE183  PHE188  VAL189  ILE190  SER192  SER193  SER196  TRP342 
 PHE345  PHE346  HIS349  VAL350  TYR365  THR369  GLY372  TYR373 

> <Gold.Protein.RotatedAtoms>
    4.9050   -9.3032    4.8819 H   0  0  0  0  0  0  0  0  0  0  0  0  # atno 1303 bound_to 1298
    1.2080   -7.9427    7.0435 H   0  0  0  0  0  0  0  0  0  0  0  0  # atno 2461 bound_to 2456
   -5.4894   -5.1542    8.3287 H   0  0  0  0  0  0  0  0  0  0  0  0  # atno 2472 bound_to 2467
    2.0387   -8.1393    6.0592 H   0  0  0  0  0  0  0  0  0  0  0  0  # atno 2515 bound_to 2510
   -2.4809  -17.9739   14.1985 H   0  0  0  0  0  0  0  0  0  0  0  0  # atno 3721 bound_to 3712
   -4.5094  -22.1399   11.6406 H   0  0  0  0  0  0  0  0  0  0  0  0  # atno 3767 bound_to 3762
    2.5084  -19.6867    8.3644 H   0  0  0  0  0  0  0  0  0  0  0  0  # atno 3841 bound_to 3832
    3.6400  -10.1846    4.3442 LP  0  0  0  0  0  0  0  0  0  0  0  0  # atno 4297 bound_to 1298
    3.8168   -8.6335    3.8652 LP  0  0  0  0  0  0  0  0  0  0  0  0  # atno 4298 bound_to 1298
    0.4729   -9.0948    7.9377 LP  0  0  0  0  0  0  0  0  0  0  0  0  # atno 4299 bound_to 2456
    2.0569   -8.7705    8.1667 LP  0  0  0  0  0  0  0  0  0  0  0  0  # atno 4300 bound_to 2456
    2.5523   -7.6469    4.5897 LP  0  0  0  0  0  0  0  0  0  0  0  0  # atno 4301 bound_to 2510
    2.7059   -9.2130    5.0260 LP  0  0  0  0  0  0  0  0  0  0  0  0  # atno 4302 bound_to 2510
   -3.4236  -16.7090   14.4973 LP  0  0  0  0  0  0  0  0  0  0  0  0  # atno 4306 bound_to 3712
   -3.2398  -17.2661   12.9733 LP  0  0  0  0  0  0  0  0  0  0  0  0  # atno 4307 bound_to 3712
    2.8916  -21.0800    9.0630 LP  0  0  0  0  0  0  0  0  0  0  0  0  # atno 4314 bound_to 3832
    1.4402  -20.3841    9.3385 LP  0  0  0  0  0  0  0  0  0  0  0  0  # atno 4315 bound_to 3832
   -4.1361  -23.3174   10.5725 LP  0  0  0  0  0  0  0  0  0  0  0  0  # atno 4318 bound_to 3762
   -5.4818  -22.4176   10.3583 LP  0  0  0  0  0  0  0  0  0  0  0  0  # atno 4319 bound_to 3762
   -3.9442   -4.8324    7.9100 LP  0  0  0  0  0  0  0  0  0  0  0  0  # atno 4320 bound_to 2467
   -4.2835   -5.4069    9.4004 LP  0  0  0  0  0  0  0  0  0  0  0  0  # atno 4321 bound_to 2467

> <Gold.Score>
     Score     S(PLP)   S(hbond)     S(cho)   S(metal)  DE(clash)   DE(tors)     intcor
     33.78     -27.95       1.98       0.00       0.00       0.00       0.06       0.00

> <Gold.PLP.Fitness>
33.7751

> <Gold.PLP.PLP>
-27.9469

> <Gold.PLP.part.hbond>
-1.8533

> <Gold.PLP.part.metal>
0.0000

> <Gold.PLP.part.buried>
-3.3056

> <Gold.PLP.part.nonpolar>
-23.1505

> <Gold.PLP.part.repulsive>
0.0164

> <Gold.PLP.ligand.clash>
0.0000

> <Gold.PLP.ligand.torsion>
0.0606

> <Gold.PLP.Chemscore.Hbond>
1.9825

> <Gold.PLP.Chemscore.CHOScore>
0.0000

> <Gold.PLP.Chemscore.Metal>
0.0000

> <Gold.Chemscore.Hbonds>
donor molecule, donor type, donor heavy atom, donor atom, acceptor molecule, acceptor atom, score
      L1  H     3     4       P1  1227  1.98

> <Gold.PLP.Chemscore.Internal.Correction>
0.0019

