#       Name:                amine_i004
#       Creating user name   fsindt
#       Creation time:       Fri Aug 11 18:08:33 2023


#       File generated by GOLD software.
#

@<TRIPOS>MOLECULE
amine_i004|amine|mol2|4|dock15
    26    26     1
SMALL
NO_CHARGES


@<TRIPOS>ATOM
      1 C1          -0.6986 -14.0873  11.8703 C.3            1 <1>                0.0000
      2 C2          -0.3682 -13.2072  10.6633 C.3            1 <1>                0.0000
      3 N3          -1.5268 -12.3638  10.3404 N.4            1 <1>                0.0000
      4 H4          -2.3393 -12.9437  10.1934 H              1 <1>                0.0000
      5 C5          -1.7820 -11.4224  11.4515 C.3            1 <1>                0.0000
      6 C6          -2.2537 -10.1171  10.7635 C.3            1 <1>                0.0000
      7 C7          -1.3626 -10.0923   9.4939 C.3            1 <1>                0.0000
      8 C8          -1.2476 -11.5825   9.1216 C.3            1 <1>                0.0000
      9 C9           0.1657 -11.8863   8.6204 C.3            1 <1>                0.0000
     10 N10          0.4551 -11.0599   7.4409 N.3            1 <1>                0.0000
     11 H11         -0.9379 -13.4559  12.7259 H              1 <1>                0.0000
     12 H12         -1.5543 -14.7202  11.6351 H              1 <1>                0.0000
     13 H13          0.1611 -14.7132  12.1099 H              1 <1>                0.0000
     14 H14          0.4876 -12.5744  10.8984 H              1 <1>                0.0000
     15 H15         -0.1288 -13.8387   9.8078 H              1 <1>                0.0000
     16 H16         -2.5628 -11.8102  12.1057 H              1 <1>                0.0000
     17 H17         -0.8666 -11.2444  12.0158 H              1 <1>                0.0000
     18 H18         -3.3094 -10.1750  10.4985 H              1 <1>                0.0000
     19 H19         -2.0582  -9.2503  11.3948 H              1 <1>                0.0000
     20 H20         -1.8459  -9.5304   8.6947 H              1 <1>                0.0000
     21 H21         -0.3810  -9.6759   9.7201 H              1 <1>                0.0000
     22 H22         -1.9778 -11.8297   8.3510 H              1 <1>                0.0000
     23 H23          0.8862 -11.6618   9.4070 H              1 <1>                0.0000
     24 H24          0.2374 -12.9403   8.3521 H              1 <1>                0.0000
     25 H25         -0.3839 -10.8822   6.9092 H              1 <1>                0.0000
     26 H26          0.9049 -10.1965   7.7059 H              1 <1>                0.0000
@<TRIPOS>BOND
    1    1    2 1     
    2    1   11 1     
    3    1   12 1     
    4    1   13 1     
    5    2    3 1     
    6    2   14 1     
    7    2   15 1     
    8    3    4 1     
    9    3    8 1     
   10    3    5 1     
   11    5    6 1     
   12    5   16 1     
   13    5   17 1     
   14    6    7 1     
   15    6   18 1     
   16    6   19 1     
   17    7    8 1     
   18    7   20 1     
   19    7   21 1     
   20    8    9 1     
   21    8   22 1     
   22    9   10 1     
   23    9   23 1     
   24    9   24 1     
   25   10   25 1     
   26   10   26 1     
@<TRIPOS>SUBSTRUCTURE
      1 ****           1
@<TRIPOS>SET
DONOR_HYDROGENS      STATIC     ATOMS    <user>   **** ""
3 4 25 26
ATOM$RED        STATIC     ATOMS    COLORGROUP SYSTEM
3 4 25 26
@<TRIPOS>COMMENT
> <Gold.Version>
2022.2.0

> <Gold.Id.Protein>
3pbl|protein|mol2

> <Gold.Protein.RotatedTorsions>
[ 1303 1298 1297 1294 ] final  109.98 input  179.99 | X-H torsion
[ 2461 2456 2455 2452 ] final   23.13 input   30.03 | X-H torsion
[ 2515 2510 2509 2506 ] final   86.84 input  -89.99 | X-H torsion
[ 3721 3712 3711 3710 ] final  150.58 input -179.91 | X-H torsion
[ 3841 3832 3831 3830 ] final  131.08 input -179.91 | X-H torsion
[ 3767 3762 3761 3758 ] final  -21.55 input  -89.99 | X-H torsion
[ 2472 2467 2466 2463 ] final  -28.83 input  -89.97 | X-H torsion

> <Gold.Protein.ActiveResidues>
 VAL82   VAL86   LEU89   PHE106  VAL107  ASP110  VAL111  MET112  CYS114  THR115 
 CYS181  SER182  ILE183  PHE188  VAL189  ILE190  SER192  SER193  SER196  TRP342 
 PHE345  PHE346  HIS349  VAL350  TYR365  THR369  GLY372  TYR373 

> <Gold.Protein.RotatedAtoms>
    4.6479   -9.9051    4.9368 H   0  0  0  0  0  0  0  0  0  0  0  0  # atno 1303 bound_to 1298
    1.4079   -7.9178    7.0884 H   0  0  0  0  0  0  0  0  0  0  0  0  # atno 2461 bound_to 2456
   -3.6388   -5.0101    8.4939 H   0  0  0  0  0  0  0  0  0  0  0  0  # atno 2472 bound_to 2467
    2.0503   -7.6960    5.8052 H   0  0  0  0  0  0  0  0  0  0  0  0  # atno 2515 bound_to 2510
   -3.2088  -16.8581   13.2033 H   0  0  0  0  0  0  0  0  0  0  0  0  # atno 3721 bound_to 3712
   -5.4697  -22.4515   10.3274 H   0  0  0  0  0  0  0  0  0  0  0  0  # atno 3767 bound_to 3762
    3.1217  -20.6173    8.8179 H   0  0  0  0  0  0  0  0  0  0  0  0  # atno 3841 bound_to 3832
    3.3462   -9.7352    3.9657 LP  0  0  0  0  0  0  0  0  0  0  0  0  # atno 4297 bound_to 1298
    4.3678   -8.4809    4.1889 LP  0  0  0  0  0  0  0  0  0  0  0  0  # atno 4298 bound_to 1298
    0.3848   -8.9791    7.7914 LP  0  0  0  0  0  0  0  0  0  0  0  0  # atno 4299 bound_to 2456
    1.9451   -8.9111    8.2682 LP  0  0  0  0  0  0  0  0  0  0  0  0  # atno 4300 bound_to 2456
    2.7358   -8.0714    4.3717 LP  0  0  0  0  0  0  0  0  0  0  0  0  # atno 4301 bound_to 2510
    2.5108   -9.2320    5.4981 LP  0  0  0  0  0  0  0  0  0  0  0  0  # atno 4302 bound_to 2510
   -2.6193  -18.2174   13.8218 LP  0  0  0  0  0  0  0  0  0  0  0  0  # atno 4306 bound_to 3712
   -3.2038  -17.0459   14.7978 LP  0  0  0  0  0  0  0  0  0  0  0  0  # atno 4307 bound_to 3712
    1.6845  -20.7547    9.5191 LP  0  0  0  0  0  0  0  0  0  0  0  0  # atno 4314 bound_to 3832
    1.9388  -19.6344    8.3586 LP  0  0  0  0  0  0  0  0  0  0  0  0  # atno 4315 bound_to 3832
   -4.5492  -22.1150   11.6336 LP  0  0  0  0  0  0  0  0  0  0  0  0  # atno 4318 bound_to 3762
   -4.1087  -23.3086   10.6099 LP  0  0  0  0  0  0  0  0  0  0  0  0  # atno 4319 bound_to 3762
   -4.9611   -5.4597    9.3399 LP  0  0  0  0  0  0  0  0  0  0  0  0  # atno 4320 bound_to 2467
   -5.1169   -4.9237    7.8053 LP  0  0  0  0  0  0  0  0  0  0  0  0  # atno 4321 bound_to 2467

> <Gold.Score>
     Score     S(PLP)   S(hbond)     S(cho)   S(metal)  DE(clash)   DE(tors)     intcor
     32.75     -29.77       1.00       0.00       0.00       0.00       0.01       0.00

> <Gold.PLP.Fitness>
32.7502

> <Gold.PLP.PLP>
-29.7728

> <Gold.PLP.part.hbond>
-1.0000

> <Gold.PLP.part.metal>
0.0000

> <Gold.PLP.part.buried>
-2.7620

> <Gold.PLP.part.nonpolar>
-27.0711

> <Gold.PLP.part.repulsive>
0.0347

> <Gold.PLP.ligand.clash>
0.0000

> <Gold.PLP.ligand.torsion>
0.0120

> <Gold.PLP.Chemscore.Hbond>
1.0000

> <Gold.PLP.Chemscore.CHOScore>
0.0000

> <Gold.PLP.Chemscore.Metal>
0.0000

> <Gold.Chemscore.Hbonds>
donor molecule, donor type, donor heavy atom, donor atom, acceptor molecule, acceptor atom, score
      L1  H    10    26       P1  2456  1.00

> <Gold.PLP.Chemscore.Internal.Correction>
0.0013

