#       Name:                amine_i004
#       Creating user name   fsindt
#       Creation time:       Fri Aug 11 18:08:36 2023


#       File generated by GOLD software.
#

@<TRIPOS>MOLECULE
amine_i004|amine|mol2|4|dock19
    26    26     1
SMALL
NO_CHARGES


@<TRIPOS>ATOM
      1 C1          -0.7003 -18.2974   9.9123 C.3            1 <1>                0.0000
      2 C2          -0.2506 -18.8661  11.2596 C.3            1 <1>                0.0000
      3 N3           0.9306 -18.1312  11.7315 N.4            1 <1>                0.0000
      4 H4           1.5664 -17.9793  10.9630 H              1 <1>                0.0000
      5 C5           0.5140 -16.8303  12.2971 C.3            1 <1>                0.0000
      6 C6           1.4720 -16.5930  13.4910 C.3            1 <1>                0.0000
      7 C7           1.6304 -18.0291  14.0561 C.3            1 <1>                0.0000
      8 C8           1.6064 -18.9049  12.7892 C.3            1 <1>                0.0000
      9 C9           0.8341 -20.1968  13.0640 C.3            1 <1>                0.0000
     10 N10          1.4004 -20.8643  14.2437 N.3            1 <1>                0.0000
     11 H11         -0.9509 -17.2430  10.0283 H              1 <1>                0.0000
     12 H12          0.1063 -18.4015   9.1865 H              1 <1>                0.0000
     13 H13         -1.5767 -18.8427   9.5620 H              1 <1>                0.0000
     14 H14         -1.0571 -18.7621  11.9853 H              1 <1>                0.0000
     15 H15         -0.0000 -19.9206  11.1434 H              1 <1>                0.0000
     16 H16          0.6287 -16.0399  11.5555 H              1 <1>                0.0000
     17 H17         -0.5184 -16.8801  12.6432 H              1 <1>                0.0000
     18 H18          2.4298 -16.1995  13.1507 H              1 <1>                0.0000
     19 H19          1.0196 -15.9307  14.2290 H              1 <1>                0.0000
     20 H20          2.5799 -18.1343  14.5808 H              1 <1>                0.0000
     21 H21          0.7965 -18.2792  14.7119 H              1 <1>                0.0000
     22 H22          2.6254 -19.1381  12.4802 H              1 <1>                0.0000
     23 H23         -0.2142 -19.9612  13.2480 H              1 <1>                0.0000
     24 H24          0.9119 -20.8573  12.2004 H              1 <1>                0.0000
     25 H25          1.1121 -20.4028  15.0935 H              1 <1>                0.0000
     26 H26          1.1508 -21.8418  14.2606 H              1 <1>                0.0000
@<TRIPOS>BOND
    1    1    2 1     
    2    1   11 1     
    3    1   12 1     
    4    1   13 1     
    5    2    3 1     
    6    2   14 1     
    7    2   15 1     
    8    3    4 1     
    9    3    8 1     
   10    3    5 1     
   11    5    6 1     
   12    5   16 1     
   13    5   17 1     
   14    6    7 1     
   15    6   18 1     
   16    6   19 1     
   17    7    8 1     
   18    7   20 1     
   19    7   21 1     
   20    8    9 1     
   21    8   22 1     
   22    9   10 1     
   23    9   23 1     
   24    9   24 1     
   25   10   25 1     
   26   10   26 1     
@<TRIPOS>SUBSTRUCTURE
      1 ****           1
@<TRIPOS>SET
DONOR_HYDROGENS      STATIC     ATOMS    <user>   **** ""
3 4 25 26
ATOM$RED        STATIC     ATOMS    COLORGROUP SYSTEM
3 4 25 26
@<TRIPOS>COMMENT
> <Gold.Version>
2022.2.0

> <Gold.Id.Protein>
3pbl|protein|mol2

> <Gold.Protein.RotatedTorsions>
[ 1303 1298 1297 1294 ] final   84.95 input  179.99 | X-H torsion
[ 2461 2456 2455 2452 ] final  137.79 input   30.03 | X-H torsion
[ 2515 2510 2509 2506 ] final  107.25 input  -89.99 | X-H torsion
[ 3721 3712 3711 3710 ] final   79.61 input -179.91 | X-H torsion
[ 3841 3832 3831 3830 ] final  -44.19 input -179.91 | X-H torsion
[ 3767 3762 3761 3758 ] final  120.21 input  -89.99 | X-H torsion
[ 2472 2467 2466 2463 ] final  -59.91 input  -89.97 | X-H torsion

> <Gold.Protein.ActiveResidues>
 VAL82   VAL86   LEU89   PHE106  VAL107  ASP110  VAL111  MET112  CYS114  THR115 
 CYS181  SER182  ILE183  PHE188  VAL189  ILE190  SER192  SER193  SER196  TRP342 
 PHE345  PHE346  HIS349  VAL350  TYR365  THR369  GLY372  TYR373 

> <Gold.Protein.RotatedAtoms>
    4.3489  -10.1615    4.8285 H   0  0  0  0  0  0  0  0  0  0  0  0  # atno 1303 bound_to 1298
    1.9973   -8.8528    8.2282 H   0  0  0  0  0  0  0  0  0  0  0  0  # atno 2461 bound_to 2456
   -3.7264   -5.1873    8.9588 H   0  0  0  0  0  0  0  0  0  0  0  0  # atno 2472 bound_to 2467
    2.0290   -7.9695    5.9954 H   0  0  0  0  0  0  0  0  0  0  0  0  # atno 2515 bound_to 2510
   -2.7105  -17.7313   13.1798 H   0  0  0  0  0  0  0  0  0  0  0  0  # atno 3721 bound_to 3712
   -3.9538  -23.1874   10.9067 H   0  0  0  0  0  0  0  0  0  0  0  0  # atno 3767 bound_to 3762
    1.5644  -19.9696    9.2022 H   0  0  0  0  0  0  0  0  0  0  0  0  # atno 3841 bound_to 3832
    3.3505   -9.3533    3.8205 LP  0  0  0  0  0  0  0  0  0  0  0  0  # atno 4297 bound_to 1298
    4.6627   -8.6063    4.4424 LP  0  0  0  0  0  0  0  0  0  0  0  0  # atno 4298 bound_to 1298
    1.3234   -7.9246    7.0656 LP  0  0  0  0  0  0  0  0  0  0  0  0  # atno 4299 bound_to 2456
    0.4174   -9.0308    7.8544 LP  0  0  0  0  0  0  0  0  0  0  0  0  # atno 4300 bound_to 2456
    2.6240   -7.7786    4.4870 LP  0  0  0  0  0  0  0  0  0  0  0  0  # atno 4301 bound_to 2510
    2.6439   -9.2512    5.1924 LP  0  0  0  0  0  0  0  0  0  0  0  0  # atno 4302 bound_to 2510
   -2.8326  -17.6964   14.7803 LP  0  0  0  0  0  0  0  0  0  0  0  0  # atno 4306 bound_to 3712
   -3.5657  -16.5588   13.8665 LP  0  0  0  0  0  0  0  0  0  0  0  0  # atno 4307 bound_to 3712
    2.7776  -19.9833    8.1515 LP  0  0  0  0  0  0  0  0  0  0  0  0  # atno 4314 bound_to 3832
    2.6446  -21.1541    9.2821 LP  0  0  0  0  0  0  0  0  0  0  0  0  # atno 4315 bound_to 3832
   -5.3214  -22.7198   10.1465 LP  0  0  0  0  0  0  0  0  0  0  0  0  # atno 4318 bound_to 3762
   -4.8518  -21.9680   11.5179 LP  0  0  0  0  0  0  0  0  0  0  0  0  # atno 4319 bound_to 3762
   -5.3458   -5.3870    9.0207 LP  0  0  0  0  0  0  0  0  0  0  0  0  # atno 4320 bound_to 2467
   -4.6446   -4.8193    7.6596 LP  0  0  0  0  0  0  0  0  0  0  0  0  # atno 4321 bound_to 2467

> <Gold.Score>
     Score     S(PLP)   S(hbond)     S(cho)   S(metal)  DE(clash)   DE(tors)     intcor
     28.40     -22.74       2.00       0.00       0.00       0.00       0.17       0.00

> <Gold.PLP.Fitness>
28.3953

> <Gold.PLP.PLP>
-22.7394

> <Gold.PLP.part.hbond>
-1.0000

> <Gold.PLP.part.metal>
0.0000

> <Gold.PLP.part.buried>
-2.8793

> <Gold.PLP.part.nonpolar>
-18.7374

> <Gold.PLP.part.repulsive>
0.0000

> <Gold.PLP.ligand.clash>
0.0000

> <Gold.PLP.ligand.torsion>
0.1727

> <Gold.PLP.Chemscore.Hbond>
2.0000

> <Gold.PLP.Chemscore.CHOScore>
0.0000

> <Gold.PLP.Chemscore.Metal>
0.0000

> <Gold.Chemscore.Hbonds>
donor molecule, donor type, donor heavy atom, donor atom, acceptor molecule, acceptor atom, score
      L1  H     3     4       P1  1227  2.00

> <Gold.PLP.Chemscore.Internal.Correction>
0.0013

