#       Name:                amine_i004
#       Creating user name   fsindt
#       Creation time:       Fri Aug 11 18:08:29 2023


#       File generated by GOLD software.
#

@<TRIPOS>MOLECULE
amine_i004|amine|mol2|4|dock8
    26    26     1
SMALL
NO_CHARGES


@<TRIPOS>ATOM
      1 C1           1.1147 -11.7130   6.2931 C.3            1 <1>                0.0000
      2 C2           0.7079 -12.7213   7.3696 C.3            1 <1>                0.0000
      3 N3           0.5368 -12.0259   8.6522 N.4            1 <1>                0.0000
      4 H4           1.2528 -11.3226   8.7562 H              1 <1>                0.0000
      5 C5          -0.7966 -11.3890   8.6989 C.3            1 <1>                0.0000
      6 C6          -1.2515 -11.5311  10.1728 C.3            1 <1>                0.0000
      7 C7          -0.6976 -12.9335  10.5379 C.3            1 <1>                0.0000
      8 C8           0.6296 -12.9959   9.7588 C.3            1 <1>                0.0000
      9 C9           0.8397 -14.4048   9.2003 C.3            1 <1>                0.0000
     10 N10          0.9240 -15.3638  10.3099 N.3            1 <1>                0.0000
     11 H11          0.3387 -10.9540   6.1942 H              1 <1>                0.0000
     12 H12          2.0538 -11.2377   6.5768 H              1 <1>                0.0000
     13 H13          1.2417 -12.2289   5.3414 H              1 <1>                0.0000
     14 H14         -0.2310 -13.1966   7.0859 H              1 <1>                0.0000
     15 H15          1.4840 -13.4802   7.4684 H              1 <1>                0.0000
     16 H16         -0.7244 -10.3368   8.4237 H              1 <1>                0.0000
     17 H17         -1.4887 -11.9087   8.0364 H              1 <1>                0.0000
     18 H18         -0.8012 -10.7589  10.7966 H              1 <1>                0.0000
     19 H19         -2.3385 -11.5084  10.2499 H              1 <1>                0.0000
     20 H20         -0.5201 -13.0105  11.6106 H              1 <1>                0.0000
     21 H21         -1.3778 -13.7160  10.2016 H              1 <1>                0.0000
     22 H22          1.4577 -12.7274  10.4147 H              1 <1>                0.0000
     23 H23          0.0016 -14.6685   8.5550 H              1 <1>                0.0000
     24 H24          1.7647 -14.4332   8.6244 H              1 <1>                0.0000
     25 H25          0.0058 -15.5939  10.6595 H              1 <1>                0.0000
     26 H26          1.4239 -16.1950  10.0321 H              1 <1>                0.0000
@<TRIPOS>BOND
    1    1    2 1     
    2    1   11 1     
    3    1   12 1     
    4    1   13 1     
    5    2    3 1     
    6    2   14 1     
    7    2   15 1     
    8    3    4 1     
    9    3    8 1     
   10    3    5 1     
   11    5    6 1     
   12    5   16 1     
   13    5   17 1     
   14    6    7 1     
   15    6   18 1     
   16    6   19 1     
   17    7    8 1     
   18    7   20 1     
   19    7   21 1     
   20    8    9 1     
   21    8   22 1     
   22    9   10 1     
   23    9   23 1     
   24    9   24 1     
   25   10   25 1     
   26   10   26 1     
@<TRIPOS>SUBSTRUCTURE
      1 ****           1
@<TRIPOS>SET
DONOR_HYDROGENS      STATIC     ATOMS    <user>   **** ""
3 4 25 26
ATOM$RED        STATIC     ATOMS    COLORGROUP SYSTEM
3 4 25 26
@<TRIPOS>COMMENT
> <Gold.Version>
2022.2.0

> <Gold.Id.Protein>
3pbl|protein|mol2

> <Gold.Protein.RotatedTorsions>
[ 1303 1298 1297 1294 ] final  -63.11 input  179.99 | X-H torsion
[ 2461 2456 2455 2452 ] final  -97.04 input   30.03 | X-H torsion
[ 2515 2510 2509 2506 ] final  -15.04 input  -89.99 | X-H torsion
[ 3721 3712 3711 3710 ] final   73.09 input -179.91 | X-H torsion
[ 3841 3832 3831 3830 ] final  -23.90 input -179.91 | X-H torsion
[ 3767 3762 3761 3758 ] final -144.47 input  -89.99 | X-H torsion
[ 2472 2467 2466 2463 ] final   37.61 input  -89.97 | X-H torsion

> <Gold.Protein.ActiveResidues>
 VAL82   VAL86   LEU89   PHE106  VAL107  ASP110  VAL111  MET112  CYS114  THR115 
 CYS181  SER182  ILE183  PHE188  VAL189  ILE190  SER192  SER193  SER196  TRP342 
 PHE345  PHE346  HIS349  VAL350  TYR365  THR369  GLY372  TYR373 

> <Gold.Protein.RotatedAtoms>
    3.5260   -8.9332    3.7801 H   0  0  0  0  0  0  0  0  0  0  0  0  # atno 1303 bound_to 1298
    0.3854   -8.9808    7.7934 H   0  0  0  0  0  0  0  0  0  0  0  0  # atno 2461 bound_to 2456
   -4.2815   -4.7994    7.7131 H   0  0  0  0  0  0  0  0  0  0  0  0  # atno 2472 bound_to 2467
    2.6380   -7.8086    4.4695 H   0  0  0  0  0  0  0  0  0  0  0  0  # atno 2515 bound_to 2510
   -2.6677  -17.7969   13.2394 H   0  0  0  0  0  0  0  0  0  0  0  0  # atno 3721 bound_to 3712
   -4.5088  -22.1403   11.6407 H   0  0  0  0  0  0  0  0  0  0  0  0  # atno 3767 bound_to 3762
    1.5885  -20.2033    9.3965 H   0  0  0  0  0  0  0  0  0  0  0  0  # atno 3841 bound_to 3832
    4.8703   -8.9162    4.7069 LP  0  0  0  0  0  0  0  0  0  0  0  0  # atno 4297 bound_to 1298
    3.9661  -10.2721    4.6048 LP  0  0  0  0  0  0  0  0  0  0  0  0  # atno 4298 bound_to 1298
    1.9468   -8.9093    8.2670 LP  0  0  0  0  0  0  0  0  0  0  0  0  # atno 4299 bound_to 2456
    1.4052   -7.9181    7.0877 LP  0  0  0  0  0  0  0  0  0  0  0  0  # atno 4300 bound_to 2456
    2.6301   -9.2549    5.2272 LP  0  0  0  0  0  0  0  0  0  0  0  0  # atno 4301 bound_to 2510
    2.0285   -7.9359    5.9789 LP  0  0  0  0  0  0  0  0  0  0  0  0  # atno 4302 bound_to 2510
   -2.8805  -17.6068   14.8194 LP  0  0  0  0  0  0  0  0  0  0  0  0  # atno 4306 bound_to 3712
   -3.5674  -16.5726   13.7586 LP  0  0  0  0  0  0  0  0  0  0  0  0  # atno 4307 bound_to 3712
    2.5036  -19.7870    8.1454 LP  0  0  0  0  0  0  0  0  0  0  0  0  # atno 4314 bound_to 3832
    2.8908  -21.0805    9.0638 LP  0  0  0  0  0  0  0  0  0  0  0  0  # atno 4315 bound_to 3832
   -4.1365  -23.3176   10.5720 LP  0  0  0  0  0  0  0  0  0  0  0  0  # atno 4318 bound_to 3762
   -5.4819  -22.4170   10.3587 LP  0  0  0  0  0  0  0  0  0  0  0  0  # atno 4319 bound_to 3762
   -3.9455   -5.3077    9.2281 LP  0  0  0  0  0  0  0  0  0  0  0  0  # atno 4320 bound_to 2467
   -5.4898   -5.2864    8.6977 LP  0  0  0  0  0  0  0  0  0  0  0  0  # atno 4321 bound_to 2467

> <Gold.Score>
     Score     S(PLP)   S(hbond)     S(cho)   S(metal)  DE(clash)   DE(tors)     intcor
     32.20     -29.60       1.00       0.00       0.00       0.00       0.20       0.00

> <Gold.PLP.Fitness>
32.1971

> <Gold.PLP.PLP>
-29.6000

> <Gold.PLP.part.hbond>
-1.0000

> <Gold.PLP.part.metal>
0.0000

> <Gold.PLP.part.buried>
-3.4091

> <Gold.PLP.part.nonpolar>
-25.2660

> <Gold.PLP.part.repulsive>
0.0000

> <Gold.PLP.ligand.clash>
0.0000

> <Gold.PLP.ligand.torsion>
0.2024

> <Gold.PLP.Chemscore.Hbond>
1.0000

> <Gold.PLP.Chemscore.CHOScore>
0.0000

> <Gold.PLP.Chemscore.Metal>
0.0000

> <Gold.Chemscore.Hbonds>
donor molecule, donor type, donor heavy atom, donor atom, acceptor molecule, acceptor atom, score
      L1  H    10    26       P1  1227  1.00

> <Gold.PLP.Chemscore.Internal.Correction>
0.0019

