#       Name:                amine_i004
#       Creating user name   fsindt
#       Creation time:       Fri Aug 11 18:08:26 2023


#       File generated by GOLD software.
#

@<TRIPOS>MOLECULE
amine_i004|amine|mol2|4|dock3
    26    26     1
SMALL
NO_CHARGES


@<TRIPOS>ATOM
      1 C1          -0.3971 -14.3020  11.4132 C.3            1 <1>                0.0000
      2 C2          -0.1664 -13.4877  10.1387 C.3            1 <1>                0.0000
      3 N3           0.8305 -14.1649   9.2986 N.4            1 <1>                0.0000
      4 H4           1.5869 -14.5034   9.8741 H              1 <1>                0.0000
      5 C5           0.1976 -15.2986   8.5915 C.3            1 <1>                0.0000
      6 C6           0.8811 -15.3292   7.2017 C.3            1 <1>                0.0000
      7 C7           1.0547 -13.8165   6.9045 C.3            1 <1>                0.0000
      8 C8           1.3550 -13.2223   8.2935 C.3            1 <1>                0.0000
      9 C9           0.6627 -11.8658   8.4401 C.3            1 <1>                0.0000
     10 N10          0.9001 -11.0619   7.2337 N.3            1 <1>                0.0000
     11 H11         -0.7593 -15.2956  11.1491 H              1 <1>                0.0000
     12 H12          0.5404 -14.3911  11.9622 H              1 <1>                0.0000
     13 H13         -1.1368 -13.7995  12.0366 H              1 <1>                0.0000
     14 H14         -1.1038 -13.3986   9.5897 H              1 <1>                0.0000
     15 H15          0.1958 -12.4941  10.4029 H              1 <1>                0.0000
     16 H16          0.3827 -16.2302   9.1261 H              1 <1>                0.0000
     17 H17         -0.8736 -15.1283   8.4838 H              1 <1>                0.0000
     18 H18          1.8476 -15.8305   7.2530 H              1 <1>                0.0000
     19 H19          0.2369 -15.8014   6.4601 H              1 <1>                0.0000
     20 H20          1.8902 -13.6507   6.2243 H              1 <1>                0.0000
     21 H21          0.1354 -13.3958   6.4972 H              1 <1>                0.0000
     22 H22          2.4312 -13.1077   8.4231 H              1 <1>                0.0000
     23 H23         -0.4088 -12.0170   8.5710 H              1 <1>                0.0000
     24 H24          1.0649 -11.3446   9.3089 H              1 <1>                0.0000
     25 H25          1.0363 -10.0899   7.4679 H              1 <1>                0.0000
     26 H26          1.6835 -11.4205   6.7087 H              1 <1>                0.0000
@<TRIPOS>BOND
    1    1    2 1     
    2    1   11 1     
    3    1   12 1     
    4    1   13 1     
    5    2    3 1     
    6    2   14 1     
    7    2   15 1     
    8    3    4 1     
    9    3    8 1     
   10    3    5 1     
   11    5    6 1     
   12    5   16 1     
   13    5   17 1     
   14    6    7 1     
   15    6   18 1     
   16    6   19 1     
   17    7    8 1     
   18    7   20 1     
   19    7   21 1     
   20    8    9 1     
   21    8   22 1     
   22    9   10 1     
   23    9   23 1     
   24    9   24 1     
   25   10   25 1     
   26   10   26 1     
@<TRIPOS>SUBSTRUCTURE
      1 ****           1
@<TRIPOS>SET
DONOR_HYDROGENS      STATIC     ATOMS    <user>   **** ""
3 4 25 26
ATOM$RED        STATIC     ATOMS    COLORGROUP SYSTEM
3 4 25 26
@<TRIPOS>COMMENT
> <Gold.Version>
2022.2.0

> <Gold.Id.Protein>
3pbl|protein|mol2

> <Gold.Protein.RotatedTorsions>
[ 1303 1298 1297 1294 ] final  142.02 input  179.99 | X-H torsion
[ 2461 2456 2455 2452 ] final   49.71 input   30.03 | X-H torsion
[ 2515 2510 2509 2506 ] final  101.26 input  -89.99 | X-H torsion
[ 3721 3712 3711 3710 ] final  173.06 input -179.91 | X-H torsion
[ 3841 3832 3831 3830 ] final -108.19 input -179.91 | X-H torsion
[ 3767 3762 3761 3758 ] final  -98.43 input  -89.99 | X-H torsion
[ 2472 2467 2466 2463 ] final   16.90 input  -89.97 | X-H torsion

> <Gold.Protein.ActiveResidues>
 VAL82   VAL86   LEU89   PHE106  VAL107  ASP110  VAL111  MET112  CYS114  THR115 
 CYS181  SER182  ILE183  PHE188  VAL189  ILE190  SER192  SER193  SER196  TRP342 
 PHE345  PHE346  HIS349  VAL350  TYR365  THR369  GLY372  TYR373 

> <Gold.Protein.RotatedAtoms>
    4.8804   -9.4401    4.9179 H   0  0  0  0  0  0  0  0  0  0  0  0  # atno 1303 bound_to 1298
    1.7941   -7.9726    7.2780 H   0  0  0  0  0  0  0  0  0  0  0  0  # atno 2461 bound_to 2456
   -3.9850   -4.8252    7.8753 H   0  0  0  0  0  0  0  0  0  0  0  0  # atno 2472 bound_to 2467
    2.0300   -7.8829    5.9488 H   0  0  0  0  0  0  0  0  0  0  0  0  # atno 2515 bound_to 2510
   -3.3042  -16.6527   13.4538 H   0  0  0  0  0  0  0  0  0  0  0  0  # atno 3721 bound_to 3712
   -5.1293  -21.9141   11.3123 H   0  0  0  0  0  0  0  0  0  0  0  0  # atno 3767 bound_to 3762
    2.0675  -19.5796    8.5415 H   0  0  0  0  0  0  0  0  0  0  0  0  # atno 3841 bound_to 3832
    3.5501  -10.1164    4.2553 LP  0  0  0  0  0  0  0  0  0  0  0  0  # atno 4297 bound_to 1298
    3.9314   -8.5648    3.9182 LP  0  0  0  0  0  0  0  0  0  0  0  0  # atno 4298 bound_to 1298
    0.3370   -8.6826    7.4786 LP  0  0  0  0  0  0  0  0  0  0  0  0  # atno 4299 bound_to 2456
    1.6068   -9.1527    8.3914 LP  0  0  0  0  0  0  0  0  0  0  0  0  # atno 4300 bound_to 2456
    2.6600   -7.8587    4.4427 LP  0  0  0  0  0  0  0  0  0  0  0  0  # atno 4301 bound_to 2510
    2.6070   -9.2577    5.2834 LP  0  0  0  0  0  0  0  0  0  0  0  0  # atno 4302 bound_to 2510
   -2.6962  -18.1386   13.4652 LP  0  0  0  0  0  0  0  0  0  0  0  0  # atno 4306 bound_to 3712
   -3.0168  -17.3618   14.8653 LP  0  0  0  0  0  0  0  0  0  0  0  0  # atno 4307 bound_to 3712
    3.1134  -20.7906    8.6665 LP  0  0  0  0  0  0  0  0  0  0  0  0  # atno 4314 bound_to 3832
    1.7277  -20.7973    9.5304 LP  0  0  0  0  0  0  0  0  0  0  0  0  # atno 4315 bound_to 3832
   -3.9075  -22.9909   11.1921 LP  0  0  0  0  0  0  0  0  0  0  0  0  # atno 4318 bound_to 3762
   -5.0907  -22.9697   10.0669 LP  0  0  0  0  0  0  0  0  0  0  0  0  # atno 4319 bound_to 3762
   -4.2327   -5.3958    9.3851 LP  0  0  0  0  0  0  0  0  0  0  0  0  # atno 4320 bound_to 2467
   -5.4991   -5.1724    8.3787 LP  0  0  0  0  0  0  0  0  0  0  0  0  # atno 4321 bound_to 2467

> <Gold.Score>
     Score     S(PLP)   S(hbond)     S(cho)   S(metal)  DE(clash)   DE(tors)     intcor
     32.00     -29.50       1.00       0.00       0.00       0.00       0.25       0.00

> <Gold.PLP.Fitness>
31.9993

> <Gold.PLP.PLP>
-29.4962

> <Gold.PLP.part.hbond>
-1.0000

> <Gold.PLP.part.metal>
0.0000

> <Gold.PLP.part.buried>
-3.8147

> <Gold.PLP.part.nonpolar>
-25.4761

> <Gold.PLP.part.repulsive>
0.0137

> <Gold.PLP.ligand.clash>
0.0000

> <Gold.PLP.ligand.torsion>
0.2494

> <Gold.PLP.Chemscore.Hbond>
1.0000

> <Gold.PLP.Chemscore.CHOScore>
0.0000

> <Gold.PLP.Chemscore.Metal>
0.0000

> <Gold.Chemscore.Hbonds>
donor molecule, donor type, donor heavy atom, donor atom, acceptor molecule, acceptor atom, score
      L1  H    10    25       P1  2456  1.00

> <Gold.PLP.Chemscore.Internal.Correction>
0.0019

