#       Name:                amine_i004
#       Creating user name   fsindt
#       Creation time:       Fri Aug 11 18:08:31 2023


#       File generated by GOLD software.
#

@<TRIPOS>MOLECULE
amine_i004|amine|mol2|4|dock11
    26    26     1
SMALL
NO_CHARGES


@<TRIPOS>ATOM
      1 C1          -0.8394 -11.6784   9.9414 C.3            1 <1>                0.0000
      2 C2           0.0243 -11.6466   8.6789 C.3            1 <1>                0.0000
      3 N3           0.8330 -12.8710   8.6080 N.4            1 <1>                0.0000
      4 H4           1.4954 -12.8858   9.3689 H              1 <1>                0.0000
      5 C5          -0.0485 -14.0550   8.6925 C.3            1 <1>                0.0000
      6 C6           0.6000 -15.0991   7.7496 C.3            1 <1>                0.0000
      7 C7           1.1145 -14.2008   6.5941 C.3            1 <1>                0.0000
      8 C8           1.5530 -12.9163   7.3222 C.3            1 <1>                0.0000
      9 C9           1.1920 -11.6913   6.4795 C.3            1 <1>                0.0000
     10 N10          2.2806 -11.4091   5.5343 N.3            1 <1>                0.0000
     11 H11         -1.4972 -12.5469   9.9100 H              1 <1>                0.0000
     12 H12         -0.1969 -11.7408  10.8197 H              1 <1>                0.0000
     13 H13         -1.4394 -10.7698   9.9941 H              1 <1>                0.0000
     14 H14         -0.6181 -11.5842   7.8006 H              1 <1>                0.0000
     15 H15          0.6821 -10.7781   8.7104 H              1 <1>                0.0000
     16 H16         -0.0787 -14.4334   9.7143 H              1 <1>                0.0000
     17 H17         -1.0526 -13.8058   8.3494 H              1 <1>                0.0000
     18 H18          1.4258 -15.6113   8.2434 H              1 <1>                0.0000
     19 H19         -0.1407 -15.8129   7.3892 H              1 <1>                0.0000
     20 H20          1.9609 -14.6679   6.0905 H              1 <1>                0.0000
     21 H21          0.3136 -13.9870   5.8863 H              1 <1>                0.0000
     22 H22          2.6276 -12.9410   7.5031 H              1 <1>                0.0000
     23 H23          0.2732 -11.8882   5.9272 H              1 <1>                0.0000
     24 H24          1.0461 -10.8310   7.1328 H              1 <1>                0.0000
     25 H25          2.4966 -10.4236   5.5152 H              1 <1>                0.0000
     26 H26          3.1005 -11.9547   5.7538 H              1 <1>                0.0000
@<TRIPOS>BOND
    1    1    2 1     
    2    1   11 1     
    3    1   12 1     
    4    1   13 1     
    5    2    3 1     
    6    2   14 1     
    7    2   15 1     
    8    3    4 1     
    9    3    8 1     
   10    3    5 1     
   11    5    6 1     
   12    5   16 1     
   13    5   17 1     
   14    6    7 1     
   15    6   18 1     
   16    6   19 1     
   17    7    8 1     
   18    7   20 1     
   19    7   21 1     
   20    8    9 1     
   21    8   22 1     
   22    9   10 1     
   23    9   23 1     
   24    9   24 1     
   25   10   25 1     
   26   10   26 1     
@<TRIPOS>SUBSTRUCTURE
      1 ****           1
@<TRIPOS>SET
DONOR_HYDROGENS      STATIC     ATOMS    <user>   **** ""
3 4 25 26
ATOM$RED        STATIC     ATOMS    COLORGROUP SYSTEM
3 4 25 26
@<TRIPOS>COMMENT
> <Gold.Version>
2022.2.0

> <Gold.Id.Protein>
3pbl|protein|mol2

> <Gold.Protein.RotatedTorsions>
[ 1303 1298 1297 1294 ] final  108.59 input  179.99 | X-H torsion
[ 2461 2456 2455 2452 ] final   78.52 input   30.03 | X-H torsion
[ 2515 2510 2509 2506 ] final  -17.20 input  -89.99 | X-H torsion
[ 3721 3712 3711 3710 ] final  -73.75 input -179.91 | X-H torsion
[ 3841 3832 3831 3830 ] final  125.37 input -179.91 | X-H torsion
[ 3767 3762 3761 3758 ] final   97.89 input  -89.99 | X-H torsion
[ 2472 2467 2466 2463 ] final  163.12 input  -89.97 | X-H torsion

> <Gold.Protein.ActiveResidues>
 VAL82   VAL86   LEU89   PHE106  VAL107  ASP110  VAL111  MET112  CYS114  THR115 
 CYS181  SER182  ILE183  PHE188  VAL189  ILE190  SER192  SER193  SER196  TRP342 
 PHE345  PHE346  HIS349  VAL350  TYR365  THR369  GLY372  TYR373 

> <Gold.Protein.RotatedAtoms>
    4.6335   -9.9225    4.9335 H   0  0  0  0  0  0  0  0  0  0  0  0  # atno 1303 bound_to 1298
    2.0796   -8.1814    7.5862 H   0  0  0  0  0  0  0  0  0  0  0  0  # atno 2461 bound_to 2456
   -5.4669   -5.3146    8.7808 H   0  0  0  0  0  0  0  0  0  0  0  0  # atno 2472 bound_to 2467
    2.6510   -7.8377    4.4537 H   0  0  0  0  0  0  0  0  0  0  0  0  # atno 2515 bound_to 2510
   -2.9032  -17.1512   14.7508 H   0  0  0  0  0  0  0  0  0  0  0  0  # atno 3721 bound_to 3712
   -4.1134  -23.3101   10.6022 H   0  0  0  0  0  0  0  0  0  0  0  0  # atno 3767 bound_to 3762
    3.1044  -20.6747    8.8799 H   0  0  0  0  0  0  0  0  0  0  0  0  # atno 3841 bound_to 3832
    3.3426   -9.7152    3.9554 LP  0  0  0  0  0  0  0  0  0  0  0  0  # atno 4297 bound_to 1298
    4.3859   -8.4835    4.2025 LP  0  0  0  0  0  0  0  0  0  0  0  0  # atno 4298 bound_to 1298
    0.5015   -8.3446    7.1983 LP  0  0  0  0  0  0  0  0  0  0  0  0  # atno 4299 bound_to 2456
    1.1569   -9.2821    8.3636 LP  0  0  0  0  0  0  0  0  0  0  0  0  # atno 4300 bound_to 2456
    2.6166   -9.2570    5.2601 LP  0  0  0  0  0  0  0  0  0  0  0  0  # atno 4301 bound_to 2510
    2.0290   -7.9046    5.9618 LP  0  0  0  0  0  0  0  0  0  0  0  0  # atno 4302 bound_to 2510
   -3.4975  -16.7642   13.3103 LP  0  0  0  0  0  0  0  0  0  0  0  0  # atno 4306 bound_to 3712
   -2.6784  -18.1608   13.5228 LP  0  0  0  0  0  0  0  0  0  0  0  0  # atno 4307 bound_to 3712
    1.6224  -20.6861    9.4961 LP  0  0  0  0  0  0  0  0  0  0  0  0  # atno 4314 bound_to 3832
    2.0209  -19.6368    8.3099 LP  0  0  0  0  0  0  0  0  0  0  0  0  # atno 4315 bound_to 3832
   -5.4724  -22.4453   10.3336 LP  0  0  0  0  0  0  0  0  0  0  0  0  # atno 4318 bound_to 3762
   -4.5414  -22.1199   11.6352 LP  0  0  0  0  0  0  0  0  0  0  0  0  # atno 4319 bound_to 3762
   -4.3687   -4.7991    7.6879 LP  0  0  0  0  0  0  0  0  0  0  0  0  # atno 4320 bound_to 2467
   -3.8815   -5.2798    9.1705 LP  0  0  0  0  0  0  0  0  0  0  0  0  # atno 4321 bound_to 2467

> <Gold.Score>
     Score     S(PLP)   S(hbond)     S(cho)   S(metal)  DE(clash)   DE(tors)     intcor
     33.78     -29.82       1.53       0.00       0.00       0.00       0.31       0.00

> <Gold.PLP.Fitness>
33.7775

> <Gold.PLP.PLP>
-29.8152

> <Gold.PLP.part.hbond>
-2.8582

> <Gold.PLP.part.metal>
0.0000

> <Gold.PLP.part.buried>
-3.2619

> <Gold.PLP.part.nonpolar>
-24.6916

> <Gold.PLP.part.repulsive>
0.0087

> <Gold.PLP.ligand.clash>
0.0000

> <Gold.PLP.ligand.torsion>
0.3148

> <Gold.PLP.Chemscore.Hbond>
1.5300

> <Gold.PLP.Chemscore.CHOScore>
0.0000

> <Gold.PLP.Chemscore.Metal>
0.0000

> <Gold.Chemscore.Hbonds>
donor molecule, donor type, donor heavy atom, donor atom, acceptor molecule, acceptor atom, score
      L1  H    10    25       P1  2510  0.65
      L1  H    10    26       P1  1235  0.88

> <Gold.PLP.Chemscore.Internal.Correction>
0.0019

