#       Name:                amine_i004
#       Creating user name   fsindt
#       Creation time:       Fri Aug 11 18:08:35 2023


#       File generated by GOLD software.
#

@<TRIPOS>MOLECULE
amine_i004|amine|mol2|4|dock18
    26    26     1
SMALL
NO_CHARGES


@<TRIPOS>ATOM
      1 C1          -2.4055 -10.0292  10.0745 C.3            1 <1>                0.0000
      2 C2          -1.3172 -10.8162   9.3417 C.3            1 <1>                0.0000
      3 N3          -0.5406 -11.5984  10.3127 N.4            1 <1>                0.0000
      4 H4          -0.0041 -10.9769  10.8991 H              1 <1>                0.0000
      5 C5          -1.4562 -12.4042  11.1484 C.3            1 <1>                0.0000
      6 C6          -0.6985 -13.7321  11.3980 C.3            1 <1>                0.0000
      7 C7           0.0121 -13.9482  10.0360 C.3            1 <1>                0.0000
      8 C8           0.3676 -12.5147   9.5989 C.3            1 <1>                0.0000
      9 C9           0.1741 -12.3680   8.0883 C.3            1 <1>                0.0000
     10 N10          1.0933 -11.3440   7.5740 N.3            1 <1>                0.0000
     11 H11         -3.0669 -10.7219  10.5949 H              1 <1>                0.0000
     12 H12         -1.9433  -9.3561  10.7967 H              1 <1>                0.0000
     13 H13         -2.9818  -9.4487   9.3540 H              1 <1>                0.0000
     14 H14         -1.7794 -11.4891   8.6195 H              1 <1>                0.0000
     15 H15         -0.6559 -10.1234   8.8212 H              1 <1>                0.0000
     16 H16         -1.6537 -11.8967  12.0926 H              1 <1>                0.0000
     17 H17         -2.3883 -12.5935  10.6161 H              1 <1>                0.0000
     18 H18          0.0272 -13.6220  12.2039 H              1 <1>                0.0000
     19 H19         -1.3937 -14.5446  11.6090 H              1 <1>                0.0000
     20 H20          0.9131 -14.5485  10.1623 H              1 <1>                0.0000
     21 H21         -0.6640 -14.4123   9.3180 H              1 <1>                0.0000
     22 H22          1.4004 -12.2908   9.8660 H              1 <1>                0.0000
     23 H23          0.3821 -13.3206   7.6011 H              1 <1>                0.0000
     24 H24         -0.8539 -12.0706   7.8808 H              1 <1>                0.0000
     25 H25          1.1871 -11.4129   6.5716 H              1 <1>                0.0000
     26 H26          0.7938 -10.4197   7.8464 H              1 <1>                0.0000
@<TRIPOS>BOND
    1    1    2 1     
    2    1   11 1     
    3    1   12 1     
    4    1   13 1     
    5    2    3 1     
    6    2   14 1     
    7    2   15 1     
    8    3    4 1     
    9    3    8 1     
   10    3    5 1     
   11    5    6 1     
   12    5   16 1     
   13    5   17 1     
   14    6    7 1     
   15    6   18 1     
   16    6   19 1     
   17    7    8 1     
   18    7   20 1     
   19    7   21 1     
   20    8    9 1     
   21    8   22 1     
   22    9   10 1     
   23    9   23 1     
   24    9   24 1     
   25   10   25 1     
   26   10   26 1     
@<TRIPOS>SUBSTRUCTURE
      1 ****           1
@<TRIPOS>SET
DONOR_HYDROGENS      STATIC     ATOMS    <user>   **** ""
3 4 25 26
ATOM$RED        STATIC     ATOMS    COLORGROUP SYSTEM
3 4 25 26
@<TRIPOS>COMMENT
> <Gold.Version>
2022.2.0

> <Gold.Id.Protein>
3pbl|protein|mol2

> <Gold.Protein.RotatedTorsions>
[ 1303 1298 1297 1294 ] final  -10.21 input  179.99 | X-H torsion
[ 2461 2456 2455 2452 ] final    8.50 input   30.03 | X-H torsion
[ 2515 2510 2509 2506 ] final  137.04 input  -89.99 | X-H torsion
[ 3721 3712 3711 3710 ] final  124.77 input -179.91 | X-H torsion
[ 3841 3832 3831 3830 ] final   36.10 input -179.91 | X-H torsion
[ 3767 3762 3761 3758 ] final  -63.78 input  -89.99 | X-H torsion
[ 2472 2467 2466 2463 ] final  142.91 input  -89.97 | X-H torsion

> <Gold.Protein.ActiveResidues>
 VAL82   VAL86   LEU89   PHE106  VAL107  ASP110  VAL111  MET112  CYS114  THR115 
 CYS181  SER182  ILE183  PHE188  VAL189  ILE190  SER192  SER193  SER196  TRP342 
 PHE345  PHE346  HIS349  VAL350  TYR365  THR369  GLY372  TYR373 

> <Gold.Protein.RotatedAtoms>
    3.3456   -9.7322    3.9648 H   0  0  0  0  0  0  0  0  0  0  0  0  # atno 1303 bound_to 1298
    1.1751   -7.9499    7.0392 H   0  0  0  0  0  0  0  0  0  0  0  0  # atno 2461 bound_to 2456
   -5.5090   -5.2075    8.4707 H   0  0  0  0  0  0  0  0  0  0  0  0  # atno 2472 bound_to 2467
    2.0880   -8.4399    6.0959 H   0  0  0  0  0  0  0  0  0  0  0  0  # atno 2515 bound_to 2510
   -3.0434  -17.1710   13.0468 H   0  0  0  0  0  0  0  0  0  0  0  0  # atno 3721 bound_to 3712
   -5.4432  -22.0331   10.8621 H   0  0  0  0  0  0  0  0  0  0  0  0  # atno 3767 bound_to 3762
    2.1457  -20.8297    9.6124 H   0  0  0  0  0  0  0  0  0  0  0  0  # atno 3841 bound_to 3832
    4.3704   -8.4812    4.1908 LP  0  0  0  0  0  0  0  0  0  0  0  0  # atno 4297 bound_to 1298
    4.6464   -9.9078    4.9361 LP  0  0  0  0  0  0  0  0  0  0  0  0  # atno 4298 bound_to 1298
    0.4910   -9.1117    7.9609 LP  0  0  0  0  0  0  0  0  0  0  0  0  # atno 4299 bound_to 2456
    2.0716   -8.7464    8.1478 LP  0  0  0  0  0  0  0  0  0  0  0  0  # atno 4300 bound_to 2456
    2.4221   -7.4841    4.8150 LP  0  0  0  0  0  0  0  0  0  0  0  0  # atno 4301 bound_to 2510
    2.7867   -9.0750    4.7639 LP  0  0  0  0  0  0  0  0  0  0  0  0  # atno 4302 bound_to 2510
   -2.6190  -18.1524   14.2446 LP  0  0  0  0  0  0  0  0  0  0  0  0  # atno 4306 bound_to 3712
   -3.3950  -16.7497   14.5557 LP  0  0  0  0  0  0  0  0  0  0  0  0  # atno 4307 bound_to 3712
    1.6588  -19.6954    8.5865 LP  0  0  0  0  0  0  0  0  0  0  0  0  # atno 4314 bound_to 3832
    3.0920  -20.4485    8.3733 LP  0  0  0  0  0  0  0  0  0  0  0  0  # atno 4315 bound_to 3832
   -4.0625  -22.5798   11.5416 LP  0  0  0  0  0  0  0  0  0  0  0  0  # atno 4318 bound_to 3762
   -4.6220  -23.2619   10.1674 LP  0  0  0  0  0  0  0  0  0  0  0  0  # atno 4319 bound_to 3762
   -4.0650   -4.8127    7.8184 LP  0  0  0  0  0  0  0  0  0  0  0  0  # atno 4320 bound_to 2467
   -4.1431   -5.3734    9.3501 LP  0  0  0  0  0  0  0  0  0  0  0  0  # atno 4321 bound_to 2467

> <Gold.Score>
     Score     S(PLP)   S(hbond)     S(cho)   S(metal)  DE(clash)   DE(tors)     intcor
     32.02     -29.84       0.99       0.00       0.00       0.00       0.40       0.00

> <Gold.PLP.Fitness>
32.0214

> <Gold.PLP.PLP>
-29.8403

> <Gold.PLP.part.hbond>
-1.0000

> <Gold.PLP.part.metal>
0.0000

> <Gold.PLP.part.buried>
-3.1481

> <Gold.PLP.part.nonpolar>
-26.1183

> <Gold.PLP.part.repulsive>
0.0000

> <Gold.PLP.ligand.clash>
0.0000

> <Gold.PLP.ligand.torsion>
0.3982

> <Gold.PLP.Chemscore.Hbond>
0.9920

> <Gold.PLP.Chemscore.CHOScore>
0.0000

> <Gold.PLP.Chemscore.Metal>
0.0000

> <Gold.Chemscore.Hbonds>
donor molecule, donor type, donor heavy atom, donor atom, acceptor molecule, acceptor atom, score
      L1  H    10    26       P1  2456  0.99

> <Gold.PLP.Chemscore.Internal.Correction>
0.0013

