#       Name:                amine_i004
#       Creating user name   fsindt
#       Creation time:       Fri Aug 11 18:08:32 2023


#       File generated by GOLD software.
#

@<TRIPOS>MOLECULE
amine_i004|amine|mol2|4|dock13
    26    26     1
SMALL
NO_CHARGES


@<TRIPOS>ATOM
      1 C1          -0.6975 -17.8811   8.6967 C.3            1 <1>                0.0000
      2 C2          -0.7063 -18.1461  10.2035 C.3            1 <1>                0.0000
      3 N3           0.2492 -17.2470  10.8643 N.4            1 <1>                0.0000
      4 H4           1.1618 -17.3548  10.4478 H              1 <1>                0.0000
      5 C5          -0.2022 -15.8468  10.7181 C.3            1 <1>                0.0000
      6 C6           0.1890 -15.1637  12.0522 C.3            1 <1>                0.0000
      7 C7          -0.0822 -16.2973  13.0760 C.3            1 <1>                0.0000
      8 C8           0.3189 -17.5671  12.3019 C.3            1 <1>                0.0000
      9 C9          -0.6503 -18.7047  12.6300 C.3            1 <1>                0.0000
     10 N10         -0.8382 -18.7836  14.0848 N.3            1 <1>                0.0000
     11 H11         -0.9823 -16.8461   8.5079 H              1 <1>                0.0000
     12 H12          0.3027 -18.0605   8.3021 H              1 <1>                0.0000
     13 H13         -1.4064 -18.5482   8.2062 H              1 <1>                0.0000
     14 H14         -1.7064 -17.9668  10.5980 H              1 <1>                0.0000
     15 H15         -0.4215 -19.1811  10.3921 H              1 <1>                0.0000
     16 H16          0.3091 -15.3686   9.8827 H              1 <1>                0.0000
     17 H17         -1.2820 -15.8092  10.5749 H              1 <1>                0.0000
     18 H18          1.2417 -14.8812  12.0523 H              1 <1>                0.0000
     19 H19         -0.4456 -14.2996  12.2492 H              1 <1>                0.0000
     20 H20          0.5393 -16.1726  13.9628 H              1 <1>                0.0000
     21 H21         -1.1379 -16.3289  13.3453 H              1 <1>                0.0000
     22 H22          1.3363 -17.8562  12.5654 H              1 <1>                0.0000
     23 H23         -1.6099 -18.5143  12.1494 H              1 <1>                0.0000
     24 H24         -0.2416 -19.6469  12.2648 H              1 <1>                0.0000
     25 H25         -0.1506 -18.2259  14.5690 H              1 <1>                0.0000
     26 H26         -1.7739 -18.5091  14.3439 H              1 <1>                0.0000
@<TRIPOS>BOND
    1    1    2 1     
    2    1   11 1     
    3    1   12 1     
    4    1   13 1     
    5    2    3 1     
    6    2   14 1     
    7    2   15 1     
    8    3    4 1     
    9    3    8 1     
   10    3    5 1     
   11    5    6 1     
   12    5   16 1     
   13    5   17 1     
   14    6    7 1     
   15    6   18 1     
   16    6   19 1     
   17    7    8 1     
   18    7   20 1     
   19    7   21 1     
   20    8    9 1     
   21    8   22 1     
   22    9   10 1     
   23    9   23 1     
   24    9   24 1     
   25   10   25 1     
   26   10   26 1     
@<TRIPOS>SUBSTRUCTURE
      1 ****           1
@<TRIPOS>SET
DONOR_HYDROGENS      STATIC     ATOMS    <user>   **** ""
3 4 25 26
ATOM$RED        STATIC     ATOMS    COLORGROUP SYSTEM
3 4 25 26
@<TRIPOS>COMMENT
> <Gold.Version>
2022.2.0

> <Gold.Id.Protein>
3pbl|protein|mol2

> <Gold.Protein.RotatedTorsions>
[ 1303 1298 1297 1294 ] final -154.69 input  179.99 | X-H torsion
[ 2461 2456 2455 2452 ] final   38.52 input   30.03 | X-H torsion
[ 2515 2510 2509 2506 ] final   78.55 input  -89.99 | X-H torsion
[ 3721 3712 3711 3710 ] final  177.64 input -179.91 | X-H torsion
[ 3841 3832 3831 3830 ] final   62.71 input -179.91 | X-H torsion
[ 3767 3762 3761 3758 ] final  138.32 input  -89.99 | X-H torsion
[ 2472 2467 2466 2463 ] final    4.50 input  -89.97 | X-H torsion

> <Gold.Protein.ActiveResidues>
 VAL82   VAL86   LEU89   PHE106  VAL107  ASP110  VAL111  MET112  CYS114  THR115 
 CYS181  SER182  ILE183  PHE188  VAL189  ILE190  SER192  SER193  SER196  TRP342 
 PHE345  PHE346  HIS349  VAL350  TYR365  THR369  GLY372  TYR373 

> <Gold.Protein.RotatedAtoms>
    4.6586   -8.6034    4.4392 H   0  0  0  0  0  0  0  0  0  0  0  0  # atno 1303 bound_to 1298
    1.6412   -7.9319    7.1840 H   0  0  0  0  0  0  0  0  0  0  0  0  # atno 2461 bound_to 2456
   -3.8417   -4.8601    8.0158 H   0  0  0  0  0  0  0  0  0  0  0  0  # atno 2472 bound_to 2467
    2.0730   -7.6061    5.7054 H   0  0  0  0  0  0  0  0  0  0  0  0  # atno 2515 bound_to 2510
   -3.3165  -16.6218   13.5145 H   0  0  0  0  0  0  0  0  0  0  0  0  # atno 3721 bound_to 3712
   -3.9069  -23.0245   11.1504 H   0  0  0  0  0  0  0  0  0  0  0  0  # atno 3767 bound_to 3762
    2.5074  -20.9491    9.4953 H   0  0  0  0  0  0  0  0  0  0  0  0  # atno 3841 bound_to 3832
    4.3540  -10.1591    4.8305 LP  0  0  0  0  0  0  0  0  0  0  0  0  # atno 4297 bound_to 1298
    3.3493   -9.3591    3.8219 LP  0  0  0  0  0  0  0  0  0  0  0  0  # atno 4298 bound_to 1298
    0.3333   -8.8134    7.6079 LP  0  0  0  0  0  0  0  0  0  0  0  0  # atno 4299 bound_to 2456
    1.7633   -9.0627    8.3561 LP  0  0  0  0  0  0  0  0  0  0  0  0  # atno 4300 bound_to 2456
    2.7710   -8.2020    4.3550 LP  0  0  0  0  0  0  0  0  0  0  0  0  # atno 4301 bound_to 2510
    2.4529   -9.1914    5.6146 LP  0  0  0  0  0  0  0  0  0  0  0  0  # atno 4302 bound_to 2510
   -2.7197  -18.1079   13.3991 LP  0  0  0  0  0  0  0  0  0  0  0  0  # atno 4306 bound_to 3712
   -2.9790  -17.4283   14.8612 LP  0  0  0  0  0  0  0  0  0  0  0  0  # atno 4307 bound_to 3712
    1.4406  -19.9035    8.9080 LP  0  0  0  0  0  0  0  0  0  0  0  0  # atno 4314 bound_to 3832
    2.8923  -20.1024    8.1872 LP  0  0  0  0  0  0  0  0  0  0  0  0  # atno 4315 bound_to 3832
   -5.1300  -22.9341   10.0721 LP  0  0  0  0  0  0  0  0  0  0  0  0  # atno 4318 bound_to 3762
   -5.0901  -21.9166   11.3487 LP  0  0  0  0  0  0  0  0  0  0  0  0  # atno 4319 bound_to 3762
   -4.4284   -5.4328    9.4279 LP  0  0  0  0  0  0  0  0  0  0  0  0  # atno 4320 bound_to 2467
   -5.4467   -5.1006    8.1954 LP  0  0  0  0  0  0  0  0  0  0  0  0  # atno 4321 bound_to 2467

> <Gold.Score>
     Score     S(PLP)   S(hbond)     S(cho)   S(metal)  DE(clash)   DE(tors)     intcor
     32.01     -23.28       2.98       0.00       0.00       0.00       0.10       0.00

> <Gold.PLP.Fitness>
32.0081

> <Gold.PLP.PLP>
-23.2838

> <Gold.PLP.part.hbond>
-2.0000

> <Gold.PLP.part.metal>
0.0000

> <Gold.PLP.part.buried>
-1.9593

> <Gold.PLP.part.nonpolar>
-19.3079

> <Gold.PLP.part.repulsive>
0.0000

> <Gold.PLP.ligand.clash>
0.0000

> <Gold.PLP.ligand.torsion>
0.1028

> <Gold.PLP.Chemscore.Hbond>
2.9760

> <Gold.PLP.Chemscore.CHOScore>
0.0000

> <Gold.PLP.Chemscore.Metal>
0.0000

> <Gold.Chemscore.Hbonds>
donor molecule, donor type, donor heavy atom, donor atom, acceptor molecule, acceptor atom, score
      L1  H     3     4       P1  1227  2.00
      L1  H    10    26       P1  3712  0.98

> <Gold.PLP.Chemscore.Internal.Correction>
0.0019

