#       Name:                amine_i004
#       Creating user name   fsindt
#       Creation time:       Fri Aug 11 18:08:34 2023


#       File generated by GOLD software.
#

@<TRIPOS>MOLECULE
amine_i004|amine|mol2|4|dock17
    26    26     1
SMALL
NO_CHARGES


@<TRIPOS>ATOM
      1 C1          -4.5272 -10.7843   9.8934 C.3            1 <1>                0.0000
      2 C2          -3.1593 -11.3987   9.5897 C.3            1 <1>                0.0000
      3 N3          -2.1241 -10.3609   9.6858 N.4            1 <1>                0.0000
      4 H4          -2.4096  -9.5461   9.1636 H              1 <1>                0.0000
      5 C5          -1.9159  -9.9956  11.1033 C.3            1 <1>                0.0000
      6 C6          -0.3960  -9.7212  11.2219 C.3            1 <1>                0.0000
      7 C7           0.1920 -10.7997  10.2744 C.3            1 <1>                0.0000
      8 C8          -0.8529 -10.8764   9.1453 C.3            1 <1>                0.0000
      9 C9          -1.0285 -12.3285   8.6963 C.3            1 <1>                0.0000
     10 N10          0.2271 -12.8146   8.1087 N.3            1 <1>                0.0000
     11 H11         -4.5229 -10.3677  10.9006 H              1 <1>                0.0000
     12 H12         -4.7380  -9.9932   9.1738 H              1 <1>                0.0000
     13 H13         -5.2954 -11.5544   9.8220 H              1 <1>                0.0000
     14 H14         -2.9485 -12.1899  10.3092 H              1 <1>                0.0000
     15 H15         -3.1637 -11.8154   8.5825 H              1 <1>                0.0000
     16 H16         -2.4839  -9.0990  11.3514 H              1 <1>                0.0000
     17 H17         -2.2045 -10.8209  11.7541 H              1 <1>                0.0000
     18 H18         -0.1517  -8.7185  10.8715 H              1 <1>                0.0000
     19 H19         -0.0511  -9.8704  12.2451 H              1 <1>                0.0000
     20 H20          1.1598 -10.4841   9.8846 H              1 <1>                0.0000
     21 H21          0.2756 -11.7583  10.7864 H              1 <1>                0.0000
     22 H22         -0.5350 -10.2615   8.3033 H              1 <1>                0.0000
     23 H23         -1.2901 -12.9455   9.5560 H              1 <1>                0.0000
     24 H24         -1.8235 -12.3854   7.9528 H              1 <1>                0.0000
     25 H25          0.9743 -12.1519   8.2532 H              1 <1>                0.0000
     26 H26          0.4716 -13.7214   8.4775 H              1 <1>                0.0000
@<TRIPOS>BOND
    1    1    2 1     
    2    1   11 1     
    3    1   12 1     
    4    1   13 1     
    5    2    3 1     
    6    2   14 1     
    7    2   15 1     
    8    3    4 1     
    9    3    8 1     
   10    3    5 1     
   11    5    6 1     
   12    5   16 1     
   13    5   17 1     
   14    6    7 1     
   15    6   18 1     
   16    6   19 1     
   17    7    8 1     
   18    7   20 1     
   19    7   21 1     
   20    8    9 1     
   21    8   22 1     
   22    9   10 1     
   23    9   23 1     
   24    9   24 1     
   25   10   25 1     
   26   10   26 1     
@<TRIPOS>SUBSTRUCTURE
      1 ****           1
@<TRIPOS>SET
DONOR_HYDROGENS      STATIC     ATOMS    <user>   **** ""
3 4 25 26
ATOM$RED        STATIC     ATOMS    COLORGROUP SYSTEM
3 4 25 26
@<TRIPOS>COMMENT
> <Gold.Version>
2022.2.0

> <Gold.Id.Protein>
3pbl|protein|mol2

> <Gold.Protein.RotatedTorsions>
[ 1303 1298 1297 1294 ] final   87.67 input  179.99 | X-H torsion
[ 2461 2456 2455 2452 ] final  178.96 input   30.03 | X-H torsion
[ 2515 2510 2509 2506 ] final  -83.89 input  -89.99 | X-H torsion
[ 3721 3712 3711 3710 ] final -142.86 input -179.91 | X-H torsion
[ 3841 3832 3831 3830 ] final  105.12 input -179.91 | X-H torsion
[ 3767 3762 3761 3758 ] final   54.29 input  -89.99 | X-H torsion
[ 2472 2467 2466 2463 ] final -177.03 input  -89.97 | X-H torsion

> <Gold.Protein.ActiveResidues>
 VAL82   VAL86   LEU89   PHE106  VAL107  ASP110  VAL111  MET112  CYS114  THR115 
 CYS181  SER182  ILE183  PHE188  VAL189  ILE190  SER192  SER193  SER196  TRP342 
 PHE345  PHE346  HIS349  VAL350  TYR365  THR369  GLY372  TYR373 

> <Gold.Protein.RotatedAtoms>
    4.3846  -10.1402    4.8450 H   0  0  0  0  0  0  0  0  0  0  0  0  # atno 1303 bound_to 1298
    1.4670   -9.2116    8.4015 H   0  0  0  0  0  0  0  0  0  0  0  0  # atno 2461 bound_to 2456
   -5.3183   -5.3980    9.0575 H   0  0  0  0  0  0  0  0  0  0  0  0  # atno 2472 bound_to 2467
    2.8303   -8.8539    4.5480 H   0  0  0  0  0  0  0  0  0  0  0  0  # atno 2515 bound_to 2510
   -3.3099  -16.5433   14.0945 H   0  0  0  0  0  0  0  0  0  0  0  0  # atno 3721 bound_to 3712
   -4.6484  -23.2506   10.1541 H   0  0  0  0  0  0  0  0  0  0  0  0  # atno 3767 bound_to 3762
    2.9845  -20.8421    9.1040 H   0  0  0  0  0  0  0  0  0  0  0  0  # atno 3841 bound_to 3832
    3.3428   -9.3959    3.8316 LP  0  0  0  0  0  0  0  0  0  0  0  0  # atno 4297 bound_to 1298
    4.6347   -8.5850    4.4147 LP  0  0  0  0  0  0  0  0  0  0  0  0  # atno 4298 bound_to 1298
    1.9046   -8.0247    7.3685 LP  0  0  0  0  0  0  0  0  0  0  0  0  # atno 4299 bound_to 2456
    0.3662   -8.5721    7.3784 LP  0  0  0  0  0  0  0  0  0  0  0  0  # atno 4300 bound_to 2456
    2.1754   -8.7341    6.0388 LP  0  0  0  0  0  0  0  0  0  0  0  0  # atno 4301 bound_to 2510
    2.2908   -7.4109    5.0889 LP  0  0  0  0  0  0  0  0  0  0  0  0  # atno 4302 bound_to 2510
   -3.0002  -17.6797   13.0034 LP  0  0  0  0  0  0  0  0  0  0  0  0  # atno 4306 bound_to 3712
   -2.7062  -17.9470   14.5873 LP  0  0  0  0  0  0  0  0  0  0  0  0  # atno 4307 bound_to 3712
    1.4568  -20.4243    9.3643 LP  0  0  0  0  0  0  0  0  0  0  0  0  # atno 4314 bound_to 3832
    2.3250  -19.7052    8.1828 LP  0  0  0  0  0  0  0  0  0  0  0  0  # atno 4315 bound_to 3832
   -5.4321  -22.0209   10.8892 LP  0  0  0  0  0  0  0  0  0  0  0  0  # atno 4318 bound_to 3762
   -4.0468  -22.6038   11.5276 LP  0  0  0  0  0  0  0  0  0  0  0  0  # atno 4319 bound_to 3762
   -4.6915   -4.8255    7.6626 LP  0  0  0  0  0  0  0  0  0  0  0  0  # atno 4320 bound_to 2467
   -3.7073   -5.1701    8.9192 LP  0  0  0  0  0  0  0  0  0  0  0  0  # atno 4321 bound_to 2467

> <Gold.Score>
     Score     S(PLP)   S(hbond)     S(cho)   S(metal)  DE(clash)   DE(tors)     intcor
     35.02     -35.16       0.00       0.00       0.00       0.00       0.07       0.00

> <Gold.PLP.Fitness>
35.0211

> <Gold.PLP.PLP>
-35.1626

> <Gold.PLP.part.hbond>
0.0000

> <Gold.PLP.part.metal>
0.0000

> <Gold.PLP.part.buried>
-4.3656

> <Gold.PLP.part.nonpolar>
-31.9960

> <Gold.PLP.part.repulsive>
0.0442

> <Gold.PLP.ligand.clash>
0.0000

> <Gold.PLP.ligand.torsion>
0.0714

> <Gold.PLP.Chemscore.Hbond>
0.0000

> <Gold.PLP.Chemscore.CHOScore>
0.0000

> <Gold.PLP.Chemscore.Metal>
0.0000

> <Gold.PLP.Chemscore.Internal.Correction>
0.0013

