#       Name:                amine_i004
#       Creating user name   fsindt
#       Creation time:       Fri Aug 11 18:08:36 2023


#       File generated by GOLD software.
#

@<TRIPOS>MOLECULE
amine_i004|amine|mol2|4|dock20
    26    26     1
SMALL
NO_CHARGES


@<TRIPOS>ATOM
      1 C1           0.5343 -15.1504  11.4688 C.3            1 <1>                0.0000
      2 C2           0.9008 -14.2624  10.2781 C.3            1 <1>                0.0000
      3 N3           1.0887 -15.0973   9.0841 N.4            1 <1>                0.0000
      4 H4           1.9004 -15.6846   9.2038 H              1 <1>                0.0000
      5 C5          -0.1079 -15.9395   8.8725 C.3            1 <1>                0.0000
      6 C6          -0.2714 -16.0152   7.3340 C.3            1 <1>                0.0000
      7 C7           0.1473 -14.5848   6.9036 C.3            1 <1>                0.0000
      8 C8           1.2689 -14.2369   7.9003 C.3            1 <1>                0.0000
      9 C9           1.1671 -12.7651   8.3057 C.3            1 <1>                0.0000
     10 N10          1.1442 -11.9257   7.1004 N.3            1 <1>                0.0000
     11 H11         -0.3893 -15.6867  11.2515 H              1 <1>                0.0000
     12 H12          1.3365 -15.8663  11.6486 H              1 <1>                0.0000
     13 H13          0.3950 -14.5310  12.3548 H              1 <1>                0.0000
     14 H14          0.0988 -13.5465  10.0983 H              1 <1>                0.0000
     15 H15          1.8245 -13.7261  10.4955 H              1 <1>                0.0000
     16 H16          0.0507 -16.9351   9.2868 H              1 <1>                0.0000
     17 H17         -0.9839 -15.4745   9.3248 H              1 <1>                0.0000
     18 H18          0.3969 -16.7628   6.9067 H              1 <1>                0.0000
     19 H19         -1.3070 -16.2178   7.0609 H              1 <1>                0.0000
     20 H20          0.5251 -14.5850   5.8812 H              1 <1>                0.0000
     21 H21         -0.6873 -13.8914   7.0070 H              1 <1>                0.0000
     22 H22          2.2410 -14.4328   7.4479 H              1 <1>                0.0000
     23 H23          0.2513 -12.6077   8.8755 H              1 <1>                0.0000
     24 H24          2.0273 -12.4968   8.9190 H              1 <1>                0.0000
     25 H25          1.3388 -10.9619   7.3272 H              1 <1>                0.0000
     26 H26          1.7902 -12.2714   6.4067 H              1 <1>                0.0000
@<TRIPOS>BOND
    1    1    2 1     
    2    1   11 1     
    3    1   12 1     
    4    1   13 1     
    5    2    3 1     
    6    2   14 1     
    7    2   15 1     
    8    3    4 1     
    9    3    8 1     
   10    3    5 1     
   11    5    6 1     
   12    5   16 1     
   13    5   17 1     
   14    6    7 1     
   15    6   18 1     
   16    6   19 1     
   17    7    8 1     
   18    7   20 1     
   19    7   21 1     
   20    8    9 1     
   21    8   22 1     
   22    9   10 1     
   23    9   23 1     
   24    9   24 1     
   25   10   25 1     
   26   10   26 1     
@<TRIPOS>SUBSTRUCTURE
      1 ****           1
@<TRIPOS>SET
DONOR_HYDROGENS      STATIC     ATOMS    <user>   **** ""
3 4 25 26
ATOM$RED        STATIC     ATOMS    COLORGROUP SYSTEM
3 4 25 26
@<TRIPOS>COMMENT
> <Gold.Version>
2022.2.0

> <Gold.Id.Protein>
3pbl|protein|mol2

> <Gold.Protein.RotatedTorsions>
[ 1303 1298 1297 1294 ] final  -99.73 input  179.99 | X-H torsion
[ 2461 2456 2455 2452 ] final  -15.21 input   30.03 | X-H torsion
[ 2515 2510 2509 2506 ] final -105.79 input  -89.99 | X-H torsion
[ 3721 3712 3711 3710 ] final -124.47 input -179.91 | X-H torsion
[ 3841 3832 3831 3830 ] final   16.84 input -179.91 | X-H torsion
[ 3767 3762 3761 3758 ] final  -70.40 input  -89.99 | X-H torsion
[ 2472 2467 2466 2463 ] final -130.81 input  -89.97 | X-H torsion

> <Gold.Protein.ActiveResidues>
 VAL82   VAL86   LEU89   PHE106  VAL107  ASP110  VAL111  MET112  CYS114  THR115 
 CYS181  SER182  ILE183  PHE188  VAL189  ILE190  SER192  SER193  SER196  TRP342 
 PHE345  PHE346  HIS349  VAL350  TYR365  THR369  GLY372  TYR373 

> <Gold.Protein.RotatedAtoms>
    3.9547   -8.5533    3.9305 H   0  0  0  0  0  0  0  0  0  0  0  0  # atno 1303 bound_to 1298
    0.8140   -8.0898    7.0529 H   0  0  0  0  0  0  0  0  0  0  0  0  # atno 2461 bound_to 2456
   -4.6782   -5.4596    9.4238 H   0  0  0  0  0  0  0  0  0  0  0  0  # atno 2472 bound_to 2467
    2.7768   -9.1011    4.8013 H   0  0  0  0  0  0  0  0  0  0  0  0  # atno 2515 bound_to 2510
   -3.2400  -16.6258   14.3494 H   0  0  0  0  0  0  0  0  0  0  0  0  # atno 3721 bound_to 3712
   -5.4011  -21.9917   10.9535 H   0  0  0  0  0  0  0  0  0  0  0  0  # atno 3767 bound_to 3762
    1.9064  -20.6667    9.6146 H   0  0  0  0  0  0  0  0  0  0  0  0  # atno 3841 bound_to 3832
    4.8738   -9.4676    4.9234 LP  0  0  0  0  0  0  0  0  0  0  0  0  # atno 4297 bound_to 1298
    3.5337  -10.1008    4.2378 LP  0  0  0  0  0  0  0  0  0  0  0  0  # atno 4298 bound_to 1298
    0.7628   -9.2536    8.1976 LP  0  0  0  0  0  0  0  0  0  0  0  0  # atno 4299 bound_to 2456
    2.1607   -8.4647    7.8974 LP  0  0  0  0  0  0  0  0  0  0  0  0  # atno 4300 bound_to 2456
    2.0777   -8.3944    6.0966 LP  0  0  0  0  0  0  0  0  0  0  0  0  # atno 4301 bound_to 2510
    2.4421   -7.5033    4.7775 LP  0  0  0  0  0  0  0  0  0  0  0  0  # atno 4302 bound_to 2510
   -3.1536  -17.4192   12.9562 LP  0  0  0  0  0  0  0  0  0  0  0  0  # atno 4306 bound_to 3712
   -2.6334  -18.1123   14.3403 LP  0  0  0  0  0  0  0  0  0  0  0  0  # atno 4307 bound_to 3712
    1.8998  -19.6360    8.3842 LP  0  0  0  0  0  0  0  0  0  0  0  0  # atno 4314 bound_to 3832
    3.1274  -20.6961    8.5732 LP  0  0  0  0  0  0  0  0  0  0  0  0  # atno 4315 bound_to 3832
   -4.0121  -22.6618   11.4908 LP  0  0  0  0  0  0  0  0  0  0  0  0  # atno 4318 bound_to 3762
   -4.7144  -23.2213   10.1268 LP  0  0  0  0  0  0  0  0  0  0  0  0  # atno 4319 bound_to 3762
   -5.3263   -5.0143    7.9927 LP  0  0  0  0  0  0  0  0  0  0  0  0  # atno 4320 bound_to 2467
   -3.7124   -4.9197    8.2228 LP  0  0  0  0  0  0  0  0  0  0  0  0  # atno 4321 bound_to 2467

> <Gold.Score>
     Score     S(PLP)   S(hbond)     S(cho)   S(metal)  DE(clash)   DE(tors)     intcor
     30.45     -24.60       1.98       0.00       0.00       0.00       0.05       0.00

> <Gold.PLP.Fitness>
30.4485

> <Gold.PLP.PLP>
-24.5982

> <Gold.PLP.part.hbond>
-1.0000

> <Gold.PLP.part.metal>
0.0000

> <Gold.PLP.part.buried>
-3.2589

> <Gold.PLP.part.nonpolar>
-20.5390

> <Gold.PLP.part.repulsive>
0.0265

> <Gold.PLP.ligand.clash>
0.0000

> <Gold.PLP.ligand.torsion>
0.0515

> <Gold.PLP.Chemscore.Hbond>
1.9840

> <Gold.PLP.Chemscore.CHOScore>
0.0000

> <Gold.PLP.Chemscore.Metal>
0.0000

> <Gold.Chemscore.Hbonds>
donor molecule, donor type, donor heavy atom, donor atom, acceptor molecule, acceptor atom, score
      L1  H     3     4       P1  1227  1.98

> <Gold.PLP.Chemscore.Internal.Correction>
0.0013

