#       Name:                amine_i004
#       Creating user name   fsindt
#       Creation time:       Fri Aug 11 18:08:30 2023


#       File generated by GOLD software.
#

@<TRIPOS>MOLECULE
amine_i004|amine|mol2|4|dock10
    26    26     1
SMALL
NO_CHARGES


@<TRIPOS>ATOM
      1 C1           0.7298 -14.7029  10.7798 C.3            1 <1>                0.0000
      2 C2           0.2008 -16.0012  11.3924 C.3            1 <1>                0.0000
      3 N3           1.3004 -16.7120  12.0584 N.4            1 <1>                0.0000
      4 H4           2.0473 -16.8765  11.4003 H              1 <1>                0.0000
      5 C5           1.8031 -15.9031  13.1893 C.3            1 <1>                0.0000
      6 C6           2.1732 -16.9372  14.2817 C.3            1 <1>                0.0000
      7 C7           1.0491 -17.9923  14.1081 C.3            1 <1>                0.0000
      8 C8           0.8117 -17.9990  12.5863 C.3            1 <1>                0.0000
      9 C9          -0.6825 -18.1486  12.2932 C.3            1 <1>                0.0000
     10 N10         -1.2407 -19.2197  13.1293 N.3            1 <1>                0.0000
     11 H11          1.1460 -14.0731  11.5660 H              1 <1>                0.0000
     12 H12          1.5064 -14.9351  10.0509 H              1 <1>                0.0000
     13 H13         -0.0861 -14.1754  10.2855 H              1 <1>                0.0000
     14 H14         -0.5758 -15.7690  12.1211 H              1 <1>                0.0000
     15 H15         -0.2154 -16.6309  10.6061 H              1 <1>                0.0000
     16 H16          2.6845 -15.3367  12.8886 H              1 <1>                0.0000
     17 H17          1.0245 -15.2314  13.5509 H              1 <1>                0.0000
     18 H18          3.1526 -17.3749  14.0891 H              1 <1>                0.0000
     19 H19          2.1366 -16.4872  15.2737 H              1 <1>                0.0000
     20 H20          1.3831 -18.9713  14.4516 H              1 <1>                0.0000
     21 H21          0.1468 -17.6844  14.6364 H              1 <1>                0.0000
     22 H22          1.3655 -18.8185  12.1281 H              1 <1>                0.0000
     23 H23         -1.1920 -17.2110  12.5158 H              1 <1>                0.0000
     24 H24         -0.8234 -18.3979  11.2415 H              1 <1>                0.0000
     25 H25         -0.5681 -19.5317  13.8138 H              1 <1>                0.0000
     26 H26         -2.0970 -18.9231  13.5729 H              1 <1>                0.0000
@<TRIPOS>BOND
    1    1    2 1     
    2    1   11 1     
    3    1   12 1     
    4    1   13 1     
    5    2    3 1     
    6    2   14 1     
    7    2   15 1     
    8    3    4 1     
    9    3    8 1     
   10    3    5 1     
   11    5    6 1     
   12    5   16 1     
   13    5   17 1     
   14    6    7 1     
   15    6   18 1     
   16    6   19 1     
   17    7    8 1     
   18    7   20 1     
   19    7   21 1     
   20    8    9 1     
   21    8   22 1     
   22    9   10 1     
   23    9   23 1     
   24    9   24 1     
   25   10   25 1     
   26   10   26 1     
@<TRIPOS>SUBSTRUCTURE
      1 ****           1
@<TRIPOS>SET
DONOR_HYDROGENS      STATIC     ATOMS    <user>   **** ""
3 4 25 26
ATOM$RED        STATIC     ATOMS    COLORGROUP SYSTEM
3 4 25 26
@<TRIPOS>COMMENT
> <Gold.Version>
2022.2.0

> <Gold.Id.Protein>
3pbl|protein|mol2

> <Gold.Protein.RotatedTorsions>
[ 1303 1298 1297 1294 ] final  -16.19 input  179.99 | X-H torsion
[ 2461 2456 2455 2452 ] final   -7.65 input   30.03 | X-H torsion
[ 2515 2510 2509 2506 ] final  103.40 input  -89.99 | X-H torsion
[ 3721 3712 3711 3710 ] final  154.10 input -179.91 | X-H torsion
[ 3841 3832 3831 3830 ] final    6.16 input -179.91 | X-H torsion
[ 3767 3762 3761 3758 ] final  112.30 input  -89.99 | X-H torsion
[ 2472 2467 2466 2463 ] final  -21.26 input  -89.97 | X-H torsion

> <Gold.Protein.ActiveResidues>
 VAL82   VAL86   LEU89   PHE106  VAL107  ASP110  VAL111  MET112  CYS114  THR115 
 CYS181  SER182  ILE183  PHE188  VAL189  ILE190  SER192  SER193  SER196  TRP342 
 PHE345  PHE346  HIS349  VAL350  TYR365  THR369  GLY372  TYR373 

> <Gold.Protein.RotatedAtoms>
    3.3333   -9.6445    3.9221 H   0  0  0  0  0  0  0  0  0  0  0  0  # atno 1303 bound_to 1298
    0.9241   -8.0343    7.0359 H   0  0  0  0  0  0  0  0  0  0  0  0  # atno 2461 bound_to 2456
   -3.6588   -4.9704    8.3777 H   0  0  0  0  0  0  0  0  0  0  0  0  # atno 2472 bound_to 2467
    2.0291   -7.9134    5.9664 H   0  0  0  0  0  0  0  0  0  0  0  0  # atno 2515 bound_to 2510
   -3.2272  -16.8208   13.2363 H   0  0  0  0  0  0  0  0  0  0  0  0  # atno 3721 bound_to 3712
   -3.9984  -23.2418   10.7971 H   0  0  0  0  0  0  0  0  0  0  0  0  # atno 3767 bound_to 3762
    1.7934  -20.5556    9.5851 H   0  0  0  0  0  0  0  0  0  0  0  0  # atno 3841 bound_to 3832
    4.4473   -8.4966    4.2502 LP  0  0  0  0  0  0  0  0  0  0  0  0  # atno 4297 bound_to 1298
    4.5819   -9.9801    4.9194 LP  0  0  0  0  0  0  0  0  0  0  0  0  # atno 4298 bound_to 1298
    0.6647   -9.2194    8.1292 LP  0  0  0  0  0  0  0  0  0  0  0  0  # atno 4299 bound_to 2456
    2.1489   -8.5543    7.9828 LP  0  0  0  0  0  0  0  0  0  0  0  0  # atno 4300 bound_to 2456
    2.6473   -7.8294    4.4576 LP  0  0  0  0  0  0  0  0  0  0  0  0  # atno 4301 bound_to 2510
    2.6204   -9.2565    5.2508 LP  0  0  0  0  0  0  0  0  0  0  0  0  # atno 4302 bound_to 2510
   -2.6268  -18.2134   13.7637 LP  0  0  0  0  0  0  0  0  0  0  0  0  # atno 4306 bound_to 3712
   -3.1750  -17.0931   14.8178 LP  0  0  0  0  0  0  0  0  0  0  0  0  # atno 4307 bound_to 3712
    2.0528  -19.6397    8.2928 LP  0  0  0  0  0  0  0  0  0  0  0  0  # atno 4314 bound_to 3832
    3.1049  -20.8207    8.6987 LP  0  0  0  0  0  0  0  0  0  0  0  0  # atno 4315 bound_to 3832
   -5.3870  -22.6220   10.2018 LP  0  0  0  0  0  0  0  0  0  0  0  0  # atno 4318 bound_to 3762
   -4.7418  -22.0115   11.5721 LP  0  0  0  0  0  0  0  0  0  0  0  0  # atno 4319 bound_to 3762
   -4.8453   -5.4633    9.3854 LP  0  0  0  0  0  0  0  0  0  0  0  0  # atno 4320 bound_to 2467
   -5.2127   -4.9598    7.8760 LP  0  0  0  0  0  0  0  0  0  0  0  0  # atno 4321 bound_to 2467

> <Gold.Score>
     Score     S(PLP)   S(hbond)     S(cho)   S(metal)  DE(clash)   DE(tors)     intcor
     31.84     -23.14       2.98       0.00       0.00       0.00       0.11       0.00

> <Gold.PLP.Fitness>
31.8418

> <Gold.PLP.PLP>
-23.1417

> <Gold.PLP.part.hbond>
-2.0000

> <Gold.PLP.part.metal>
0.0000

> <Gold.PLP.part.buried>
-1.5311

> <Gold.PLP.part.nonpolar>
-19.7635

> <Gold.PLP.part.repulsive>
0.0000

> <Gold.PLP.ligand.clash>
0.0000

> <Gold.PLP.ligand.torsion>
0.1149

> <Gold.PLP.Chemscore.Hbond>
2.9760

> <Gold.PLP.Chemscore.CHOScore>
0.0000

> <Gold.PLP.Chemscore.Metal>
0.0000

> <Gold.Chemscore.Hbonds>
donor molecule, donor type, donor heavy atom, donor atom, acceptor molecule, acceptor atom, score
      L1  H     3     4       P1  1227  2.00
      L1  H    10    26       P1  3712  0.98

> <Gold.PLP.Chemscore.Internal.Correction>
0.0019

