#       Name:                amine_i004
#       Creating user name   fsindt
#       Creation time:       Fri Aug 11 18:08:31 2023


#       File generated by GOLD software.
#

@<TRIPOS>MOLECULE
amine_i004|amine|mol2|4|dock12
    26    26     1
SMALL
NO_CHARGES


@<TRIPOS>ATOM
      1 C1           0.9973 -12.2405   7.3017 C.3            1 <1>                0.0000
      2 C2           0.0194 -11.4867   8.2053 C.3            1 <1>                0.0000
      3 N3          -0.7731 -12.4504   8.9807 N.4            1 <1>                0.0000
      4 H4          -1.2627 -13.0709   8.3536 H              1 <1>                0.0000
      5 C5           0.1192 -13.2348   9.8606 C.3            1 <1>                0.0000
      6 C6          -0.6998 -13.4588  11.1562 C.3            1 <1>                0.0000
      7 C7          -1.4528 -12.1088  11.2882 C.3            1 <1>                0.0000
      8 C8          -1.7442 -11.7295   9.8241 C.3            1 <1>                0.0000
      9 C9          -1.5794 -10.2202   9.6346 C.3            1 <1>                0.0000
     10 N10         -2.5743  -9.5127  10.4516 N.3            1 <1>                0.0000
     11 H11          1.6628 -12.8489   7.9141 H              1 <1>                0.0000
     12 H12          0.4403 -12.8841   6.6207 H              1 <1>                0.0000
     13 H13          1.5853 -11.5255   6.7263 H              1 <1>                0.0000
     14 H14          0.5764 -10.8430   8.8862 H              1 <1>                0.0000
     15 H15         -0.6460 -10.8783   7.5929 H              1 <1>                0.0000
     16 H16          0.3652 -14.1901   9.3971 H              1 <1>                0.0000
     17 H17          1.0274 -12.6727  10.0782 H              1 <1>                0.0000
     18 H18         -1.3994 -14.2861  11.0377 H              1 <1>                0.0000
     19 H19         -0.0426 -13.6244  12.0098 H              1 <1>                0.0000
     20 H20         -2.3804 -12.2378  11.8460 H              1 <1>                0.0000
     21 H21         -0.8189 -11.3585  11.7607 H              1 <1>                0.0000
     22 H22         -2.7574 -12.0304   9.5576 H              1 <1>                0.0000
     23 H23         -0.5773  -9.9226   9.9437 H              1 <1>                0.0000
     24 H24         -1.7257  -9.9677   8.5844 H              1 <1>                0.0000
     25 H25         -2.3958  -9.6473  11.4357 H              1 <1>                0.0000
     26 H26         -2.6003  -8.5310  10.2199 H              1 <1>                0.0000
@<TRIPOS>BOND
    1    1    2 1     
    2    1   11 1     
    3    1   12 1     
    4    1   13 1     
    5    2    3 1     
    6    2   14 1     
    7    2   15 1     
    8    3    4 1     
    9    3    8 1     
   10    3    5 1     
   11    5    6 1     
   12    5   16 1     
   13    5   17 1     
   14    6    7 1     
   15    6   18 1     
   16    6   19 1     
   17    7    8 1     
   18    7   20 1     
   19    7   21 1     
   20    8    9 1     
   21    8   22 1     
   22    9   10 1     
   23    9   23 1     
   24    9   24 1     
   25   10   25 1     
   26   10   26 1     
@<TRIPOS>SUBSTRUCTURE
      1 ****           1
@<TRIPOS>SET
DONOR_HYDROGENS      STATIC     ATOMS    <user>   **** ""
3 4 25 26
ATOM$RED        STATIC     ATOMS    COLORGROUP SYSTEM
3 4 25 26
@<TRIPOS>COMMENT
> <Gold.Version>
2022.2.0

> <Gold.Id.Protein>
3pbl|protein|mol2

> <Gold.Protein.RotatedTorsions>
[ 1303 1298 1297 1294 ] final  -96.28 input  179.99 | X-H torsion
[ 2461 2456 2455 2452 ] final -115.64 input   30.03 | X-H torsion
[ 2515 2510 2509 2506 ] final -160.42 input  -89.99 | X-H torsion
[ 3721 3712 3711 3710 ] final  -10.76 input -179.91 | X-H torsion
[ 3841 3832 3831 3830 ] final   25.20 input -179.91 | X-H torsion
[ 3767 3762 3761 3758 ] final -104.22 input  -89.99 | X-H torsion
[ 2472 2467 2466 2463 ] final   70.97 input  -89.97 | X-H torsion

> <Gold.Protein.ActiveResidues>
 VAL82   VAL86   LEU89   PHE106  VAL107  ASP110  VAL111  MET112  CYS114  THR115 
 CYS181  SER182  ILE183  PHE188  VAL189  ILE190  SER192  SER193  SER196  TRP342 
 PHE345  PHE346  HIS349  VAL350  TYR365  THR369  GLY372  TYR373 

> <Gold.Protein.RotatedAtoms>
    3.9085   -8.5768    3.9075 H   0  0  0  0  0  0  0  0  0  0  0  0  # atno 1303 bound_to 1298
    0.5301   -9.1436    8.0066 H   0  0  0  0  0  0  0  0  0  0  0  0  # atno 2461 bound_to 2456
   -4.8198   -4.8474    7.6820 H   0  0  0  0  0  0  0  0  0  0  0  0  # atno 2472 bound_to 2467
    2.4603   -9.1970    5.6005 H   0  0  0  0  0  0  0  0  0  0  0  0  # atno 2515 bound_to 2510
   -2.5168  -17.8826   14.3839 H   0  0  0  0  0  0  0  0  0  0  0  0  # atno 3721 bound_to 3712
   -5.0582  -21.9190   11.3755 H   0  0  0  0  0  0  0  0  0  0  0  0  # atno 3767 bound_to 3762
    2.0056  -20.7441    9.6224 H   0  0  0  0  0  0  0  0  0  0  0  0  # atno 3841 bound_to 3832
    4.8871   -9.4136    4.9117 LP  0  0  0  0  0  0  0  0  0  0  0  0  # atno 4297 bound_to 1298
    3.5667  -10.1312    4.2726 LP  0  0  0  0  0  0  0  0  0  0  0  0  # atno 4298 bound_to 1298
    2.0980   -8.6977    8.1083 LP  0  0  0  0  0  0  0  0  0  0  0  0  # atno 4299 bound_to 2456
    1.1095   -7.9670    7.0333 LP  0  0  0  0  0  0  0  0  0  0  0  0  # atno 4300 bound_to 2456
    2.0695   -7.6162    5.7185 LP  0  0  0  0  0  0  0  0  0  0  0  0  # atno 4301 bound_to 2510
    2.7670   -8.1855    4.3561 LP  0  0  0  0  0  0  0  0  0  0  0  0  # atno 4302 bound_to 2510
   -3.4961  -16.6131   14.2991 LP  0  0  0  0  0  0  0  0  0  0  0  0  # atno 4306 bound_to 3712
   -3.1259  -17.4674   12.9575 LP  0  0  0  0  0  0  0  0  0  0  0  0  # atno 4307 bound_to 3712
    1.7886  -19.6515    8.4669 LP  0  0  0  0  0  0  0  0  0  0  0  0  # atno 4314 bound_to 3832
    3.1240  -20.5913    8.4814 LP  0  0  0  0  0  0  0  0  0  0  0  0  # atno 4315 bound_to 3832
   -3.9093  -23.0506   11.1178 LP  0  0  0  0  0  0  0  0  0  0  0  0  # atno 4318 bound_to 3762
   -5.1600  -22.9053   10.0779 LP  0  0  0  0  0  0  0  0  0  0  0  0  # atno 4319 bound_to 3762
   -3.6652   -5.1237    8.8032 LP  0  0  0  0  0  0  0  0  0  0  0  0  # atno 4320 bound_to 2467
   -5.2319   -5.4224    9.1537 LP  0  0  0  0  0  0  0  0  0  0  0  0  # atno 4321 bound_to 2467

> <Gold.Score>
     Score     S(PLP)   S(hbond)     S(cho)   S(metal)  DE(clash)   DE(tors)     intcor
     33.53     -30.54       1.00       0.00       0.00       0.00       0.01       0.00

> <Gold.PLP.Fitness>
33.5295

> <Gold.PLP.PLP>
-30.5406

> <Gold.PLP.part.hbond>
-1.0000

> <Gold.PLP.part.metal>
0.0000

> <Gold.PLP.part.buried>
-3.0362

> <Gold.PLP.part.nonpolar>
-27.3061

> <Gold.PLP.part.repulsive>
0.0000

> <Gold.PLP.ligand.clash>
0.0000

> <Gold.PLP.ligand.torsion>
0.0065

> <Gold.PLP.Chemscore.Hbond>
1.0000

> <Gold.PLP.Chemscore.CHOScore>
0.0000

> <Gold.PLP.Chemscore.Metal>
0.0000

> <Gold.Chemscore.Hbonds>
donor molecule, donor type, donor heavy atom, donor atom, acceptor molecule, acceptor atom, score
      L1  H    10    26       P1  2398  1.00

> <Gold.PLP.Chemscore.Internal.Correction>
0.0019

