#       Name:                amine_i004
#       Creating user name   fsindt
#       Creation time:       Fri Aug 11 18:08:27 2023


#       File generated by GOLD software.
#

@<TRIPOS>MOLECULE
amine_i004|amine|mol2|4|dock6
    26    26     1
SMALL
NO_CHARGES


@<TRIPOS>ATOM
      1 C1          -1.4190 -12.1437  10.8309 C.3            1 <1>                0.0000
      2 C2          -0.1364 -11.9909  10.0109 C.3            1 <1>                0.0000
      3 N3          -0.2707 -12.7316   8.7494 N.4            1 <1>                0.0000
      4 H4          -1.2294 -12.7001   8.4367 H              1 <1>                0.0000
      5 C5           0.6074 -12.1299   7.7233 C.3            1 <1>                0.0000
      6 C6           1.1235 -13.3302   6.8911 C.3            1 <1>                0.0000
      7 C7           1.3064 -14.4146   7.9854 C.3            1 <1>                0.0000
      8 C8           0.1397 -14.1333   8.9510 C.3            1 <1>                0.0000
      9 C9           0.5988 -14.3391  10.3959 C.3            1 <1>                0.0000
     10 N10          0.7904 -15.7734  10.6493 N.3            1 <1>                0.0000
     11 H11         -2.2618 -11.7472  10.2648 H              1 <1>                0.0000
     12 H12         -1.5896 -13.1987  11.0455 H              1 <1>                0.0000
     13 H13         -1.3194 -11.5941  11.7671 H              1 <1>                0.0000
     14 H14          0.0341 -10.9359   9.7964 H              1 <1>                0.0000
     15 H15          0.7063 -12.3874  10.5772 H              1 <1>                0.0000
     16 H16          0.0399 -11.4463   7.0918 H              1 <1>                0.0000
     17 H17          1.4406 -11.6090   8.1950 H              1 <1>                0.0000
     18 H18          0.3836 -13.6408   6.1535 H              1 <1>                0.0000
     19 H19          2.0740 -13.0939   6.4129 H              1 <1>                0.0000
     20 H20          1.2211 -15.4131   7.5566 H              1 <1>                0.0000
     21 H21          2.2632 -14.2924   8.4929 H              1 <1>                0.0000
     22 H22         -0.6954 -14.7969   8.7269 H              1 <1>                0.0000
     23 H23          1.5397 -13.8129  10.5566 H              1 <1>                0.0000
     24 H24         -0.1573 -13.9478  11.0766 H              1 <1>                0.0000
     25 H25          1.4547 -16.1695  10.0011 H              1 <1>                0.0000
     26 H26          1.0745 -15.9372  11.6035 H              1 <1>                0.0000
@<TRIPOS>BOND
    1    1    2 1     
    2    1   11 1     
    3    1   12 1     
    4    1   13 1     
    5    2    3 1     
    6    2   14 1     
    7    2   15 1     
    8    3    4 1     
    9    3    8 1     
   10    3    5 1     
   11    5    6 1     
   12    5   16 1     
   13    5   17 1     
   14    6    7 1     
   15    6   18 1     
   16    6   19 1     
   17    7    8 1     
   18    7   20 1     
   19    7   21 1     
   20    8    9 1     
   21    8   22 1     
   22    9   10 1     
   23    9   23 1     
   24    9   24 1     
   25   10   25 1     
   26   10   26 1     
@<TRIPOS>SUBSTRUCTURE
      1 ****           1
@<TRIPOS>SET
DONOR_HYDROGENS      STATIC     ATOMS    <user>   **** ""
3 4 25 26
ATOM$RED        STATIC     ATOMS    COLORGROUP SYSTEM
3 4 25 26
@<TRIPOS>COMMENT
> <Gold.Version>
2022.2.0

> <Gold.Id.Protein>
3pbl|protein|mol2

> <Gold.Protein.RotatedTorsions>
[ 1303 1298 1297 1294 ] final   36.23 input  179.99 | X-H torsion
[ 2461 2456 2455 2452 ] final -107.60 input   30.03 | X-H torsion
[ 2515 2510 2509 2506 ] final   34.64 input  -89.99 | X-H torsion
[ 3721 3712 3711 3710 ] final   36.23 input -179.91 | X-H torsion
[ 3841 3832 3831 3830 ] final  175.65 input -179.91 | X-H torsion
[ 3767 3762 3761 3758 ] final   11.75 input  -89.99 | X-H torsion
[ 2472 2467 2466 2463 ] final -178.38 input  -89.97 | X-H torsion

> <Gold.Protein.ActiveResidues>
 VAL82   VAL86   LEU89   PHE106  VAL107  ASP110  VAL111  MET112  CYS114  THR115 
 CYS181  SER182  ILE183  PHE188  VAL189  ILE190  SER192  SER193  SER196  TRP342 
 PHE345  PHE346  HIS349  VAL350  TYR365  THR369  GLY372  TYR373 

> <Gold.Protein.RotatedAtoms>
    3.7020  -10.2175    4.4007 H   0  0  0  0  0  0  0  0  0  0  0  0  # atno 1303 bound_to 1298
    0.4573   -9.0793    7.9169 H   0  0  0  0  0  0  0  0  0  0  0  0  # atno 2461 bound_to 2456
   -5.3314   -5.3932    9.0403 H   0  0  0  0  0  0  0  0  0  0  0  0  # atno 2472 bound_to 2467
    2.3008   -7.4133    5.0669 H   0  0  0  0  0  0  0  0  0  0  0  0  # atno 2515 bound_to 2510
   -2.4964  -18.0231   13.7079 H   0  0  0  0  0  0  0  0  0  0  0  0  # atno 3721 bound_to 3712
   -5.2052  -22.8583   10.0897 H   0  0  0  0  0  0  0  0  0  0  0  0  # atno 3767 bound_to 3762
    2.9936  -20.1003    8.4342 H   0  0  0  0  0  0  0  0  0  0  0  0  # atno 3841 bound_to 3832
    3.7486   -8.6854    3.8379 LP  0  0  0  0  0  0  0  0  0  0  0  0  # atno 4297 bound_to 1298
    4.9117   -9.2182    4.8529 LP  0  0  0  0  0  0  0  0  0  0  0  0  # atno 4298 bound_to 1298
    2.0428   -8.7917    8.1830 LP  0  0  0  0  0  0  0  0  0  0  0  0  # atno 4299 bound_to 2456
    1.2374   -7.9372    7.0483 LP  0  0  0  0  0  0  0  0  0  0  0  0  # atno 4300 bound_to 2456
    2.8285   -8.8736    4.5619 LP  0  0  0  0  0  0  0  0  0  0  0  0  # atno 4301 bound_to 2510
    2.1675   -8.7127    6.0465 LP  0  0  0  0  0  0  0  0  0  0  0  0  # atno 4302 bound_to 2510
   -3.1818  -17.0818   14.8134 LP  0  0  0  0  0  0  0  0  0  0  0  0  # atno 4306 bound_to 3712
   -3.4637  -16.8366   13.2237 LP  0  0  0  0  0  0  0  0  0  0  0  0  # atno 4307 bound_to 3712
    2.3076  -21.1232    9.4633 LP  0  0  0  0  0  0  0  0  0  0  0  0  # atno 4314 bound_to 3832
    1.4637  -19.8632    8.8576 LP  0  0  0  0  0  0  0  0  0  0  0  0  # atno 4315 bound_to 3832
   -5.0070  -21.9272   11.4167 LP  0  0  0  0  0  0  0  0  0  0  0  0  # atno 4318 bound_to 3762
   -3.9154  -23.0896   11.0644 LP  0  0  0  0  0  0  0  0  0  0  0  0  # atno 4319 bound_to 3762
   -4.6697   -4.8225    7.6609 LP  0  0  0  0  0  0  0  0  0  0  0  0  # atno 4320 bound_to 2467
   -3.7160   -5.1778    8.9380 LP  0  0  0  0  0  0  0  0  0  0  0  0  # atno 4321 bound_to 2467

> <Gold.Score>
     Score     S(PLP)   S(hbond)     S(cho)   S(metal)  DE(clash)   DE(tors)     intcor
     32.02     -29.76       0.99       0.00       0.00       0.00       0.36       0.00

> <Gold.PLP.Fitness>
32.0190

> <Gold.PLP.PLP>
-29.7607

> <Gold.PLP.part.hbond>
-1.0000

> <Gold.PLP.part.metal>
0.0000

> <Gold.PLP.part.buried>
-3.0778

> <Gold.PLP.part.nonpolar>
-25.8827

> <Gold.PLP.part.repulsive>
0.0000

> <Gold.PLP.ligand.clash>
0.0000

> <Gold.PLP.ligand.torsion>
0.3598

> <Gold.PLP.Chemscore.Hbond>
0.9920

> <Gold.PLP.Chemscore.CHOScore>
0.0000

> <Gold.PLP.Chemscore.Metal>
0.0000

> <Gold.Chemscore.Hbonds>
donor molecule, donor type, donor heavy atom, donor atom, acceptor molecule, acceptor atom, score
      L1  H    10    25       P1  1227  0.99

> <Gold.PLP.Chemscore.Internal.Correction>
0.0019

