#       Name:                amine_i004
#       Creating user name   fsindt
#       Creation time:       Fri Aug 11 18:08:27 2023


#       File generated by GOLD software.
#

@<TRIPOS>MOLECULE
amine_i004|amine|mol2|4|dock5
    26    26     1
SMALL
NO_CHARGES


@<TRIPOS>ATOM
      1 C1          -0.7018 -17.8147   8.6679 C.3            1 <1>                0.0000
      2 C2          -0.3999 -16.5601   9.4899 C.3            1 <1>                0.0000
      3 N3           0.6828 -15.8028   8.8478 N.4            1 <1>                0.0000
      4 H4           1.5330 -16.3460   8.8624 H              1 <1>                0.0000
      5 C5           0.3133 -15.4945   7.4499 C.3            1 <1>                0.0000
      6 C6           0.8983 -14.0843   7.1879 C.3            1 <1>                0.0000
      7 C7           0.6691 -13.3907   8.5566 C.3            1 <1>                0.0000
      8 C8           0.8933 -14.5324   9.5659 C.3            1 <1>                0.0000
      9 C9          -0.1070 -14.4130  10.7175 C.3            1 <1>                0.0000
     10 N10          0.4618 -15.0255  11.9256 N.3            1 <1>                0.0000
     11 H11         -1.0073 -17.5256   7.6624 H              1 <1>                0.0000
     12 H12          0.1922 -18.4359   8.6115 H              1 <1>                0.0000
     13 H13         -1.5052 -18.3767   9.1443 H              1 <1>                0.0000
     14 H14         -1.2938 -15.9389   9.5463 H              1 <1>                0.0000
     15 H15         -0.0944 -16.8493  10.4954 H              1 <1>                0.0000
     16 H16          0.7577 -16.2219   6.7707 H              1 <1>                0.0000
     17 H17         -0.7709 -15.4823   7.3379 H              1 <1>                0.0000
     18 H18          1.9609 -14.1402   6.9517 H              1 <1>                0.0000
     19 H19          0.3499 -13.5751   6.3954 H              1 <1>                0.0000
     20 H20          1.3941 -12.5913   8.7098 H              1 <1>                0.0000
     21 H21         -0.3490 -13.0082   8.6290 H              1 <1>                0.0000
     22 H22          1.9121 -14.4921   9.9511 H              1 <1>                0.0000
     23 H23         -0.3174 -13.3606  10.9083 H              1 <1>                0.0000
     24 H24         -1.0311 -14.9258  10.4508 H              1 <1>                0.0000
     25 H25          1.2823 -15.5691  11.7033 H              1 <1>                0.0000
     26 H26          0.6695 -14.3258  12.6222 H              1 <1>                0.0000
@<TRIPOS>BOND
    1    1    2 1     
    2    1   11 1     
    3    1   12 1     
    4    1   13 1     
    5    2    3 1     
    6    2   14 1     
    7    2   15 1     
    8    3    4 1     
    9    3    8 1     
   10    3    5 1     
   11    5    6 1     
   12    5   16 1     
   13    5   17 1     
   14    6    7 1     
   15    6   18 1     
   16    6   19 1     
   17    7    8 1     
   18    7   20 1     
   19    7   21 1     
   20    8    9 1     
   21    8   22 1     
   22    9   10 1     
   23    9   23 1     
   24    9   24 1     
   25   10   25 1     
   26   10   26 1     
@<TRIPOS>SUBSTRUCTURE
      1 ****           1
@<TRIPOS>SET
DONOR_HYDROGENS      STATIC     ATOMS    <user>   **** ""
3 4 25 26
ATOM$RED        STATIC     ATOMS    COLORGROUP SYSTEM
3 4 25 26
@<TRIPOS>COMMENT
> <Gold.Version>
2022.2.0

> <Gold.Id.Protein>
3pbl|protein|mol2

> <Gold.Protein.RotatedTorsions>
[ 1303 1298 1297 1294 ] final  142.01 input  179.99 | X-H torsion
[ 2461 2456 2455 2452 ] final -152.13 input   30.03 | X-H torsion
[ 2515 2510 2509 2506 ] final  -56.62 input  -89.99 | X-H torsion
[ 3721 3712 3711 3710 ] final  168.11 input -179.91 | X-H torsion
[ 3841 3832 3831 3830 ] final -109.40 input -179.91 | X-H torsion
[ 3767 3762 3761 3758 ] final -108.20 input  -89.99 | X-H torsion
[ 2472 2467 2466 2463 ] final -157.89 input  -89.97 | X-H torsion

> <Gold.Protein.ActiveResidues>
 VAL82   VAL86   LEU89   PHE106  VAL107  ASP110  VAL111  MET112  CYS114  THR115 
 CYS181  SER182  ILE183  PHE188  VAL189  ILE190  SER192  SER193  SER196  TRP342 
 PHE345  PHE346  HIS349  VAL350  TYR365  THR369  GLY372  TYR373 

> <Gold.Protein.RotatedAtoms>
    4.8804   -9.4402    4.9180 H   0  0  0  0  0  0  0  0  0  0  0  0  # atno 1303 bound_to 1298
    1.0100   -9.2885    8.3188 H   0  0  0  0  0  0  0  0  0  0  0  0  # atno 2461 bound_to 2456
   -5.0907   -5.4485    9.2671 H   0  0  0  0  0  0  0  0  0  0  0  0  # atno 2472 bound_to 2467
    2.8166   -8.4460    4.3720 H   0  0  0  0  0  0  0  0  0  0  0  0  # atno 2515 bound_to 2510
   -3.2880  -16.6906   13.3913 H   0  0  0  0  0  0  0  0  0  0  0  0  # atno 3721 bound_to 3712
   -5.0073  -21.9265   11.4159 H   0  0  0  0  0  0  0  0  0  0  0  0  # atno 3767 bound_to 3762
    2.0831  -19.5797    8.5319 H   0  0  0  0  0  0  0  0  0  0  0  0  # atno 3841 bound_to 3832
    3.5500  -10.1164    4.2552 LP  0  0  0  0  0  0  0  0  0  0  0  0  # atno 4297 bound_to 1298
    3.9315   -8.5647    3.9182 LP  0  0  0  0  0  0  0  0  0  0  0  0  # atno 4298 bound_to 1298
    2.1298   -8.2751    7.6973 LP  0  0  0  0  0  0  0  0  0  0  0  0  # atno 4299 bound_to 2456
    0.5980   -8.2447    7.1322 LP  0  0  0  0  0  0  0  0  0  0  0  0  # atno 4300 bound_to 2456
    2.3467   -9.0714    5.8052 LP  0  0  0  0  0  0  0  0  0  0  0  0  # atno 4301 bound_to 2510
    2.1333   -7.4817    5.4985 LP  0  0  0  0  0  0  0  0  0  0  0  0  # atno 4302 bound_to 2510
   -2.6736  -18.1665   13.5396 LP  0  0  0  0  0  0  0  0  0  0  0  0  # atno 4306 bound_to 3712
   -3.0580  -17.2902   14.8629 LP  0  0  0  0  0  0  0  0  0  0  0  0  # atno 4307 bound_to 3712
    3.1098  -20.8044    8.6810 LP  0  0  0  0  0  0  0  0  0  0  0  0  # atno 4314 bound_to 3832
    1.7132  -20.7834    9.5270 LP  0  0  0  0  0  0  0  0  0  0  0  0  # atno 4315 bound_to 3832
   -3.9153  -23.0890   11.0652 LP  0  0  0  0  0  0  0  0  0  0  0  0  # atno 4318 bound_to 3762
   -5.2049  -22.8593   10.0902 LP  0  0  0  0  0  0  0  0  0  0  0  0  # atno 4319 bound_to 3762
   -4.9899   -4.8854    7.7377 LP  0  0  0  0  0  0  0  0  0  0  0  0  # atno 4320 bound_to 2467
   -3.6364   -5.0597    8.6345 LP  0  0  0  0  0  0  0  0  0  0  0  0  # atno 4321 bound_to 2467

> <Gold.Score>
     Score     S(PLP)   S(hbond)     S(cho)   S(metal)  DE(clash)   DE(tors)     intcor
     33.15     -27.84       2.00       0.00       0.00       0.00       0.34       0.00

> <Gold.PLP.Fitness>
33.1513

> <Gold.PLP.PLP>
-27.8368

> <Gold.PLP.part.hbond>
-1.0000

> <Gold.PLP.part.metal>
0.0000

> <Gold.PLP.part.buried>
-2.5008

> <Gold.PLP.part.nonpolar>
-24.6351

> <Gold.PLP.part.repulsive>
0.0000

> <Gold.PLP.ligand.clash>
0.0000

> <Gold.PLP.ligand.torsion>
0.3437

> <Gold.PLP.Chemscore.Hbond>
2.0000

> <Gold.PLP.Chemscore.CHOScore>
0.0000

> <Gold.PLP.Chemscore.Metal>
0.0000

> <Gold.Chemscore.Hbonds>
donor molecule, donor type, donor heavy atom, donor atom, acceptor molecule, acceptor atom, score
      L1  H     3     4       P1  1227  2.00

> <Gold.PLP.Chemscore.Internal.Correction>
0.0019

