#       Name:                amine_i004
#       Creating user name   fsindt
#       Creation time:       Fri Aug 11 18:08:34 2023


#       File generated by GOLD software.
#

@<TRIPOS>MOLECULE
amine_i004|amine|mol2|4|dock16
    26    26     1
SMALL
NO_CHARGES


@<TRIPOS>ATOM
      1 C1          -0.6916 -18.5676  10.7348 C.3            1 <1>                0.0000
      2 C2           0.0626 -18.7936  12.0466 C.3            1 <1>                0.0000
      3 N3           1.1250 -17.7879  12.1801 N.4            1 <1>                0.0000
      4 H4           1.7838 -17.8863  11.4224 H              1 <1>                0.0000
      5 C5           0.5339 -16.4330  12.1528 C.3            1 <1>                0.0000
      6 C6           1.3880 -15.6086  13.1479 C.3            1 <1>                0.0000
      7 C7           1.6718 -16.6541  14.2584 C.3            1 <1>                0.0000
      8 C8           1.8196 -17.9680  13.4682 C.3            1 <1>                0.0000
      9 C9           1.1810 -19.1191  14.2480 C.3            1 <1>                0.0000
     10 N10          1.9987 -19.4228  15.4300 N.3            1 <1>                0.0000
     11 H11         -1.1329 -17.5710  10.7363 H              1 <1>                0.0000
     12 H12          0.0007 -18.6571   9.8976 H              1 <1>                0.0000
     13 H13         -1.4800 -19.3138  10.6356 H              1 <1>                0.0000
     14 H14         -0.6297 -18.7042  12.8838 H              1 <1>                0.0000
     15 H15          0.5038 -19.7903  12.0450 H              1 <1>                0.0000
     16 H16          0.6032 -16.0090  11.1511 H              1 <1>                0.0000
     17 H17         -0.5050 -16.4656  12.4809 H              1 <1>                0.0000
     18 H18          2.3144 -15.2726  12.6821 H              1 <1>                0.0000
     19 H19          0.8223 -14.7643  13.5418 H              1 <1>                0.0000
     20 H20          2.5948 -16.4146  14.7864 H              1 <1>                0.0000
     21 H21          0.8340 -16.7156  14.9529 H              1 <1>                0.0000
     22 H22          2.8745 -18.1775  13.2910 H              1 <1>                0.0000
     23 H23          0.1782 -18.8315  14.5641 H              1 <1>                0.0000
     24 H24          1.1221 -20.0013  13.6105 H              1 <1>                0.0000
     25 H25          1.8410 -18.7467  16.1623 H              1 <1>                0.0000
     26 H26          1.8236 -20.3603  15.7596 H              1 <1>                0.0000
@<TRIPOS>BOND
    1    1    2 1     
    2    1   11 1     
    3    1   12 1     
    4    1   13 1     
    5    2    3 1     
    6    2   14 1     
    7    2   15 1     
    8    3    4 1     
    9    3    8 1     
   10    3    5 1     
   11    5    6 1     
   12    5   16 1     
   13    5   17 1     
   14    6    7 1     
   15    6   18 1     
   16    6   19 1     
   17    7    8 1     
   18    7   20 1     
   19    7   21 1     
   20    8    9 1     
   21    8   22 1     
   22    9   10 1     
   23    9   23 1     
   24    9   24 1     
   25   10   25 1     
   26   10   26 1     
@<TRIPOS>SUBSTRUCTURE
      1 ****           1
@<TRIPOS>SET
DONOR_HYDROGENS      STATIC     ATOMS    <user>   **** ""
3 4 25 26
ATOM$RED        STATIC     ATOMS    COLORGROUP SYSTEM
3 4 25 26
@<TRIPOS>COMMENT
> <Gold.Version>
2022.2.0

> <Gold.Id.Protein>
3pbl|protein|mol2

> <Gold.Protein.RotatedTorsions>
[ 1303 1298 1297 1294 ] final  -64.84 input  179.99 | X-H torsion
[ 2461 2456 2455 2452 ] final  104.57 input   30.03 | X-H torsion
[ 2515 2510 2509 2506 ] final   11.54 input  -89.99 | X-H torsion
[ 3721 3712 3711 3710 ] final   90.82 input -179.91 | X-H torsion
[ 3841 3832 3831 3830 ] final -114.56 input -179.91 | X-H torsion
[ 3767 3762 3761 3758 ] final  -68.28 input  -89.99 | X-H torsion
[ 2472 2467 2466 2463 ] final -176.60 input  -89.97 | X-H torsion

> <Gold.Protein.ActiveResidues>
 VAL82   VAL86   LEU89   PHE106  VAL107  ASP110  VAL111  MET112  CYS114  THR115 
 CYS181  SER182  ILE183  PHE188  VAL189  ILE190  SER192  SER193  SER196  TRP342 
 PHE345  PHE346  HIS349  VAL350  TYR365  THR369  GLY372  TYR373 

> <Gold.Protein.RotatedAtoms>
    3.5421   -8.9098    3.7821 H   0  0  0  0  0  0  0  0  0  0  0  0  # atno 1303 bound_to 1298
    2.1611   -8.4620    7.8950 H   0  0  0  0  0  0  0  0  0  0  0  0  # atno 2461 bound_to 2456
   -5.3139   -5.3995    9.0630 H   0  0  0  0  0  0  0  0  0  0  0  0  # atno 2472 bound_to 2467
    2.4610   -7.5235    4.7435 H   0  0  0  0  0  0  0  0  0  0  0  0  # atno 2515 bound_to 2510
   -2.7898  -17.6055   13.0992 H   0  0  0  0  0  0  0  0  0  0  0  0  # atno 3721 bound_to 3712
   -5.4155  -22.0040   10.9244 H   0  0  0  0  0  0  0  0  0  0  0  0  # atno 3767 bound_to 3762
    2.1507  -19.5835    8.4935 H   0  0  0  0  0  0  0  0  0  0  0  0  # atno 3841 bound_to 3832
    4.8776   -8.9397    4.7212 LP  0  0  0  0  0  0  0  0  0  0  0  0  # atno 4297 bound_to 1298
    3.9427  -10.2720    4.5885 LP  0  0  0  0  0  0  0  0  0  0  0  0  # atno 4298 bound_to 1298
    0.8111   -8.0917    7.0537 LP  0  0  0  0  0  0  0  0  0  0  0  0  # atno 4299 bound_to 2456
    0.7659   -9.2544    8.1995 LP  0  0  0  0  0  0  0  0  0  0  0  0  # atno 4300 bound_to 2456
    2.7666   -9.1246    4.8370 LP  0  0  0  0  0  0  0  0  0  0  0  0  # atno 4301 bound_to 2510
    2.0692   -8.3514    6.0950 LP  0  0  0  0  0  0  0  0  0  0  0  0  # atno 4302 bound_to 2510
   -2.7583  -17.8405   14.6871 LP  0  0  0  0  0  0  0  0  0  0  0  0  # atno 4306 bound_to 3712
   -3.5485  -16.5600   14.0527 LP  0  0  0  0  0  0  0  0  0  0  0  0  # atno 4307 bound_to 3712
    3.0903  -20.8605    8.7433 LP  0  0  0  0  0  0  0  0  0  0  0  0  # atno 4314 bound_to 3832
    1.6547  -20.7230    9.5091 LP  0  0  0  0  0  0  0  0  0  0  0  0  # atno 4315 bound_to 3832
   -4.0272  -22.6356   11.5079 LP  0  0  0  0  0  0  0  0  0  0  0  0  # atno 4318 bound_to 3762
   -4.6849  -23.2352   10.1388 LP  0  0  0  0  0  0  0  0  0  0  0  0  # atno 4319 bound_to 3762
   -4.6986   -4.8265    7.6632 LP  0  0  0  0  0  0  0  0  0  0  0  0  # atno 4320 bound_to 2467
   -3.7045   -5.1676    8.9131 LP  0  0  0  0  0  0  0  0  0  0  0  0  # atno 4321 bound_to 2467

> <Gold.Score>
     Score     S(PLP)   S(hbond)     S(cho)   S(metal)  DE(clash)   DE(tors)     intcor
     30.85     -23.76       2.39       0.00       0.00       0.00       0.05       0.00

> <Gold.PLP.Fitness>
30.8543

> <Gold.PLP.PLP>
-23.7639

> <Gold.PLP.part.hbond>
-2.0000

> <Gold.PLP.part.metal>
0.0000

> <Gold.PLP.part.buried>
-3.0391

> <Gold.PLP.part.nonpolar>
-19.1587

> <Gold.PLP.part.repulsive>
0.0000

> <Gold.PLP.ligand.clash>
0.0000

> <Gold.PLP.ligand.torsion>
0.0471

> <Gold.PLP.Chemscore.Hbond>
2.3944

> <Gold.PLP.Chemscore.CHOScore>
0.0000

> <Gold.PLP.Chemscore.Metal>
0.0000

> <Gold.Chemscore.Hbonds>
donor molecule, donor type, donor heavy atom, donor atom, acceptor molecule, acceptor atom, score
      L1  H     3     4       P1  1227  2.00
      L1  H    10    25       P1  2287  0.39

> <Gold.PLP.Chemscore.Internal.Correction>
0.0013

