#       Name:                plp ligand
#       Creating user name   fsindt
#       Creation time:       Fri Aug 11 18:08:24 2023


#       File generated by GOLD software.
#

@<TRIPOS>MOLECULE
plp ligand
    26    26     1
SMALL
NO_CHARGES


@<TRIPOS>ATOM
      1 C1           2.6066  -1.2301  -0.0421 NONPOLAR       1 <1>                0.0000
      2 C2           1.0795  -1.1498  -0.0904 NONPOLAR       1 <1>                0.0000
      3 N3           0.6319   0.0745   0.5869 DONOR          1 <1>                0.0000
      4 H4           1.0008   0.0983   1.5257                1 <1>                0.0000
      5 C5           1.1029   1.2585  -0.1629 NONPOLAR       1 <1>                0.0000
      6 C6          -0.0425   2.2928  -0.0292 NONPOLAR       1 <1>                0.0000
      7 C7          -1.2967   1.3825  -0.1010 NONPOLAR       1 <1>                0.0000
      8 C8          -0.8415   0.1064   0.6317 NONPOLAR       1 <1>                0.0000
      9 C9          -1.4109  -1.1281  -0.0703 NONPOLAR       1 <1>                0.0000
     10 N10         -2.8777  -1.1017   0.0058 DONACC         1 <1>                0.0000
     11 H11          3.0323  -0.3611  -0.5437                1 <1>                0.0000
     12 H12          2.9368  -1.2481   0.9966                1 <1>                0.0000
     13 H13          2.9388  -2.1386  -0.5446                1 <1>                0.0000
     14 H14          0.7493  -1.1319  -1.1290                1 <1>                0.0000
     15 H15          0.6539  -2.0189   0.4112                1 <1>                0.0000
     16 H16          2.0196   1.6480   0.2798                1 <1>                0.0000
     17 H17          1.2645   1.0046  -1.2105                1 <1>                0.0000
     18 H18          0.0094   2.8112   0.9282                1 <1>                0.0000
     19 H19         -0.0268   3.0019  -0.8568                1 <1>                0.0000
     20 H20         -2.1385   1.8448   0.4145                1 <1>                0.0000
     21 H21         -1.5527   1.1602  -1.1369                1 <1>                0.0000
     22 H22         -1.1774   0.1341   1.6683                1 <1>                0.0000
     23 H23         -1.1012  -1.1269  -1.1154                1 <1>                0.0000
     24 H24         -1.0379  -2.0283   0.4182                1 <1>                0.0000
     25 H25         -3.2446  -0.2459  -0.3831                1 <1>                0.0000
     26 H26         -3.2780  -1.9073  -0.4512                1 <1>                0.0000
@<TRIPOS>BOND
    1    1    2 1     
    2    1   11 1     
    3    1   12 1     
    4    1   13 1     
    5    2    3 1     
    6    2   14 1     
    7    2   15 1     
    8    3    4 1     
    9    3    8 1     
   10    3    5 1     
   11    5    6 1     
   12    5   16 1     
   13    5   17 1     
   14    6    7 1     
   15    6   18 1     
   16    6   19 1     
   17    7    8 1     
   18    7   20 1     
   19    7   21 1     
   20    8    9 1     
   21    8   22 1     
   22    9   10 1     
   23    9   23 1     
   24    9   24 1     
   25   10   25 1     
   26   10   26 1     
@<TRIPOS>SUBSTRUCTURE
      1 ****           1
@<TRIPOS>SET
DONOR_HYDROGENS      STATIC     ATOMS    <user>   **** ""
3 4 25 26
ATOM$RED        STATIC     ATOMS    COLORGROUP SYSTEM
3 4 25 26
