#       Name:                EN300-6738463_i001
#       Creating user name   aseyller
#       Creation time:       Fri Apr 21 19:06:37 2023


#       File generated by GOLD software.
#

@<TRIPOS>MOLECULE
EN300-6738463_i001
    37    37     1
SMALL
USER_CHARGES


@<TRIPOS>ATOM
      1 C1           0.6309   2.5335   0.2896 C.3            1 <1>                0.0000
      2 C2           1.4780   1.2763   0.4962 C.3            1 <1>                0.0000
      3 C3           2.5648   1.2047  -0.5836 C.3            1 <1>                0.0000
      4 N4           3.1937  -0.1225  -0.5296 N.pl3          1 <1>                0.0000
      5 C5           2.3420  -1.3149  -0.6409 C.3            1 <1>                0.0000
      6 C6           1.2552  -1.2434   0.4389 C.3            1 <1>                0.0000
      7 N7           0.6262   0.0838   0.3849 N.am           1 <1>                0.0000
      8 C8          -0.7078   0.2052   0.2365 C.2            1 <1>                0.0000
      9 O9          -1.2062   1.3047   0.0979 O.2            1 <1>                0.0000
     10 O10         -1.4883  -0.8918   0.2419 O.3            1 <1>                0.0000
     11 C11         -2.9161  -0.6858   0.0770 C.3            1 <1>                0.0000
     12 C12         -3.1808   0.0005  -1.2645 C.3            1 <1>                0.0000
     13 C13         -3.6334  -2.0369   0.1090 C.3            1 <1>                0.0000
     14 C14         -3.4387   0.1960   1.2129 C.3            1 <1>                0.0000
     15 S15          4.8329  -0.2716  -0.3473 S.o2           1 <1>                0.0000
     16 O16          5.2022  -1.4749  -1.0069 O.2            1 <1>                0.0000
     17 O17          5.3896   0.9949  -0.6717 O.2            1 <1>                0.0000
     18 Cl18         5.1915  -0.5656   1.6187 Cl             1 <1>                0.0000
     19 H19          0.1374   2.4837  -0.6810 H              1 <1>                0.0000
     20 H20         -0.1206   2.5986   1.0764 H              1 <1>                0.0000
     21 H21          1.2724   3.4140   0.3262 H              1 <1>                0.0000
     22 H22          1.9429   1.3063   1.4816 H              1 <1>                0.0000
     23 H23          2.1159   1.3572  -1.5651 H              1 <1>                0.0000
     24 H24          3.3155   1.9730  -0.3986 H              1 <1>                0.0000
     25 H25          1.8772  -1.3419  -1.6265 H              1 <1>                0.0000
     26 H26          2.9455  -2.2106  -0.4937 H              1 <1>                0.0000
     27 H27          0.5045  -2.0117   0.2539 H              1 <1>                0.0000
     28 H28          1.7041  -1.3958   1.4204 H              1 <1>                0.0000
     29 H29         -2.8086  -0.6277  -2.0738 H              1 <1>                0.0000
     30 H30         -4.2527   0.1552  -1.3883 H              1 <1>                0.0000
     31 H31         -2.6698   0.9631  -1.2873 H              1 <1>                0.0000
     32 H32         -3.4448  -2.5258   1.0647 H              1 <1>                0.0000
     33 H33         -4.7053  -1.8822  -0.0148 H              1 <1>                0.0000
     34 H34         -3.2611  -2.6651  -0.7003 H              1 <1>                0.0000
     35 H35         -2.9277   1.1585   1.1901 H              1 <1>                0.0000
     36 H36         -4.5105   0.3507   1.0892 H              1 <1>                0.0000
     37 H37         -3.2501  -0.2930   2.1687 H              1 <1>                0.0000
@<TRIPOS>BOND
    1    1    2 1     
    2    1   19 1     
    3    1   20 1     
    4    1   21 1     
    5    2    3 1     
    6    2    7 1     
    7    2   22 1     
    8    3    4 1     
    9    3   23 1     
   10    3   24 1     
   11    4    5 1     
   12    4   15 1     
   13    5    6 1     
   14    5   25 1     
   15    5   26 1     
   16    6    7 1     
   17    6   27 1     
   18    6   28 1     
   19    7    8 am    
   20    8    9 2     
   21    8   10 1     
   22   10   11 1     
   23   11   12 1     
   24   11   13 1     
   25   11   14 1     
   26   12   29 1     
   27   12   30 1     
   28   12   31 1     
   29   13   32 1     
   30   13   33 1     
   31   13   34 1     
   32   14   35 1     
   33   14   36 1     
   34   14   37 1     
   35   15   16 2     
   36   15   17 2     
   37   15   18 1     
@<TRIPOS>SUBSTRUCTURE
      1 ****           1
