#       Name:                EN300-6738463_i001
#       Creating user name   aseyller
#       Creation time:       Fri Apr 21 19:06:43 2023


#       File generated by GOLD software.
#

@<TRIPOS>MOLECULE
EN300-6738463_i001|Sulfonylchlorides|mol2|733|dock7
    37    37     1
SMALL
USER_CHARGES


@<TRIPOS>ATOM
      1 C1          31.2897  35.0613  38.7652 C.3            1 <1>                0.0000
      2 C2          30.6566  35.9606  37.7017 C.3            1 <1>                0.0000
      3 C3          31.5978  37.1309  37.3905 C.3            1 <1>                0.0000
      4 N4          30.8719  38.1127  36.5726 N.pl3          1 <1>                0.0000
      5 C5          29.6015  38.6531  37.0763 C.3            1 <1>                0.0000
      6 C6          28.6602  37.4830  37.3874 C.3            1 <1>                0.0000
      7 N7          29.3861  36.5011  38.2054 N.am           1 <1>                0.0000
      8 C8          28.8953  36.1030  39.3957 C.2            1 <1>                0.0000
      9 O9          29.5483  35.3644  40.1059 O.2            1 <1>                0.0000
     10 O10         27.6812  36.5237  39.7980 O.3            1 <1>                0.0000
     11 C11         27.3446  36.3248  41.1963 C.3            1 <1>                0.0000
     12 C12         26.0096  37.0070  41.5015 C.3            1 <1>                0.0000
     13 C13         27.2295  34.8267  41.4851 C.3            1 <1>                0.0000
     14 C14         28.4400  36.9310  42.0759 C.3            1 <1>                0.0000
     15 S15         31.4751  38.6018  35.1099 S.o2           1 <1>                0.0000
     16 O16         32.8353  38.1916  35.0794 O.2            1 <1>                0.0000
     17 O17         30.5226  38.2089  34.1314 O.2            1 <1>                0.0000
     18 Cl18        31.4884  40.6217  35.1140 Cl             1 <1>                0.0000
     19 H19         31.4332  35.6304  39.6837 H              1 <1>                0.0000
     20 H20         30.6332  34.2136  38.9618 H              1 <1>                0.0000
     21 H21         32.2536  34.6990  38.4079 H              1 <1>                0.0000
     22 H22         30.4777  35.3839  36.7942 H              1 <1>                0.0000
     23 H23         31.9214  37.5975  38.3209 H              1 <1>                0.0000
     24 H24         32.4652  36.7663  36.8402 H              1 <1>                0.0000
     25 H25         29.7828  39.2282  37.9843 H              1 <1>                0.0000
     26 H26         29.1505  39.2939  36.3185 H              1 <1>                0.0000
     27 H27         27.7928  37.8475  37.9377 H              1 <1>                0.0000
     28 H28         28.3367  37.0163  36.4570 H              1 <1>                0.0000
     29 H29         25.2292  36.5751  40.8750 H              1 <1>                0.0000
     30 H30         25.7568  36.8577  42.5513 H              1 <1>                0.0000
     31 H31         26.0916  38.0744  41.2958 H              1 <1>                0.0000
     32 H32         28.1806  34.3407  41.2676 H              1 <1>                0.0000
     33 H33         26.9767  34.6774  42.5349 H              1 <1>                0.0000
     34 H34         26.4491  34.3948  40.8585 H              1 <1>                0.0000
     35 H35         28.5219  37.9982  41.8701 H              1 <1>                0.0000
     36 H36         28.1873  36.7817  43.1256 H              1 <1>                0.0000
     37 H37         29.3911  36.4449  41.8584 H              1 <1>                0.0000
@<TRIPOS>BOND
    1    1    2 1     
    2    1   19 1     
    3    1   20 1     
    4    1   21 1     
    5    2    3 1     
    6    2    7 1     
    7    2   22 1     
    8    3    4 1     
    9    3   23 1     
   10    3   24 1     
   11    4    5 1     
   12    4   15 1     
   13    5    6 1     
   14    5   25 1     
   15    5   26 1     
   16    6    7 1     
   17    6   27 1     
   18    6   28 1     
   19    7    8 am    
   20    8    9 2     
   21    8   10 1     
   22   10   11 1     
   23   11   12 1     
   24   11   13 1     
   25   11   14 1     
   26   12   29 1     
   27   12   30 1     
   28   12   31 1     
   29   13   32 1     
   30   13   33 1     
   31   13   34 1     
   32   14   35 1     
   33   14   36 1     
   34   14   37 1     
   35   15   16 2     
   36   15   17 2     
   37   15   18 1     
@<TRIPOS>SUBSTRUCTURE
      1 ****           1
@<TRIPOS>COMMENT
> <Gold.Version>
2022.2.0

> <Gold.Id.Protein>
1qkm|1qkm_protein|mol2

> <Gold.Protein.RotatedTorsions>
[  496  491  490  487 ] final -111.46 input  -89.99 | X-H torsion

> <Gold.Protein.ActiveResidues>
 MET295  LEU298  THR299  LEU301  ALA302  GLU305  TRP335  MET336  LEU339  MET340 
 GLY342  LEU343  ARG346  PHE356  ILE373  ILE376  PHE377  LEU380  LYS471  GLY472 
 MET473  HIS475  LEU476  LEU477  ASN478  MET479  VAL484  VAL487 

> <Gold.Protein.RotatedAtoms>
   36.9531   34.4592   40.8616 H   0  0  0  0  0  0  0  0  0  0  0  0  # atno 496  bound_to 491 

> <Gold.Score>
     Score     S(PLP)   S(hbond)     S(cho)   S(metal)  DE(clash)   DE(tors)     intcor
     39.65     -39.82       0.00       0.00       0.00      17.46       1.31      19.92

> <Gold.PLP.Fitness>
39.6536

> <Gold.PLP.PLP>
-39.8150

> <Gold.PLP.part.hbond>
0.0000

> <Gold.PLP.part.metal>
0.0000

> <Gold.PLP.part.buried>
0.9588

> <Gold.PLP.part.nonpolar>
-43.0848

> <Gold.PLP.part.repulsive>
0.9626

> <Gold.PLP.ligand.clash>
17.4603

> <Gold.PLP.ligand.torsion>
1.3100

> <Gold.PLP.Chemscore.Hbond>
0.0000

> <Gold.PLP.Chemscore.CHOScore>
0.0000

> <Gold.PLP.Chemscore.Metal>
0.0000

> <Gold.PLP.Chemscore.Internal.Correction>
19.9188

