#       Name:                EN300-6738463_i001
#       Creating user name   aseyller
#       Creation time:       Fri Apr 21 19:06:38 2023


#       File generated by GOLD software.
#

@<TRIPOS>MOLECULE
EN300-6738463_i001|Sulfonylchlorides|mol2|733|dock2
    37    37     1
SMALL
USER_CHARGES


@<TRIPOS>ATOM
      1 C1          31.7567  33.9412  38.5563 C.3            1 <1>                0.0000
      2 C2          30.9274  35.1099  39.0922 C.3            1 <1>                0.0000
      3 C3          29.4453  34.7170  39.1250 C.3            1 <1>                0.0000
      4 N4          28.6459  35.9215  39.3896 N.pl3          1 <1>                0.0000
      5 C5          28.8038  37.0846  38.5054 C.3            1 <1>                0.0000
      6 C6          30.2859  37.4776  38.4725 C.3            1 <1>                0.0000
      7 N7          31.0853  36.2731  38.2079 N.am           1 <1>                0.0000
      8 C8          31.9482  36.2360  37.1733 C.2            1 <1>                0.0000
      9 O9          32.5332  35.2049  36.9066 O.2            1 <1>                0.0000
     10 O10         32.1620  37.3415  36.4351 O.3            1 <1>                0.0000
     11 C11         32.5102  37.1450  35.0393 C.3            1 <1>                0.0000
     12 C12         33.9403  36.6104  34.9408 C.3            1 <1>                0.0000
     13 C13         31.5450  36.1385  34.4097 C.3            1 <1>                0.0000
     14 C14         32.4121  38.4790  34.2965 C.3            1 <1>                0.0000
     15 S15         27.5856  35.9670  40.6609 S.o2           1 <1>                0.0000
     16 O16         26.5843  36.9140  40.3146 O.2            1 <1>                0.0000
     17 O17         27.2964  34.6154  40.9907 O.2            1 <1>                0.0000
     18 Cl18        28.5794  36.7395  42.2407 Cl             1 <1>                0.0000
     19 H19         31.4469  33.7132  37.5364 H              1 <1>                0.0000
     20 H20         32.8126  34.2115  38.5634 H              1 <1>                0.0000
     21 H21         31.6015  33.0660  39.1873 H              1 <1>                0.0000
     22 H22         31.2608  35.3640  40.0983 H              1 <1>                0.0000
     23 H23         29.1583  34.2913  38.1635 H              1 <1>                0.0000
     24 H24         29.2780  33.9860  39.9160 H              1 <1>                0.0000
     25 H25         28.4711  36.8276  37.4997 H              1 <1>                0.0000
     26 H26         28.2130  37.9173  38.8871 H              1 <1>                0.0000
     27 H27         30.4532  38.2087  37.6815 H              1 <1>                0.0000
     28 H28         30.5729  37.9032  39.4341 H              1 <1>                0.0000
     29 H29         34.0103  35.6600  35.4699 H              1 <1>                0.0000
     30 H30         34.2018  36.4629  33.8929 H              1 <1>                0.0000
     31 H31         34.6280  37.3274  35.3893 H              1 <1>                0.0000
     32 H32         30.5262  36.5194  34.4798 H              1 <1>                0.0000
     33 H33         31.8065  35.9910  33.3617 H              1 <1>                0.0000
     34 H34         31.6150  35.1881  34.9388 H              1 <1>                0.0000
     35 H35         33.0997  39.1959  34.7450 H              1 <1>                0.0000
     36 H36         32.6735  38.3316  33.2487 H              1 <1>                0.0000
     37 H37         31.3932  38.8599  34.3667 H              1 <1>                0.0000
@<TRIPOS>BOND
    1    1    2 1     
    2    1   19 1     
    3    1   20 1     
    4    1   21 1     
    5    2    3 1     
    6    2    7 1     
    7    2   22 1     
    8    3    4 1     
    9    3   23 1     
   10    3   24 1     
   11    4    5 1     
   12    4   15 1     
   13    5    6 1     
   14    5   25 1     
   15    5   26 1     
   16    6    7 1     
   17    6   27 1     
   18    6   28 1     
   19    7    8 am    
   20    8    9 2     
   21    8   10 1     
   22   10   11 1     
   23   11   12 1     
   24   11   13 1     
   25   11   14 1     
   26   12   29 1     
   27   12   30 1     
   28   12   31 1     
   29   13   32 1     
   30   13   33 1     
   31   13   34 1     
   32   14   35 1     
   33   14   36 1     
   34   14   37 1     
   35   15   16 2     
   36   15   17 2     
   37   15   18 1     
@<TRIPOS>SUBSTRUCTURE
      1 ****           1
@<TRIPOS>COMMENT
> <Gold.Version>
2022.2.0

> <Gold.Id.Protein>
1qkm|1qkm_protein|mol2

> <Gold.Protein.RotatedTorsions>
[  496  491  490  487 ] final  -31.79 input  -89.99 | X-H torsion

> <Gold.Protein.ActiveResidues>
 MET295  LEU298  THR299  LEU301  ALA302  GLU305  TRP335  MET336  LEU339  MET340 
 GLY342  LEU343  ARG346  PHE356  ILE373  ILE376  PHE377  LEU380  LYS471  GLY472 
 MET473  HIS475  LEU476  LEU477  ASN478  MET479  VAL484  VAL487 

> <Gold.Protein.RotatedAtoms>
   36.3225   34.5869   41.8844 H   0  0  0  0  0  0  0  0  0  0  0  0  # atno 496  bound_to 491 

> <Gold.Score>
     Score     S(PLP)   S(hbond)     S(cho)   S(metal)  DE(clash)   DE(tors)     intcor
     43.51     -44.03       0.00       0.00       0.00      17.46       1.49      19.92

> <Gold.PLP.Fitness>
43.5099

> <Gold.PLP.PLP>
-44.0349

> <Gold.PLP.part.hbond>
0.0000

> <Gold.PLP.part.metal>
0.0000

> <Gold.PLP.part.buried>
2.7914

> <Gold.PLP.part.nonpolar>
-48.4500

> <Gold.PLP.part.repulsive>
0.7922

> <Gold.PLP.ligand.clash>
17.4603

> <Gold.PLP.ligand.torsion>
1.4918

> <Gold.PLP.Chemscore.Hbond>
0.0000

> <Gold.PLP.Chemscore.CHOScore>
0.0000

> <Gold.PLP.Chemscore.Metal>
0.0000

> <Gold.PLP.Chemscore.Internal.Correction>
19.9188

