#       Name:                EN300-6738463_i001
#       Creating user name   aseyller
#       Creation time:       Fri Apr 21 19:06:42 2023


#       File generated by GOLD software.
#

@<TRIPOS>MOLECULE
EN300-6738463_i001|Sulfonylchlorides|mol2|733|dock6
    37    37     1
SMALL
USER_CHARGES


@<TRIPOS>ATOM
      1 C1          29.0005  38.6966  37.5710 C.3            1 <1>                0.0000
      2 C2          30.3821  38.0436  37.4952 C.3            1 <1>                0.0000
      3 C3          30.6675  37.6088  36.0524 C.3            1 <1>                0.0000
      4 N4          31.8677  36.7607  36.0462 N.pl3          1 <1>                0.0000
      5 C5          31.8995  35.5720  36.9097 C.3            1 <1>                0.0000
      6 C6          31.6141  36.0067  38.3526 C.3            1 <1>                0.0000
      7 N7          30.4138  36.8548  38.3588 N.am           1 <1>                0.0000
      8 C8          29.3613  36.5483  39.1428 C.2            1 <1>                0.0000
      9 O9          29.4346  35.6191  39.9224 O.2            1 <1>                0.0000
     10 O10         28.2286  37.2715  39.0621 O.3            1 <1>                0.0000
     11 C11         27.0001  36.6214  39.4819 C.3            1 <1>                0.0000
     12 C12         26.8786  35.2636  38.7875 C.3            1 <1>                0.0000
     13 C13         27.0227  36.4186  40.9982 C.3            1 <1>                0.0000
     14 C14         25.8042  37.4971  39.1023 C.3            1 <1>                0.0000
     15 S15         33.1610  37.1374  35.0828 S.o2           1 <1>                0.0000
     16 O16         32.9930  36.4005  33.8794 O.2            1 <1>                0.0000
     17 O17         33.2878  38.5523  35.1165 O.2            1 <1>                0.0000
     18 Cl18        34.8113  36.3953  35.9804 Cl             1 <1>                0.0000
     19 H19         28.2396  37.9717  37.2817 H              1 <1>                0.0000
     20 H20         28.8131  39.0329  38.5907 H              1 <1>                0.0000
     21 H21         28.9646  39.5505  36.8944 H              1 <1>                0.0000
     22 H22         31.1413  38.7551  37.8197 H              1 <1>                0.0000
     23 H23         29.8188  37.0446  35.6656 H              1 <1>                0.0000
     24 H24         30.8382  38.4887  35.4321 H              1 <1>                0.0000
     25 H25         31.1385  34.8627  36.5841 H              1 <1>                0.0000
     26 H26         32.8838  35.1068  36.8557 H              1 <1>                0.0000
     27 H27         31.4434  35.1268  38.9728 H              1 <1>                0.0000
     28 H28         32.4627  36.5710  38.7393 H              1 <1>                0.0000
     29 H29         27.7305  34.6396  39.0579 H              1 <1>                0.0000
     30 H30         25.9562  34.7755  39.1026 H              1 <1>                0.0000
     31 H31         26.8625  35.4080  37.7072 H              1 <1>                0.0000
     32 H32         27.1092  37.3860  41.4929 H              1 <1>                0.0000
     33 H33         26.1003  35.9305  41.3133 H              1 <1>                0.0000
     34 H34         27.8746  35.7947  41.2686 H              1 <1>                0.0000
     35 H35         25.7881  37.6416  38.0220 H              1 <1>                0.0000
     36 H36         24.8819  37.0092  39.4173 H              1 <1>                0.0000
     37 H37         25.8908  38.4646  39.5970 H              1 <1>                0.0000
@<TRIPOS>BOND
    1    1    2 1     
    2    1   19 1     
    3    1   20 1     
    4    1   21 1     
    5    2    3 1     
    6    2    7 1     
    7    2   22 1     
    8    3    4 1     
    9    3   23 1     
   10    3   24 1     
   11    4    5 1     
   12    4   15 1     
   13    5    6 1     
   14    5   25 1     
   15    5   26 1     
   16    6    7 1     
   17    6   27 1     
   18    6   28 1     
   19    7    8 am    
   20    8    9 2     
   21    8   10 1     
   22   10   11 1     
   23   11   12 1     
   24   11   13 1     
   25   11   14 1     
   26   12   29 1     
   27   12   30 1     
   28   12   31 1     
   29   13   32 1     
   30   13   33 1     
   31   13   34 1     
   32   14   35 1     
   33   14   36 1     
   34   14   37 1     
   35   15   16 2     
   36   15   17 2     
   37   15   18 1     
@<TRIPOS>SUBSTRUCTURE
      1 ****           1
@<TRIPOS>COMMENT
> <Gold.Version>
2022.2.0

> <Gold.Id.Protein>
1qkm|1qkm_protein|mol2

> <Gold.Protein.RotatedTorsions>
[  496  491  490  487 ] final  147.66 input  -89.99 | X-H torsion

> <Gold.Protein.ActiveResidues>
 MET295  LEU298  THR299  LEU301  ALA302  GLU305  TRP335  MET336  LEU339  MET340 
 GLY342  LEU343  ARG346  PHE356  ILE373  ILE376  PHE377  LEU380  LYS471  GLY472 
 MET473  HIS475  LEU476  LEU477  ASN478  MET479  VAL484  VAL487 

> <Gold.Protein.RotatedAtoms>
   37.2526   33.0837   41.2263 H   0  0  0  0  0  0  0  0  0  0  0  0  # atno 496  bound_to 491 

> <Gold.Score>
     Score     S(PLP)   S(hbond)     S(cho)   S(metal)  DE(clash)   DE(tors)     intcor
     40.01     -41.27       0.00       0.00       0.00      17.93       1.62      19.92

> <Gold.PLP.Fitness>
40.0106

> <Gold.PLP.PLP>
-41.2711

> <Gold.PLP.part.hbond>
-0.8821

> <Gold.PLP.part.metal>
0.0000

> <Gold.PLP.part.buried>
-0.3604

> <Gold.PLP.part.nonpolar>
-44.0838

> <Gold.PLP.part.repulsive>
4.2199

> <Gold.PLP.ligand.clash>
17.9335

> <Gold.PLP.ligand.torsion>
1.6228

> <Gold.PLP.Chemscore.Hbond>
0.0000

> <Gold.PLP.Chemscore.CHOScore>
0.0000

> <Gold.PLP.Chemscore.Metal>
0.0000

> <Gold.PLP.Chemscore.Internal.Correction>
19.9188

