#       Name:                EN300-6738463_i001
#       Creating user name   aseyller
#       Creation time:       Fri Apr 21 19:06:54 2023


#       File generated by GOLD software.
#

@<TRIPOS>MOLECULE
EN300-6738463_i001|Sulfonylchlorides|mol2|733|dock16
    37    37     1
SMALL
USER_CHARGES


@<TRIPOS>ATOM
      1 C1          30.8660  35.6363  38.8620 C.3            1 <1>                0.0000
      2 C2          29.6547  36.5477  39.0685 C.3            1 <1>                0.0000
      3 C3          28.4102  35.6951  39.3454 C.3            1 <1>                0.0000
      4 N4          27.2242  36.5607  39.2816 N.pl3          1 <1>                0.0000
      5 C5          26.9899  37.3526  38.0661 C.3            1 <1>                0.0000
      6 C6          28.2343  38.2053  37.7892 C.3            1 <1>                0.0000
      7 N7          29.4203  37.3397  37.8529 N.am           1 <1>                0.0000
      8 C8          30.2779  37.2737  36.8153 C.2            1 <1>                0.0000
      9 O9          30.1272  38.0028  35.8551 O.2            1 <1>                0.0000
     10 O10         31.3017  36.3998  36.8428 O.3            1 <1>                0.0000
     11 C11         32.5084  36.7753  36.1277 C.3            1 <1>                0.0000
     12 C12         32.2494  36.7107  34.6213 C.3            1 <1>                0.0000
     13 C13         32.9087  38.2001  36.5159 C.3            1 <1>                0.0000
     14 C14         33.6385  35.8107  36.4928 C.3            1 <1>                0.0000
     15 S15         26.1704  36.6417  40.5565 S.o2           1 <1>                0.0000
     16 O16         25.1834  37.6003  40.2010 O.2            1 <1>                0.0000
     17 O17         25.8601  35.3000  40.9066 O.2            1 <1>                0.0000
     18 Cl18        27.1837  37.4197  42.1212 Cl             1 <1>                0.0000
     19 H19         30.6966  34.9976  37.9951 H              1 <1>                0.0000
     20 H20         31.7548  36.2451  38.6967 H              1 <1>                0.0000
     21 H21         31.0097  35.0166  39.7472 H              1 <1>                0.0000
     22 H22         29.8372  37.2132  39.9123 H              1 <1>                0.0000
     23 H23         28.3305  34.9094  38.5941 H              1 <1>                0.0000
     24 H24         28.4851  35.2498  40.3374 H              1 <1>                0.0000
     25 H25         26.8090  36.6850  37.2236 H              1 <1>                0.0000
     26 H26         26.1269  38.0020  38.2132 H              1 <1>                0.0000
     27 H27         28.1594  38.6506  36.7971 H              1 <1>                0.0000
     28 H28         28.3140  38.9909  38.5405 H              1 <1>                0.0000
     29 H29         31.4443  37.3979  34.3611 H              1 <1>                0.0000
     30 H30         33.1553  36.9926  34.0844 H              1 <1>                0.0000
     31 H31         31.9642  35.6956  34.3447 H              1 <1>                0.0000
     32 H32         33.0931  38.2460  37.5891 H              1 <1>                0.0000
     33 H33         33.8145  38.4820  35.9790 H              1 <1>                0.0000
     34 H34         32.1035  38.8873  36.2557 H              1 <1>                0.0000
     35 H35         33.3533  34.7957  36.2163 H              1 <1>                0.0000
     36 H36         34.5444  36.0925  35.9561 H              1 <1>                0.0000
     37 H37         33.8230  35.8567  37.5661 H              1 <1>                0.0000
@<TRIPOS>BOND
    1    1    2 1     
    2    1   19 1     
    3    1   20 1     
    4    1   21 1     
    5    2    3 1     
    6    2    7 1     
    7    2   22 1     
    8    3    4 1     
    9    3   23 1     
   10    3   24 1     
   11    4    5 1     
   12    4   15 1     
   13    5    6 1     
   14    5   25 1     
   15    5   26 1     
   16    6    7 1     
   17    6   27 1     
   18    6   28 1     
   19    7    8 am    
   20    8    9 2     
   21    8   10 1     
   22   10   11 1     
   23   11   12 1     
   24   11   13 1     
   25   11   14 1     
   26   12   29 1     
   27   12   30 1     
   28   12   31 1     
   29   13   32 1     
   30   13   33 1     
   31   13   34 1     
   32   14   35 1     
   33   14   36 1     
   34   14   37 1     
   35   15   16 2     
   36   15   17 2     
   37   15   18 1     
@<TRIPOS>SUBSTRUCTURE
      1 ****           1
@<TRIPOS>COMMENT
> <Gold.Version>
2022.2.0

> <Gold.Id.Protein>
1qkm|1qkm_protein|mol2

> <Gold.Protein.RotatedTorsions>
[  496  491  490  487 ] final  160.85 input  -89.99 | X-H torsion

> <Gold.Protein.ActiveResidues>
 MET295  LEU298  THR299  LEU301  ALA302  GLU305  TRP335  MET336  LEU339  MET340 
 GLY342  LEU343  ARG346  PHE356  ILE373  ILE376  PHE377  LEU380  LYS471  GLY472 
 MET473  HIS475  LEU476  LEU477  ASN478  MET479  VAL484  VAL487 

> <Gold.Protein.RotatedAtoms>
   37.2989   33.2149   41.0603 H   0  0  0  0  0  0  0  0  0  0  0  0  # atno 496  bound_to 491 

> <Gold.Score>
     Score     S(PLP)   S(hbond)     S(cho)   S(metal)  DE(clash)   DE(tors)     intcor
     37.05     -38.14       0.00       0.00       0.00      17.93       1.52      19.89

> <Gold.PLP.Fitness>
37.0536

> <Gold.PLP.PLP>
-38.1403

> <Gold.PLP.part.hbond>
0.0000

> <Gold.PLP.part.metal>
0.0000

> <Gold.PLP.part.buried>
1.2853

> <Gold.PLP.part.nonpolar>
-41.5766

> <Gold.PLP.part.repulsive>
1.3396

> <Gold.PLP.ligand.clash>
17.9335

> <Gold.PLP.ligand.torsion>
1.5219

> <Gold.PLP.Chemscore.Hbond>
0.0000

> <Gold.PLP.Chemscore.CHOScore>
0.0000

> <Gold.PLP.Chemscore.Metal>
0.0000

> <Gold.PLP.Chemscore.Internal.Correction>
19.8907

