#       Name:                EN300-6738463_i001
#       Creating user name   aseyller
#       Creation time:       Fri Apr 21 19:06:49 2023


#       File generated by GOLD software.
#

@<TRIPOS>MOLECULE
EN300-6738463_i001|Sulfonylchlorides|mol2|733|dock12
    37    37     1
SMALL
USER_CHARGES


@<TRIPOS>ATOM
      1 C1          28.1710  37.9610  37.7166 C.3            1 <1>                0.0000
      2 C2          29.6742  37.7950  37.4850 C.3            1 <1>                0.0000
      3 C3          29.9241  37.3151  36.0499 C.3            1 <1>                0.0000
      4 N4          31.3328  36.9146  35.9272 N.pl3          1 <1>                0.0000
      5 C5          31.8673  35.9106  36.8578 C.3            1 <1>                0.0000
      6 C6          31.6175  36.3904  38.2929 C.3            1 <1>                0.0000
      7 N7          30.2088  36.7909  38.4156 N.am           1 <1>                0.0000
      8 C8          29.4214  36.2476  39.3649 C.2            1 <1>                0.0000
      9 O9          29.8963  35.4908  40.1884 O.2            1 <1>                0.0000
     10 O10         28.1084  36.5433  39.4007 O.3            1 <1>                0.0000
     11 C11         27.4137  36.3085  40.6539 C.3            1 <1>                0.0000
     12 C12         27.2883  34.8026  40.8932 C.3            1 <1>                0.0000
     13 C13         28.2026  36.9432  41.8010 C.3            1 <1>                0.0000
     14 C14         26.0183  36.9325  40.5882 C.3            1 <1>                0.0000
     15 S15         32.3003  37.5822  34.7607 S.o2           1 <1>                0.0000
     16 O16         33.3943  36.6918  34.5888 O.2            1 <1>                0.0000
     17 O17         31.4394  37.9697  33.6988 O.2            1 <1>                0.0000
     18 Cl18        33.0674  39.2877  35.5244 Cl             1 <1>                0.0000
     19 H19         27.6759  36.9978  37.5934 H              1 <1>                0.0000
     20 H20         27.9978  38.3320  38.7267 H              1 <1>                0.0000
     21 H21         27.7684  38.6714  36.9946 H              1 <1>                0.0000
     22 H22         30.1765  38.7492  37.6442 H              1 <1>                0.0000
     23 H23         29.2810  36.4624  35.8321 H              1 <1>                0.0000
     24 H24         29.7117  38.1244  35.3513 H              1 <1>                0.0000
     25 H25         31.3626  34.9578  36.6976 H              1 <1>                0.0000
     26 H26         32.9383  35.7923  36.6928 H              1 <1>                0.0000
     27 H27         31.8299  35.5812  38.9915 H              1 <1>                0.0000
     28 H28         32.2606  37.2432  38.5106 H              1 <1>                0.0000
     29 H29         28.2824  34.3580  40.9401 H              1 <1>                0.0000
     30 H30         26.7668  34.6264  41.8340 H              1 <1>                0.0000
     31 H31         26.7263  34.3504  40.0760 H              1 <1>                0.0000
     32 H32         28.2920  38.0160  41.6305 H              1 <1>                0.0000
     33 H33         27.6811  36.7670  42.7419 H              1 <1>                0.0000
     34 H34         29.1968  36.4987  41.8479 H              1 <1>                0.0000
     35 H35         25.4563  36.4803  39.7711 H              1 <1>                0.0000
     36 H36         25.4968  36.7563  41.5290 H              1 <1>                0.0000
     37 H37         26.1077  38.0054  40.4178 H              1 <1>                0.0000
@<TRIPOS>BOND
    1    1    2 1     
    2    1   19 1     
    3    1   20 1     
    4    1   21 1     
    5    2    3 1     
    6    2    7 1     
    7    2   22 1     
    8    3    4 1     
    9    3   23 1     
   10    3   24 1     
   11    4    5 1     
   12    4   15 1     
   13    5    6 1     
   14    5   25 1     
   15    5   26 1     
   16    6    7 1     
   17    6   27 1     
   18    6   28 1     
   19    7    8 am    
   20    8    9 2     
   21    8   10 1     
   22   10   11 1     
   23   11   12 1     
   24   11   13 1     
   25   11   14 1     
   26   12   29 1     
   27   12   30 1     
   28   12   31 1     
   29   13   32 1     
   30   13   33 1     
   31   13   34 1     
   32   14   35 1     
   33   14   36 1     
   34   14   37 1     
   35   15   16 2     
   36   15   17 2     
   37   15   18 1     
@<TRIPOS>SUBSTRUCTURE
      1 ****           1
@<TRIPOS>COMMENT
> <Gold.Version>
2022.2.0

> <Gold.Id.Protein>
1qkm|1qkm_protein|mol2

> <Gold.Protein.RotatedTorsions>
[  496  491  490  487 ] final -139.34 input  -89.99 | X-H torsion

> <Gold.Protein.ActiveResidues>
 MET295  LEU298  THR299  LEU301  ALA302  GLU305  TRP335  MET336  LEU339  MET340 
 GLY342  LEU343  ARG346  PHE356  ILE373  ILE376  PHE377  LEU380  LYS471  GLY472 
 MET473  HIS475  LEU476  LEU477  ASN478  MET479  VAL484  VAL487 

> <Gold.Protein.RotatedAtoms>
   37.1696   34.0839   40.7248 H   0  0  0  0  0  0  0  0  0  0  0  0  # atno 496  bound_to 491 

> <Gold.Score>
     Score     S(PLP)   S(hbond)     S(cho)   S(metal)  DE(clash)   DE(tors)     intcor
     36.32     -37.09       0.00       0.00       0.00      17.93       1.36      19.89

> <Gold.PLP.Fitness>
36.3222

> <Gold.PLP.PLP>
-37.0862

> <Gold.PLP.part.hbond>
0.0000

> <Gold.PLP.part.metal>
0.0000

> <Gold.PLP.part.buried>
-2.6358

> <Gold.PLP.part.nonpolar>
-37.1372

> <Gold.PLP.part.repulsive>
2.9819

> <Gold.PLP.ligand.clash>
17.9335

> <Gold.PLP.ligand.torsion>
1.3606

> <Gold.PLP.Chemscore.Hbond>
0.0000

> <Gold.PLP.Chemscore.CHOScore>
0.0000

> <Gold.PLP.Chemscore.Metal>
0.0000

> <Gold.PLP.Chemscore.Internal.Correction>
19.8907

