#       Name:                EN300-6738463_i001
#       Creating user name   aseyller
#       Creation time:       Fri Apr 21 19:06:50 2023


#       File generated by GOLD software.
#

@<TRIPOS>MOLECULE
EN300-6738463_i001|Sulfonylchlorides|mol2|733|dock13
    37    37     1
SMALL
USER_CHARGES


@<TRIPOS>ATOM
      1 C1          28.5293  38.8144  37.5610 C.3            1 <1>                0.0000
      2 C2          29.9510  38.2631  37.4361 C.3            1 <1>                0.0000
      3 C3          30.2183  37.8530  35.9826 C.3            1 <1>                0.0000
      4 N4          31.4757  37.0939  35.9326 N.pl3          1 <1>                0.0000
      5 C5          31.6221  35.9088  36.7892 C.3            1 <1>                0.0000
      6 C6          31.3549  36.3188  38.2427 C.3            1 <1>                0.0000
      7 N7          30.0974  37.0779  38.2929 N.am           1 <1>                0.0000
      8 C8          29.0968  36.6945  39.1102 C.2            1 <1>                0.0000
      9 O9          29.2631  35.7714  39.8827 O.2            1 <1>                0.0000
     10 O10         27.9128  37.3342  39.0707 O.3            1 <1>                0.0000
     11 C11         26.7373  36.5693  39.4467 C.3            1 <1>                0.0000
     12 C12         26.7272  35.2424  38.6852 C.3            1 <1>                0.0000
     13 C13         26.7681  36.2936  40.9514 C.3            1 <1>                0.0000
     14 C14         25.4780  37.3659  39.1000 C.3            1 <1>                0.0000
     15 S15         32.7052  37.5650  34.9282 S.o2           1 <1>                0.0000
     16 O16         33.7267  36.5856  35.0576 O.2            1 <1>                0.0000
     17 O17         32.1025  37.8999  33.6857 O.2            1 <1>                0.0000
     18 Cl18        33.4631  39.2817  35.6756 Cl             1 <1>                0.0000
     19 H19         27.8133  38.0370  37.2941 H              1 <1>                0.0000
     20 H20         28.3524  39.1341  38.5879 H              1 <1>                0.0000
     21 H21         28.4090  39.6648  36.8899 H              1 <1>                0.0000
     22 H22         30.6674  39.0269  37.7383 H              1 <1>                0.0000
     23 H23         29.4000  37.2298  35.6220 H              1 <1>                0.0000
     24 H24         30.3041  38.7442  35.3610 H              1 <1>                0.0000
     25 H25         30.9038  35.1471  36.4860 H              1 <1>                0.0000
     26 H26         32.6350  35.5160  36.7003 H              1 <1>                0.0000
     27 H27         31.2691  35.4276  38.8644 H              1 <1>                0.0000
     28 H28         32.1731  36.9421  38.6034 H              1 <1>                0.0000
     29 H29         27.6243  34.6747  38.9323 H              1 <1>                0.0000
     30 H30         25.8447  34.6681  38.9675 H              1 <1>                0.0000
     31 H31         26.7052  35.4388  37.6132 H              1 <1>                0.0000
     32 H32         26.7754  37.2389  41.4939 H              1 <1>                0.0000
     33 H33         25.8857  35.7193  41.2337 H              1 <1>                0.0000
     34 H34         27.6653  35.7259  41.1984 H              1 <1>                0.0000
     35 H35         25.4560  37.5623  38.0281 H              1 <1>                0.0000
     36 H36         24.5955  36.7918  39.3822 H              1 <1>                0.0000
     37 H37         25.4852  38.3113  39.6426 H              1 <1>                0.0000
@<TRIPOS>BOND
    1    1    2 1     
    2    1   19 1     
    3    1   20 1     
    4    1   21 1     
    5    2    3 1     
    6    2    7 1     
    7    2   22 1     
    8    3    4 1     
    9    3   23 1     
   10    3   24 1     
   11    4    5 1     
   12    4   15 1     
   13    5    6 1     
   14    5   25 1     
   15    5   26 1     
   16    6    7 1     
   17    6   27 1     
   18    6   28 1     
   19    7    8 am    
   20    8    9 2     
   21    8   10 1     
   22   10   11 1     
   23   11   12 1     
   24   11   13 1     
   25   11   14 1     
   26   12   29 1     
   27   12   30 1     
   28   12   31 1     
   29   13   32 1     
   30   13   33 1     
   31   13   34 1     
   32   14   35 1     
   33   14   36 1     
   34   14   37 1     
   35   15   16 2     
   36   15   17 2     
   37   15   18 1     
@<TRIPOS>SUBSTRUCTURE
      1 ****           1
@<TRIPOS>COMMENT
> <Gold.Version>
2022.2.0

> <Gold.Id.Protein>
1qkm|1qkm_protein|mol2

> <Gold.Protein.RotatedTorsions>
[  496  491  490  487 ] final  134.81 input  -89.99 | X-H torsion

> <Gold.Protein.ActiveResidues>
 MET295  LEU298  THR299  LEU301  ALA302  GLU305  TRP335  MET336  LEU339  MET340 
 GLY342  LEU343  ARG346  PHE356  ILE373  ILE376  PHE377  LEU380  LYS471  GLY472 
 MET473  HIS475  LEU476  LEU477  ASN478  MET479  VAL484  VAL487 

> <Gold.Protein.RotatedAtoms>
   37.1840   32.9940   41.4047 H   0  0  0  0  0  0  0  0  0  0  0  0  # atno 496  bound_to 491 

> <Gold.Score>
     Score     S(PLP)   S(hbond)     S(cho)   S(metal)  DE(clash)   DE(tors)     intcor
     38.46     -39.47       0.00       0.00       0.00      17.93       1.48      19.89

> <Gold.PLP.Fitness>
38.4620

> <Gold.PLP.PLP>
-39.4714

> <Gold.PLP.part.hbond>
0.0000

> <Gold.PLP.part.metal>
0.0000

> <Gold.PLP.part.buried>
-3.7566

> <Gold.PLP.part.nonpolar>
-36.0764

> <Gold.PLP.part.repulsive>
0.4184

> <Gold.PLP.ligand.clash>
17.9335

> <Gold.PLP.ligand.torsion>
1.4832

> <Gold.PLP.Chemscore.Hbond>
0.0000

> <Gold.PLP.Chemscore.CHOScore>
0.0000

> <Gold.PLP.Chemscore.Metal>
0.0000

> <Gold.PLP.Chemscore.Internal.Correction>
19.8907

