#       Name:                EN300-6738463_i001
#       Creating user name   aseyller
#       Creation time:       Fri Apr 21 19:06:47 2023


#       File generated by GOLD software.
#

@<TRIPOS>MOLECULE
EN300-6738463_i001|Sulfonylchlorides|mol2|733|dock10
    37    37     1
SMALL
USER_CHARGES


@<TRIPOS>ATOM
      1 C1          28.3770  39.0735  36.8569 C.3            1 <1>                0.0000
      2 C2          28.4076  37.7401  37.6065 C.3            1 <1>                0.0000
      3 C3          28.4635  37.9999  39.1170 C.3            1 <1>                0.0000
      4 N4          28.7535  36.7320  39.8012 N.pl3          1 <1>                0.0000
      5 C5          29.9503  35.9740  39.4106 C.3            1 <1>                0.0000
      6 C6          29.8945  35.7140  37.9001 C.3            1 <1>                0.0000
      7 N7          29.6046  36.9820  37.2158 N.am           1 <1>                0.0000
      8 C8          30.4214  37.4412  36.2471 C.2            1 <1>                0.0000
      9 O9          30.2253  38.5346  35.7547 O.2            1 <1>                0.0000
     10 O10         31.4546  36.6883  35.8249 O.3            1 <1>                0.0000
     11 C11         32.6281  37.3921  35.3395 C.3            1 <1>                0.0000
     12 C12         32.3071  38.0543  33.9982 C.3            1 <1>                0.0000
     13 C13         33.0356  38.4637  36.3528 C.3            1 <1>                0.0000
     14 C14         33.7784  36.4000  35.1562 C.3            1 <1>                0.0000
     15 S15         27.7498  36.1679  40.9915 S.o2           1 <1>                0.0000
     16 O16         27.5930  34.7750  40.7575 O.2            1 <1>                0.0000
     17 O17         28.2393  36.7001  42.2148 O.2            1 <1>                0.0000
     18 Cl18        25.9362  37.0047  40.6906 Cl             1 <1>                0.0000
     19 H19         29.2898  39.6304  37.0684 H              1 <1>                0.0000
     20 H20         28.3055  38.8864  35.7855 H              1 <1>                0.0000
     21 H21         27.5137  39.6538  37.1827 H              1 <1>                0.0000
     22 H22         27.5130  37.1652  37.3672 H              1 <1>                0.0000
     23 H23         29.2507  38.7217  39.3351 H              1 <1>                0.0000
     24 H24         27.5035  38.3880  39.4573 H              1 <1>                0.0000
     25 H25         30.8434  36.5514  39.6496 H              1 <1>                0.0000
     26 H26         29.9722  35.0240  39.9446 H              1 <1>                0.0000
     27 H27         30.8545  35.3260  37.5598 H              1 <1>                0.0000
     28 H28         29.1073  34.9923  37.6819 H              1 <1>                0.0000
     29 H29         31.4877  38.7612  34.1287 H              1 <1>                0.0000
     30 H30         33.1881  38.5827  33.6337 H              1 <1>                0.0000
     31 H31         32.0169  37.2909  33.2763 H              1 <1>                0.0000
     32 H32         33.2642  37.9920  37.3083 H              1 <1>                0.0000
     33 H33         33.9166  38.9921  35.9883 H              1 <1>                0.0000
     34 H34         32.2161  39.1706  36.4833 H              1 <1>                0.0000
     35 H35         33.4881  35.6367  34.4344 H              1 <1>                0.0000
     36 H36         34.6593  36.9283  34.7918 H              1 <1>                0.0000
     37 H37         34.0070  35.9282  36.1119 H              1 <1>                0.0000
@<TRIPOS>BOND
    1    1    2 1     
    2    1   19 1     
    3    1   20 1     
    4    1   21 1     
    5    2    3 1     
    6    2    7 1     
    7    2   22 1     
    8    3    4 1     
    9    3   23 1     
   10    3   24 1     
   11    4    5 1     
   12    4   15 1     
   13    5    6 1     
   14    5   25 1     
   15    5   26 1     
   16    6    7 1     
   17    6   27 1     
   18    6   28 1     
   19    7    8 am    
   20    8    9 2     
   21    8   10 1     
   22   10   11 1     
   23   11   12 1     
   24   11   13 1     
   25   11   14 1     
   26   12   29 1     
   27   12   30 1     
   28   12   31 1     
   29   13   32 1     
   30   13   33 1     
   31   13   34 1     
   32   14   35 1     
   33   14   36 1     
   34   14   37 1     
   35   15   16 2     
   36   15   17 2     
   37   15   18 1     
@<TRIPOS>SUBSTRUCTURE
      1 ****           1
@<TRIPOS>COMMENT
> <Gold.Version>
2022.2.0

> <Gold.Id.Protein>
1qkm|1qkm_protein|mol2

> <Gold.Protein.RotatedTorsions>
[  496  491  490  487 ] final  157.50 input  -89.99 | X-H torsion

> <Gold.Protein.ActiveResidues>
 MET295  LEU298  THR299  LEU301  ALA302  GLU305  TRP335  MET336  LEU339  MET340 
 GLY342  LEU343  ARG346  PHE356  ILE373  ILE376  PHE377  LEU380  LYS471  GLY472 
 MET473  HIS475  LEU476  LEU477  ASN478  MET479  VAL484  VAL487 

> <Gold.Protein.RotatedAtoms>
   37.2896   33.1781   41.1003 H   0  0  0  0  0  0  0  0  0  0  0  0  # atno 496  bound_to 491 

> <Gold.Score>
     Score     S(PLP)   S(hbond)     S(cho)   S(metal)  DE(clash)   DE(tors)     intcor
     38.82     -39.76       0.00       0.00       0.00      17.46       1.69      19.91

> <Gold.PLP.Fitness>
38.8230

> <Gold.PLP.PLP>
-39.7573

> <Gold.PLP.part.hbond>
0.0000

> <Gold.PLP.part.metal>
0.0000

> <Gold.PLP.part.buried>
-0.6420

> <Gold.PLP.part.nonpolar>
-39.8629

> <Gold.PLP.part.repulsive>
0.3064

> <Gold.PLP.ligand.clash>
17.4603

> <Gold.PLP.ligand.torsion>
1.6901

> <Gold.PLP.Chemscore.Hbond>
0.0000

> <Gold.PLP.Chemscore.CHOScore>
0.0000

> <Gold.PLP.Chemscore.Metal>
0.0000

> <Gold.PLP.Chemscore.Internal.Correction>
19.9061

