#       Name:                EN300-6738463_i001
#       Creating user name   aseyller
#       Creation time:       Fri Apr 21 19:06:37 2023


#       File generated by GOLD software.
#

@<TRIPOS>MOLECULE
EN300-6738463_i001|Sulfonylchlorides|mol2|733|dock1
    37    37     1
SMALL
USER_CHARGES


@<TRIPOS>ATOM
      1 C1          31.3764  33.7573  38.5950 C.3            1 <1>                0.0000
      2 C2          30.6818  34.9957  39.1647 C.3            1 <1>                0.0000
      3 C3          29.1618  34.7944  39.1313 C.3            1 <1>                0.0000
      4 N4          28.5114  36.0774  39.4329 N.pl3          1 <1>                0.0000
      5 C5          28.8476  37.2514  38.6153 C.3            1 <1>                0.0000
      6 C6          30.3677  37.4527  38.6486 C.3            1 <1>                0.0000
      7 N7          31.0181  36.1698  38.3470 N.am           1 <1>                0.0000
      8 C8          31.9073  36.0717  37.3390 C.2            1 <1>                0.0000
      9 O9          32.3671  34.9880  37.0376 O.2            1 <1>                0.0000
     10 O10         32.2862  37.1744  36.6660 O.3            1 <1>                0.0000
     11 C11         32.6586  37.0013  35.2733 C.3            1 <1>                0.0000
     12 C12         32.6390  38.3586  34.5676 C.3            1 <1>                0.0000
     13 C13         34.0650  36.4043  35.1918 C.3            1 <1>                0.0000
     14 C14         31.6642  36.0583  34.5929 C.3            1 <1>                0.0000
     15 S15         27.4188  36.1979  40.6714 S.o2           1 <1>                0.0000
     16 O16         26.9330  34.8834  40.9072 O.2            1 <1>                0.0000
     17 O17         28.0370  36.9899  41.6763 O.2            1 <1>                0.0000
     18 Cl18        25.8514  37.2705  39.9837 Cl             1 <1>                0.0000
     19 H19         31.0785  33.6193  37.5557 H              1 <1>                0.0000
     20 H20         32.4570  33.8897  38.6488 H              1 <1>                0.0000
     21 H21         31.0887  32.8802  39.1748 H              1 <1>                0.0000
     22 H22         31.0069  35.1573  40.1924 H              1 <1>                0.0000
     23 H23         28.8594  34.4549  38.1406 H              1 <1>                0.0000
     24 H24         28.8743  34.0542  39.8779 H              1 <1>                0.0000
     25 H25         28.5229  37.0869  37.5878 H              1 <1>                0.0000
     26 H26         28.3528  38.1337  39.0211 H              1 <1>                0.0000
     27 H27         30.6552  38.1930  37.9020 H              1 <1>                0.0000
     28 H28         30.6701  37.7922  39.6393 H              1 <1>                0.0000
     29 H29         33.3475  39.0304  35.0521 H              1 <1>                0.0000
     30 H30         32.9185  38.2286  33.5220 H              1 <1>                0.0000
     31 H31         31.6370  38.7839  34.6255 H              1 <1>                0.0000
     32 H32         34.0790  35.4374  35.6946 H              1 <1>                0.0000
     33 H33         34.3446  36.2743  34.1462 H              1 <1>                0.0000
     34 H34         34.7735  37.0762  35.6765 H              1 <1>                0.0000
     35 H35         30.6623  36.4835  34.6509 H              1 <1>                0.0000
     36 H36         31.9437  35.9282  33.5474 H              1 <1>                0.0000
     37 H37         31.6782  35.0912  35.0957 H              1 <1>                0.0000
@<TRIPOS>BOND
    1    1    2 1     
    2    1   19 1     
    3    1   20 1     
    4    1   21 1     
    5    2    3 1     
    6    2    7 1     
    7    2   22 1     
    8    3    4 1     
    9    3   23 1     
   10    3   24 1     
   11    4    5 1     
   12    4   15 1     
   13    5    6 1     
   14    5   25 1     
   15    5   26 1     
   16    6    7 1     
   17    6   27 1     
   18    6   28 1     
   19    7    8 am    
   20    8    9 2     
   21    8   10 1     
   22   10   11 1     
   23   11   12 1     
   24   11   13 1     
   25   11   14 1     
   26   12   29 1     
   27   12   30 1     
   28   12   31 1     
   29   13   32 1     
   30   13   33 1     
   31   13   34 1     
   32   14   35 1     
   33   14   36 1     
   34   14   37 1     
   35   15   16 2     
   36   15   17 2     
   37   15   18 1     
@<TRIPOS>SUBSTRUCTURE
      1 ****           1
@<TRIPOS>COMMENT
> <Gold.Version>
2022.2.0

> <Gold.Id.Protein>
1qkm|1qkm_protein|mol2

> <Gold.Protein.RotatedTorsions>
[  496  491  490  487 ] final  -43.09 input  -89.99 | X-H torsion

> <Gold.Protein.ActiveResidues>
 MET295  LEU298  THR299  LEU301  ALA302  GLU305  TRP335  MET336  LEU339  MET340 
 GLY342  LEU343  ARG346  PHE356  ILE373  ILE376  PHE377  LEU380  LYS471  GLY472 
 MET473  HIS475  LEU476  LEU477  ASN478  MET479  VAL484  VAL487 

> <Gold.Protein.RotatedAtoms>
   36.3809   34.6694   41.7287 H   0  0  0  0  0  0  0  0  0  0  0  0  # atno 496  bound_to 491 

> <Gold.Score>
     Score     S(PLP)   S(hbond)     S(cho)   S(metal)  DE(clash)   DE(tors)     intcor
     44.81     -45.73       0.00       0.00       0.00      17.46       1.73      20.00

> <Gold.PLP.Fitness>
44.8130

> <Gold.PLP.PLP>
-45.7340

> <Gold.PLP.part.hbond>
0.0000

> <Gold.PLP.part.metal>
0.0000

> <Gold.PLP.part.buried>
3.2956

> <Gold.PLP.part.nonpolar>
-50.7494

> <Gold.PLP.part.repulsive>
0.9903

> <Gold.PLP.ligand.clash>
17.4603

> <Gold.PLP.ligand.torsion>
1.7306

> <Gold.PLP.Chemscore.Hbond>
0.0000

> <Gold.PLP.Chemscore.CHOScore>
0.0000

> <Gold.PLP.Chemscore.Metal>
0.0000

> <Gold.PLP.Chemscore.Internal.Correction>
20.0006

