#       Name:                EN300-6738463_i001
#       Creating user name   aseyller
#       Creation time:       Fri Apr 21 19:06:39 2023


#       File generated by GOLD software.
#

@<TRIPOS>MOLECULE
EN300-6738463_i001|Sulfonylchlorides|mol2|733|dock3
    37    37     1
SMALL
USER_CHARGES


@<TRIPOS>ATOM
      1 C1          31.2074  34.9329  38.8377 C.3            1 <1>                0.0000
      2 C2          30.7763  35.8944  37.7284 C.3            1 <1>                0.0000
      3 C3          31.9139  36.8787  37.4295 C.3            1 <1>                0.0000
      4 N4          31.3963  37.9444  36.5599 N.pl3          1 <1>                0.0000
      5 C5          30.2189  38.7068  36.9981 C.3            1 <1>                0.0000
      6 C6          29.0812  37.7226  37.2970 C.3            1 <1>                0.0000
      7 N7          29.5987  36.6568  38.1666 N.am           1 <1>                0.0000
      8 C8          29.0038  36.3831  39.3446 C.2            1 <1>                0.0000
      9 O9          29.4950  35.5661  40.0980 O.2            1 <1>                0.0000
     10 O10         27.8652  37.0150  39.6865 O.3            1 <1>                0.0000
     11 C11         27.1473  36.5019  40.8396 C.3            1 <1>                0.0000
     12 C12         27.9971  36.6952  42.0970 C.3            1 <1>                0.0000
     13 C13         25.8262  37.2578  40.9957 C.3            1 <1>                0.0000
     14 C14         26.8619  35.0119  40.6410 C.3            1 <1>                0.0000
     15 S15         32.1274  38.2807  35.1125 S.o2           1 <1>                0.0000
     16 O16         31.0935  38.3097  34.1380 O.2            1 <1>                0.0000
     17 O17         33.0028  39.3746  35.3497 O.2            1 <1>                0.0000
     18 Cl18        33.2997  36.7011  34.6536 Cl             1 <1>                0.0000
     19 H19         31.4120  35.4965  39.7480 H              1 <1>                0.0000
     20 H20         30.4095  34.2148  39.0265 H              1 <1>                0.0000
     21 H21         32.1081  34.4023  38.5289 H              1 <1>                0.0000
     22 H22         30.5353  35.3295  36.8279 H              1 <1>                0.0000
     23 H23         32.2777  37.3112  38.3615 H              1 <1>                0.0000
     24 H24         32.7262  36.3564  36.9241 H              1 <1>                0.0000
     25 H25         30.4619  39.2696  37.8993 H              1 <1>                0.0000
     26 H26         29.9117  39.3918  36.2078 H              1 <1>                0.0000
     27 H27         28.2689  38.2449  37.8024 H              1 <1>                0.0000
     28 H28         28.7174  37.2899  36.3650 H              1 <1>                0.0000
     29 H29         28.2004  37.7567  42.2386 H              1 <1>                0.0000
     30 H30         27.4582  36.3099  42.9626 H              1 <1>                0.0000
     31 H31         28.9383  36.1566  41.9858 H              1 <1>                0.0000
     32 H32         25.2208  37.1201  40.0998 H              1 <1>                0.0000
     33 H33         25.2873  36.8725  41.8613 H              1 <1>                0.0000
     34 H34         26.0296  38.3193  41.1372 H              1 <1>                0.0000
     35 H35         27.8030  34.4734  40.5298 H              1 <1>                0.0000
     36 H36         26.3229  34.6266  41.5065 H              1 <1>                0.0000
     37 H37         26.2564  34.8742  39.7451 H              1 <1>                0.0000
@<TRIPOS>BOND
    1    1    2 1     
    2    1   19 1     
    3    1   20 1     
    4    1   21 1     
    5    2    3 1     
    6    2    7 1     
    7    2   22 1     
    8    3    4 1     
    9    3   23 1     
   10    3   24 1     
   11    4    5 1     
   12    4   15 1     
   13    5    6 1     
   14    5   25 1     
   15    5   26 1     
   16    6    7 1     
   17    6   27 1     
   18    6   28 1     
   19    7    8 am    
   20    8    9 2     
   21    8   10 1     
   22   10   11 1     
   23   11   12 1     
   24   11   13 1     
   25   11   14 1     
   26   12   29 1     
   27   12   30 1     
   28   12   31 1     
   29   13   32 1     
   30   13   33 1     
   31   13   34 1     
   32   14   35 1     
   33   14   36 1     
   34   14   37 1     
   35   15   16 2     
   36   15   17 2     
   37   15   18 1     
@<TRIPOS>SUBSTRUCTURE
      1 ****           1
@<TRIPOS>COMMENT
> <Gold.Version>
2022.2.0

> <Gold.Id.Protein>
1qkm|1qkm_protein|mol2

> <Gold.Protein.RotatedTorsions>
[  496  491  490  487 ] final   55.07 input  -89.99 | X-H torsion

> <Gold.Protein.ActiveResidues>
 MET295  LEU298  THR299  LEU301  ALA302  GLU305  TRP335  MET336  LEU339  MET340 
 GLY342  LEU343  ARG346  PHE356  ILE373  ILE376  PHE377  LEU380  LYS471  GLY472 
 MET473  HIS475  LEU476  LEU477  ASN478  MET479  VAL484  VAL487 

> <Gold.Protein.RotatedAtoms>
   36.5117   33.3841   42.3309 H   0  0  0  0  0  0  0  0  0  0  0  0  # atno 496  bound_to 491 

> <Gold.Score>
     Score     S(PLP)   S(hbond)     S(cho)   S(metal)  DE(clash)   DE(tors)     intcor
     40.61     -41.42       0.00       0.00       0.00      17.96       1.39      19.92

> <Gold.PLP.Fitness>
40.6083

> <Gold.PLP.PLP>
-41.4159

> <Gold.PLP.part.hbond>
0.0000

> <Gold.PLP.part.metal>
0.0000

> <Gold.PLP.part.buried>
3.5872

> <Gold.PLP.part.nonpolar>
-46.8074

> <Gold.PLP.part.repulsive>
0.5171

> <Gold.PLP.ligand.clash>
17.9551

> <Gold.PLP.ligand.torsion>
1.3856

> <Gold.PLP.Chemscore.Hbond>
0.0000

> <Gold.PLP.Chemscore.CHOScore>
0.0000

> <Gold.PLP.Chemscore.Metal>
0.0000

> <Gold.PLP.Chemscore.Internal.Correction>
19.9188

