#       Name:                EN300-6738463_i001
#       Creating user name   aseyller
#       Creation time:       Fri Apr 21 19:06:40 2023


#       File generated by GOLD software.
#

@<TRIPOS>MOLECULE
EN300-6738463_i001|Sulfonylchlorides|mol2|733|dock4
    37    37     1
SMALL
USER_CHARGES


@<TRIPOS>ATOM
      1 C1          31.7678  35.6449  38.0634 C.3            1 <1>                0.0000
      2 C2          30.6124  36.4167  38.7037 C.3            1 <1>                0.0000
      3 C3          29.4881  35.4432  39.0784 C.3            1 <1>                0.0000
      4 N4          28.2964  36.2210  39.4457 N.pl3          1 <1>                0.0000
      5 C5          27.7680  37.2021  38.4878 C.3            1 <1>                0.0000
      6 C6          28.8922  38.1758  38.1131 C.3            1 <1>                0.0000
      7 N7          30.0839  37.3980  37.7456 N.am           1 <1>                0.0000
      8 C8          30.6817  37.5817  36.5518 C.2            1 <1>                0.0000
      9 O9          30.2949  38.4608  35.8074 O.2            1 <1>                0.0000
     10 O10         31.7074  36.7910  36.1839 O.3            1 <1>                0.0000
     11 C11         32.7070  37.3736  35.3065 C.3            1 <1>                0.0000
     12 C12         33.1727  38.7124  35.8821 C.3            1 <1>                0.0000
     13 C13         33.9015  36.4241  35.1929 C.3            1 <1>                0.0000
     14 C14         32.1002  37.5978  33.9200 C.3            1 <1>                0.0000
     15 S15         27.5619  35.9952  40.9127 S.o2           1 <1>                0.0000
     16 O16         27.2749  34.6067  41.0083 O.2            1 <1>                0.0000
     17 O17         28.3492  36.6936  41.8674 O.2            1 <1>                0.0000
     18 Cl18        25.7793  36.9425  40.8408 Cl             1 <1>                0.0000
     19 H19         31.4210  35.1641  37.1487 H              1 <1>                0.0000
     20 H20         32.5783  36.3342  37.8267 H              1 <1>                0.0000
     21 H21         32.1275  34.8863  38.7586 H              1 <1>                0.0000
     22 H22         30.9660  36.9290  39.5984 H              1 <1>                0.0000
     23 H23         29.2590  34.8034  38.2261 H              1 <1>                0.0000
     24 H24         29.8008  34.8314  39.9245 H              1 <1>                0.0000
     25 H25         27.4164  36.6877  37.5935 H              1 <1>                0.0000
     26 H26         26.9448  37.7521  38.9439 H              1 <1>                0.0000
     27 H27         28.5795  38.7875  37.2669 H              1 <1>                0.0000
     28 H28         29.1214  38.8155  38.9654 H              1 <1>                0.0000
     29 H29         33.6052  38.5527  36.8698 H              1 <1>                0.0000
     30 H30         33.9231  39.1498  35.2234 H              1 <1>                0.0000
     31 H31         32.3218  39.3889  35.9630 H              1 <1>                0.0000
     32 H32         33.5696  35.4703  34.7829 H              1 <1>                0.0000
     33 H33         34.6519  36.8615  34.5342 H              1 <1>                0.0000
     34 H34         34.3338  36.2644  36.1807 H              1 <1>                0.0000
     35 H35         31.2493  38.2742  34.0010 H              1 <1>                0.0000
     36 H36         32.8505  38.0351  33.2614 H              1 <1>                0.0000
     37 H37         31.7684  36.6439  33.5100 H              1 <1>                0.0000
@<TRIPOS>BOND
    1    1    2 1     
    2    1   19 1     
    3    1   20 1     
    4    1   21 1     
    5    2    3 1     
    6    2    7 1     
    7    2   22 1     
    8    3    4 1     
    9    3   23 1     
   10    3   24 1     
   11    4    5 1     
   12    4   15 1     
   13    5    6 1     
   14    5   25 1     
   15    5   26 1     
   16    6    7 1     
   17    6   27 1     
   18    6   28 1     
   19    7    8 am    
   20    8    9 2     
   21    8   10 1     
   22   10   11 1     
   23   11   12 1     
   24   11   13 1     
   25   11   14 1     
   26   12   29 1     
   27   12   30 1     
   28   12   31 1     
   29   13   32 1     
   30   13   33 1     
   31   13   34 1     
   32   14   35 1     
   33   14   36 1     
   34   14   37 1     
   35   15   16 2     
   36   15   17 2     
   37   15   18 1     
@<TRIPOS>SUBSTRUCTURE
      1 ****           1
@<TRIPOS>COMMENT
> <Gold.Version>
2022.2.0

> <Gold.Id.Protein>
1qkm|1qkm_protein|mol2

> <Gold.Protein.RotatedTorsions>
[  496  491  490  487 ] final  178.74 input  -89.99 | X-H torsion

> <Gold.Protein.ActiveResidues>
 MET295  LEU298  THR299  LEU301  ALA302  GLU305  TRP335  MET336  LEU339  MET340 
 GLY342  LEU343  ARG346  PHE356  ILE373  ILE376  PHE377  LEU380  LYS471  GLY472 
 MET473  HIS475  LEU476  LEU477  ASN478  MET479  VAL484  VAL487 

> <Gold.Protein.RotatedAtoms>
   37.3184   33.4438   40.8780 H   0  0  0  0  0  0  0  0  0  0  0  0  # atno 496  bound_to 491 

> <Gold.Score>
     Score     S(PLP)   S(hbond)     S(cho)   S(metal)  DE(clash)   DE(tors)     intcor
     41.71     -43.14       0.00       0.00       0.00      17.93       1.71      19.92

> <Gold.PLP.Fitness>
41.7077

> <Gold.PLP.PLP>
-43.1378

> <Gold.PLP.part.hbond>
0.0000

> <Gold.PLP.part.metal>
0.0000

> <Gold.PLP.part.buried>
-0.6937

> <Gold.PLP.part.nonpolar>
-43.1217

> <Gold.PLP.part.repulsive>
1.0253

> <Gold.PLP.ligand.clash>
17.9335

> <Gold.PLP.ligand.torsion>
1.7077

> <Gold.PLP.Chemscore.Hbond>
0.0000

> <Gold.PLP.Chemscore.CHOScore>
0.0000

> <Gold.PLP.Chemscore.Metal>
0.0000

> <Gold.PLP.Chemscore.Internal.Correction>
19.9188

