#       Name:                EN300-6738463_i001
#       Creating user name   aseyller
#       Creation time:       Fri Apr 21 19:06:56 2023


#       File generated by GOLD software.
#

@<TRIPOS>MOLECULE
EN300-6738463_i001|Sulfonylchlorides|mol2|733|dock17
    37    37     1
SMALL
USER_CHARGES


@<TRIPOS>ATOM
      1 C1          28.4725  39.1039  35.9589 C.3            1 <1>                0.0000
      2 C2          29.7956  38.5338  36.4739 C.3            1 <1>                0.0000
      3 C3          30.4211  37.6346  35.4005 C.3            1 <1>                0.0000
      4 N4          31.5423  36.8976  36.0004 N.pl3          1 <1>                0.0000
      5 C5          31.2966  36.0909  37.2038 C.3            1 <1>                0.0000
      6 C6          30.6711  36.9901  38.2773 C.3            1 <1>                0.0000
      7 N7          29.5498  37.7270  37.6775 N.am           1 <1>                0.0000
      8 C8          28.3185  37.6645  38.2217 C.2            1 <1>                0.0000
      9 O9          27.3802  38.1997  37.6651 O.2            1 <1>                0.0000
     10 O10         28.1279  37.0091  39.3822 O.3            1 <1>                0.0000
     11 C11         26.8149  36.4304  39.6046 C.3            1 <1>                0.0000
     12 C12         26.3969  35.6257  38.3723 C.3            1 <1>                0.0000
     13 C13         26.8641  35.5074  40.8239 C.3            1 <1>                0.0000
     14 C14         25.8001  37.5484  39.8520 C.3            1 <1>                0.0000
     15 S15         33.0554  36.9745  35.3316 S.o2           1 <1>                0.0000
     16 O16         32.9502  36.4038  34.0344 O.2            1 <1>                0.0000
     17 O17         33.5305  38.2933  35.5642 O.2            1 <1>                0.0000
     18 Cl18        34.2454  35.7423  36.4020 Cl             1 <1>                0.0000
     19 H19         27.7786  38.2876  35.7584 H              1 <1>                0.0000
     20 H20         28.0454  39.7673  36.7110 H              1 <1>                0.0000
     21 H21         28.6507  39.6631  35.0404 H              1 <1>                0.0000
     22 H22         30.4781  39.3500  36.7105 H              1 <1>                0.0000
     23 H23         29.6750  36.9300  35.0332 H              1 <1>                0.0000
     24 H24         30.7856  38.2478  34.5764 H              1 <1>                0.0000
     25 H25         30.6128  35.2763  36.9650 H              1 <1>                0.0000
     26 H26         32.2393  35.6847  37.5708 H              1 <1>                0.0000
     27 H27         30.3066  36.3768  39.1014 H              1 <1>                0.0000
     28 H28         31.4172  37.6947  38.6445 H              1 <1>                0.0000
     29 H29         27.1197  34.8292  38.1961 H              1 <1>                0.0000
     30 H30         25.4111  35.1913  38.5392 H              1 <1>                0.0000
     31 H31         26.3617  36.2833  37.5037 H              1 <1>                0.0000
     32 H32         27.1619  36.0807  41.7017 H              1 <1>                0.0000
     33 H33         25.8784  35.0730  40.9907 H              1 <1>                0.0000
     34 H34         27.5871  34.7109  40.6476 H              1 <1>                0.0000
     35 H35         25.7650  38.2059  38.9834 H              1 <1>                0.0000
     36 H36         24.8144  37.1141  40.0189 H              1 <1>                0.0000
     37 H37         26.0979  38.1217  40.7300 H              1 <1>                0.0000
@<TRIPOS>BOND
    1    1    2 1     
    2    1   19 1     
    3    1   20 1     
    4    1   21 1     
    5    2    3 1     
    6    2    7 1     
    7    2   22 1     
    8    3    4 1     
    9    3   23 1     
   10    3   24 1     
   11    4    5 1     
   12    4   15 1     
   13    5    6 1     
   14    5   25 1     
   15    5   26 1     
   16    6    7 1     
   17    6   27 1     
   18    6   28 1     
   19    7    8 am    
   20    8    9 2     
   21    8   10 1     
   22   10   11 1     
   23   11   12 1     
   24   11   13 1     
   25   11   14 1     
   26   12   29 1     
   27   12   30 1     
   28   12   31 1     
   29   13   32 1     
   30   13   33 1     
   31   13   34 1     
   32   14   35 1     
   33   14   36 1     
   34   14   37 1     
   35   15   16 2     
   36   15   17 2     
   37   15   18 1     
@<TRIPOS>SUBSTRUCTURE
      1 ****           1
@<TRIPOS>COMMENT
> <Gold.Version>
2022.2.0

> <Gold.Id.Protein>
1qkm|1qkm_protein|mol2

> <Gold.Protein.RotatedTorsions>
[  496  491  490  487 ] final  108.99 input  -89.99 | X-H torsion

> <Gold.Protein.ActiveResidues>
 MET295  LEU298  THR299  LEU301  ALA302  GLU305  TRP335  MET336  LEU339  MET340 
 GLY342  LEU343  ARG346  PHE356  ILE373  ILE376  PHE377  LEU380  LYS471  GLY472 
 MET473  HIS475  LEU476  LEU477  ASN478  MET479  VAL484  VAL487 

> <Gold.Protein.RotatedAtoms>
   36.9907   32.9440   41.7758 H   0  0  0  0  0  0  0  0  0  0  0  0  # atno 496  bound_to 491 

> <Gold.Score>
     Score     S(PLP)   S(hbond)     S(cho)   S(metal)  DE(clash)   DE(tors)     intcor
     36.50     -37.54       0.00       0.00       0.00      17.46       1.73      19.89

> <Gold.PLP.Fitness>
36.5018

> <Gold.PLP.PLP>
-37.5413

> <Gold.PLP.part.hbond>
-0.4480

> <Gold.PLP.part.metal>
0.0000

> <Gold.PLP.part.buried>
1.5497

> <Gold.PLP.part.nonpolar>
-42.2218

> <Gold.PLP.part.repulsive>
3.4581

> <Gold.PLP.ligand.clash>
17.4603

> <Gold.PLP.ligand.torsion>
1.7349

> <Gold.PLP.Chemscore.Hbond>
0.0000

> <Gold.PLP.Chemscore.CHOScore>
0.0000

> <Gold.PLP.Chemscore.Metal>
0.0000

> <Gold.PLP.Chemscore.Internal.Correction>
19.8907

