#       Name:                EN300-6738463_i001
#       Creating user name   aseyller
#       Creation time:       Fri Apr 21 19:06:41 2023


#       File generated by GOLD software.
#

@<TRIPOS>MOLECULE
EN300-6738463_i001|Sulfonylchlorides|mol2|733|dock5
    37    37     1
SMALL
USER_CHARGES


@<TRIPOS>ATOM
      1 C1          31.6216  35.9629  37.9154 C.3            1 <1>                0.0000
      2 C2          30.4008  36.6493  38.5313 C.3            1 <1>                0.0000
      3 C3          29.3548  35.5944  38.9125 C.3            1 <1>                0.0000
      4 N4          28.1005  36.2793  39.2551 N.pl3          1 <1>                0.0000
      5 C5          27.5049  37.1985  38.2753 C.3            1 <1>                0.0000
      6 C6          28.5508  38.2534  37.8942 C.3            1 <1>                0.0000
      7 N7          29.8052  37.5686  37.5514 N.am           1 <1>                0.0000
      8 C8          30.3990  37.7801  36.3602 C.2            1 <1>                0.0000
      9 O9          29.9505  38.6125  35.5970 O.2            1 <1>                0.0000
     10 O10         31.4890  37.0690  36.0157 O.3            1 <1>                0.0000
     11 C11         32.4477  37.7157  35.1377 C.3            1 <1>                0.0000
     12 C12         33.7162  36.8646  35.0523 C.3            1 <1>                0.0000
     13 C13         31.8398  37.8667  33.7417 C.3            1 <1>                0.0000
     14 C14         32.7971  39.0976  35.6938 C.3            1 <1>                0.0000
     15 S15         27.3709  36.0193  40.7189 S.o2           1 <1>                0.0000
     16 O16         26.2313  36.8674  40.7555 O.2            1 <1>                0.0000
     17 O17         27.2966  34.6101  40.8856 O.2            1 <1>                0.0000
     18 Cl18        28.6319  36.6966  42.1441 Cl             1 <1>                0.0000
     19 H19         31.3245  35.4404  37.0061 H              1 <1>                0.0000
     20 H20         32.3763  36.7115  37.6743 H              1 <1>                0.0000
     21 H21         32.0339  35.2475  38.6271 H              1 <1>                0.0000
     22 H22         30.7024  37.2033  39.4203 H              1 <1>                0.0000
     23 H23         29.1872  34.9241  38.0694 H              1 <1>                0.0000
     24 H24         29.7068  35.0241  39.7721 H              1 <1>                0.0000
     25 H25         27.2055  36.6424  37.3869 H              1 <1>                0.0000
     26 H26         26.6351  37.6875  38.7141 H              1 <1>                0.0000
     27 H27         28.1988  38.8237  37.0346 H              1 <1>                0.0000
     28 H28         28.7185  38.9236  38.7372 H              1 <1>                0.0000
     29 H29         33.4673  35.8802  34.6560 H              1 <1>                0.0000
     30 H30         34.4359  37.3502  34.3932 H              1 <1>                0.0000
     31 H31         34.1493  36.7571  36.0468 H              1 <1>                0.0000
     32 H32         30.9361  38.4730  33.8026 H              1 <1>                0.0000
     33 H33         32.5595  38.3522  33.0826 H              1 <1>                0.0000
     34 H34         31.5909  36.8821  33.3455 H              1 <1>                0.0000
     35 H35         33.2302  38.9901  36.6883 H              1 <1>                0.0000
     36 H36         33.5168  39.5832  35.0348 H              1 <1>                0.0000
     37 H37         31.8933  39.7040  35.7546 H              1 <1>                0.0000
@<TRIPOS>BOND
    1    1    2 1     
    2    1   19 1     
    3    1   20 1     
    4    1   21 1     
    5    2    3 1     
    6    2    7 1     
    7    2   22 1     
    8    3    4 1     
    9    3   23 1     
   10    3   24 1     
   11    4    5 1     
   12    4   15 1     
   13    5    6 1     
   14    5   25 1     
   15    5   26 1     
   16    6    7 1     
   17    6   27 1     
   18    6   28 1     
   19    7    8 am    
   20    8    9 2     
   21    8   10 1     
   22   10   11 1     
   23   11   12 1     
   24   11   13 1     
   25   11   14 1     
   26   12   29 1     
   27   12   30 1     
   28   12   31 1     
   29   13   32 1     
   30   13   33 1     
   31   13   34 1     
   32   14   35 1     
   33   14   36 1     
   34   14   37 1     
   35   15   16 2     
   36   15   17 2     
   37   15   18 1     
@<TRIPOS>SUBSTRUCTURE
      1 ****           1
@<TRIPOS>COMMENT
> <Gold.Version>
2022.2.0

> <Gold.Id.Protein>
1qkm|1qkm_protein|mol2

> <Gold.Protein.RotatedTorsions>
[  496  491  490  487 ] final -144.75 input  -89.99 | X-H torsion

> <Gold.Protein.ActiveResidues>
 MET295  LEU298  THR299  LEU301  ALA302  GLU305  TRP335  MET336  LEU339  MET340 
 GLY342  LEU343  ARG346  PHE356  ILE373  ILE376  PHE377  LEU380  LYS471  GLY472 
 MET473  HIS475  LEU476  LEU477  ASN478  MET479  VAL484  VAL487 

> <Gold.Protein.RotatedAtoms>
   37.2027   34.0013   40.7202 H   0  0  0  0  0  0  0  0  0  0  0  0  # atno 496  bound_to 491 

> <Gold.Score>
     Score     S(PLP)   S(hbond)     S(cho)   S(metal)  DE(clash)   DE(tors)     intcor
     40.23     -41.25       0.00       0.00       0.00      17.93       1.50      19.92

> <Gold.PLP.Fitness>
40.2344

> <Gold.PLP.PLP>
-41.2510

> <Gold.PLP.part.hbond>
0.0000

> <Gold.PLP.part.metal>
0.0000

> <Gold.PLP.part.buried>
-1.4305

> <Gold.PLP.part.nonpolar>
-40.6199

> <Gold.PLP.part.repulsive>
0.2596

> <Gold.PLP.ligand.clash>
17.9335

> <Gold.PLP.ligand.torsion>
1.5009

> <Gold.PLP.Chemscore.Hbond>
0.0000

> <Gold.PLP.Chemscore.CHOScore>
0.0000

> <Gold.PLP.Chemscore.Metal>
0.0000

> <Gold.PLP.Chemscore.Internal.Correction>
19.9188

