#       Name:                EN300-6738463_i001
#       Creating user name   aseyller
#       Creation time:       Fri Apr 21 19:06:46 2023


#       File generated by GOLD software.
#

@<TRIPOS>MOLECULE
EN300-6738463_i001|Sulfonylchlorides|mol2|733|dock9
    37    37     1
SMALL
USER_CHARGES


@<TRIPOS>ATOM
      1 C1          31.0754  34.5578  39.1162 C.3            1 <1>                0.0000
      2 C2          30.1516  35.7698  39.2528 C.3            1 <1>                0.0000
      3 C3          28.6929  35.3267  39.0850 C.3            1 <1>                0.0000
      4 N4          27.8501  36.5240  38.9588 N.pl3          1 <1>                0.0000
      5 C5          28.1661  37.5056  37.9118 C.3            1 <1>                0.0000
      6 C6          29.6247  37.9487  38.0796 C.3            1 <1>                0.0000
      7 N7          30.4677  36.7514  38.2056 N.am           1 <1>                0.0000
      8 C8          31.5121  36.5573  37.3762 C.2            1 <1>                0.0000
      9 O9          32.1438  35.5205  37.4270 O.2            1 <1>                0.0000
     10 O10         31.8555  37.5121  36.4914 O.3            1 <1>                0.0000
     11 C11         32.4646  37.0714  35.2492 C.3            1 <1>                0.0000
     12 C12         31.7101  35.8521  34.7157 C.3            1 <1>                0.0000
     13 C13         32.3997  38.2019  34.2202 C.3            1 <1>                0.0000
     14 C14         33.9260  36.6961  35.5028 C.3            1 <1>                0.0000
     15 S15         26.5667  36.7625  39.9780 S.o2           1 <1>                0.0000
     16 O16         25.8675  37.8967  39.4841 O.2            1 <1>                0.0000
     17 O17         25.9570  35.4919  40.1595 O.2            1 <1>                0.0000
     18 Cl18        27.3210  37.2950  41.7746 Cl             1 <1>                0.0000
     19 H19         30.9670  34.1288  38.1200 H              1 <1>                0.0000
     20 H20         32.1088  34.8698  39.2670 H              1 <1>                0.0000
     21 H21         30.8084  33.8112  39.8642 H              1 <1>                0.0000
     22 H22         30.2855  36.2229  40.2350 H              1 <1>                0.0000
     23 H23         28.5972  34.7157  38.1874 H              1 <1>                0.0000
     24 H24         28.3827  34.7512  39.9571 H              1 <1>                0.0000
     25 H25         28.0328  37.0497  36.9307 H              1 <1>                0.0000
     26 H26         27.5080  38.3690  38.0091 H              1 <1>                0.0000
     27 H27         29.9350  38.5242  37.2074 H              1 <1>                0.0000
     28 H28         29.7205  38.5597  38.9771 H              1 <1>                0.0000
     29 H29         30.6689  36.1195  34.5349 H              1 <1>                0.0000
     30 H30         32.1673  35.5213  33.7831 H              1 <1>                0.0000
     31 H31         31.7564  35.0467  35.4488 H              1 <1>                0.0000
     32 H32         32.9372  39.0705  34.6003 H              1 <1>                0.0000
     33 H33         32.8569  37.8710  33.2876 H              1 <1>                0.0000
     34 H34         31.3585  38.4693  34.0395 H              1 <1>                0.0000
     35 H35         33.9723  35.8908  36.2359 H              1 <1>                0.0000
     36 H36         34.3833  36.3653  34.5704 H              1 <1>                0.0000
     37 H37         34.4636  37.5648  35.8830 H              1 <1>                0.0000
@<TRIPOS>BOND
    1    1    2 1     
    2    1   19 1     
    3    1   20 1     
    4    1   21 1     
    5    2    3 1     
    6    2    7 1     
    7    2   22 1     
    8    3    4 1     
    9    3   23 1     
   10    3   24 1     
   11    4    5 1     
   12    4   15 1     
   13    5    6 1     
   14    5   25 1     
   15    5   26 1     
   16    6    7 1     
   17    6   27 1     
   18    6   28 1     
   19    7    8 am    
   20    8    9 2     
   21    8   10 1     
   22   10   11 1     
   23   11   12 1     
   24   11   13 1     
   25   11   14 1     
   26   12   29 1     
   27   12   30 1     
   28   12   31 1     
   29   13   32 1     
   30   13   33 1     
   31   13   34 1     
   32   14   35 1     
   33   14   36 1     
   34   14   37 1     
   35   15   16 2     
   36   15   17 2     
   37   15   18 1     
@<TRIPOS>SUBSTRUCTURE
      1 ****           1
@<TRIPOS>COMMENT
> <Gold.Version>
2022.2.0

> <Gold.Id.Protein>
1qkm|1qkm_protein|mol2

> <Gold.Protein.RotatedTorsions>
[  496  491  490  487 ] final  -45.80 input  -89.99 | X-H torsion

> <Gold.Protein.ActiveResidues>
 MET295  LEU298  THR299  LEU301  ALA302  GLU305  TRP335  MET336  LEU339  MET340 
 GLY342  LEU343  ARG346  PHE356  ILE373  ILE376  PHE377  LEU380  LYS471  GLY472 
 MET473  HIS475  LEU476  LEU477  ASN478  MET479  VAL484  VAL487 

> <Gold.Protein.RotatedAtoms>
   36.3974   34.6845   41.6901 H   0  0  0  0  0  0  0  0  0  0  0  0  # atno 496  bound_to 491 

> <Gold.Score>
     Score     S(PLP)   S(hbond)     S(cho)   S(metal)  DE(clash)   DE(tors)     intcor
     39.14     -39.90       0.00       0.00       0.00      17.46       1.60      19.91

> <Gold.PLP.Fitness>
39.1357

> <Gold.PLP.PLP>
-39.8975

> <Gold.PLP.part.hbond>
0.0000

> <Gold.PLP.part.metal>
0.0000

> <Gold.PLP.part.buried>
4.3894

> <Gold.PLP.part.nonpolar>
-43.8069

> <Gold.PLP.part.repulsive>
0.2249

> <Gold.PLP.ligand.clash>
17.4603

> <Gold.PLP.ligand.torsion>
1.6038

> <Gold.PLP.Chemscore.Hbond>
0.0000

> <Gold.PLP.Chemscore.CHOScore>
0.0000

> <Gold.PLP.Chemscore.Metal>
0.0000

> <Gold.PLP.Chemscore.Internal.Correction>
19.9061

