#       Name:                EN300-6738463_i001
#       Creating user name   aseyller
#       Creation time:       Fri Apr 21 19:06:57 2023


#       File generated by GOLD software.
#

@<TRIPOS>MOLECULE
EN300-6738463_i001|Sulfonylchlorides|mol2|733|dock18
    37    37     1
SMALL
USER_CHARGES


@<TRIPOS>ATOM
      1 C1          27.9833  38.4003  37.8640 C.3            1 <1>                0.0000
      2 C2          29.4602  38.0187  37.7451 C.3            1 <1>                0.0000
      3 C3          29.8050  37.7473  36.2755 C.3            1 <1>                0.0000
      4 N4          31.1400  37.1362  36.2115 N.pl3          1 <1>                0.0000
      5 C5          31.3980  35.9152  36.9876 C.3            1 <1>                0.0000
      6 C6          31.0533  36.1866  38.4572 C.3            1 <1>                0.0000
      7 N7          29.7182  36.7977  38.5212 N.am           1 <1>                0.0000
      8 C8          28.7480  36.2484  39.2785 C.2            1 <1>                0.0000
      9 O9          28.9984  35.2955  39.9896 O.2            1 <1>                0.0000
     10 O10         27.5013  36.7557  39.2470 O.3            1 <1>                0.0000
     11 C11         26.7094  36.6342  40.4580 C.3            1 <1>                0.0000
     12 C12         25.5147  37.5870  40.3839 C.3            1 <1>                0.0000
     13 C13         26.2068  35.1958  40.5967 C.3            1 <1>                0.0000
     14 C14         27.5725  36.9918  41.6697 C.3            1 <1>                0.0000
     15 S15         32.3321  37.8111  35.2810 S.o2           1 <1>                0.0000
     16 O16         31.7573  38.0496  34.0035 O.2            1 <1>                0.0000
     17 O17         32.9261  38.8334  36.0692 O.2            1 <1>                0.0000
     18 Cl18        33.7523  36.3999  35.0129 Cl             1 <1>                0.0000
     19 H19         27.3649  37.5706  37.5216 H              1 <1>                0.0000
     20 H20         27.7484  38.6232  38.9048 H              1 <1>                0.0000
     21 H21         27.7845  39.2790  37.2504 H              1 <1>                0.0000
     22 H22         30.0798  38.8325  38.1218 H              1 <1>                0.0000
     23 H23         29.0698  37.0660  35.8471 H              1 <1>                0.0000
     24 H24         29.8051  38.6853  35.7205 H              1 <1>                0.0000
     25 H25         30.7764  35.1034  36.6099 H              1 <1>                0.0000
     26 H26         32.4502  35.6433  36.9029 H              1 <1>                0.0000
     27 H27         31.0532  35.2485  39.0123 H              1 <1>                0.0000
     28 H28         31.7884  36.8680  38.8856 H              1 <1>                0.0000
     29 H29         24.8997  37.3323  39.5208 H              1 <1>                0.0000
     30 H30         24.9203  37.4959  41.2931 H              1 <1>                0.0000
     31 H31         25.8728  38.6118  40.2852 H              1 <1>                0.0000
     32 H32         27.0580  34.5170  40.6495 H              1 <1>                0.0000
     33 H33         25.6124  35.1046  41.5058 H              1 <1>                0.0000
     34 H34         25.5919  34.9410  39.7334 H              1 <1>                0.0000
     35 H35         27.9306  38.0165  41.5709 H              1 <1>                0.0000
     36 H36         26.9782  36.9007  42.5788 H              1 <1>                0.0000
     37 H37         28.4238  36.3129  41.7225 H              1 <1>                0.0000
@<TRIPOS>BOND
    1    1    2 1     
    2    1   19 1     
    3    1   20 1     
    4    1   21 1     
    5    2    3 1     
    6    2    7 1     
    7    2   22 1     
    8    3    4 1     
    9    3   23 1     
   10    3   24 1     
   11    4    5 1     
   12    4   15 1     
   13    5    6 1     
   14    5   25 1     
   15    5   26 1     
   16    6    7 1     
   17    6   27 1     
   18    6   28 1     
   19    7    8 am    
   20    8    9 2     
   21    8   10 1     
   22   10   11 1     
   23   11   12 1     
   24   11   13 1     
   25   11   14 1     
   26   12   29 1     
   27   12   30 1     
   28   12   31 1     
   29   13   32 1     
   30   13   33 1     
   31   13   34 1     
   32   14   35 1     
   33   14   36 1     
   34   14   37 1     
   35   15   16 2     
   36   15   17 2     
   37   15   18 1     
@<TRIPOS>SUBSTRUCTURE
      1 ****           1
@<TRIPOS>COMMENT
> <Gold.Version>
2022.2.0

> <Gold.Id.Protein>
1qkm|1qkm_protein|mol2

> <Gold.Protein.RotatedTorsions>
[  496  491  490  487 ] final  139.55 input  -89.99 | X-H torsion

> <Gold.Protein.ActiveResidues>
 MET295  LEU298  THR299  LEU301  ALA302  GLU305  TRP335  MET336  LEU339  MET340 
 GLY342  LEU343  ARG346  PHE356  ILE373  ILE376  PHE377  LEU380  LYS471  GLY472 
 MET473  HIS475  LEU476  LEU477  ASN478  MET479  VAL484  VAL487 

> <Gold.Protein.RotatedAtoms>
   37.2118   33.0223   41.3376 H   0  0  0  0  0  0  0  0  0  0  0  0  # atno 496  bound_to 491 

> <Gold.Score>
     Score     S(PLP)   S(hbond)     S(cho)   S(metal)  DE(clash)   DE(tors)     intcor
     36.96     -38.63       0.00       0.00       0.00      17.93       1.81      19.89

> <Gold.PLP.Fitness>
36.9624

> <Gold.PLP.PLP>
-38.6253

> <Gold.PLP.part.hbond>
0.0000

> <Gold.PLP.part.metal>
0.0000

> <Gold.PLP.part.buried>
-0.9485

> <Gold.PLP.part.nonpolar>
-38.7164

> <Gold.PLP.part.repulsive>
0.2630

> <Gold.PLP.ligand.clash>
17.9335

> <Gold.PLP.ligand.torsion>
1.8100

> <Gold.PLP.Chemscore.Hbond>
0.0000

> <Gold.PLP.Chemscore.CHOScore>
0.0000

> <Gold.PLP.Chemscore.Metal>
0.0000

> <Gold.PLP.Chemscore.Internal.Correction>
19.8907

