#       Name:                EN300-6738463_i001
#       Creating user name   aseyller
#       Creation time:       Fri Apr 21 19:06:58 2023


#       File generated by GOLD software.
#

@<TRIPOS>MOLECULE
EN300-6738463_i001|Sulfonylchlorides|mol2|733|dock19
    37    37     1
SMALL
USER_CHARGES


@<TRIPOS>ATOM
      1 C1          31.2404  34.3920  39.0136 C.3            1 <1>                0.0000
      2 C2          30.8484  35.3789  37.9122 C.3            1 <1>                0.0000
      3 C3          31.9887  36.3799  37.6883 C.3            1 <1>                0.0000
      4 N4          31.4992  37.4640  36.8252 N.pl3          1 <1>                0.0000
      5 C5          30.2970  38.2050  37.2319 C.3            1 <1>                0.0000
      6 C6          29.1567  37.2041  37.4557 C.3            1 <1>                0.0000
      7 N7          29.6462  36.1200  38.3189 N.am           1 <1>                0.0000
      8 C8          29.0039  35.8105  39.4626 C.2            1 <1>                0.0000
      9 O9          29.4697  34.9778  40.2150 O.2            1 <1>                0.0000
     10 O10         27.8459  36.4240  39.7714 O.3            1 <1>                0.0000
     11 C11         27.3726  36.2895  41.1375 C.3            1 <1>                0.0000
     12 C12         26.1461  37.1808  41.3423 C.3            1 <1>                0.0000
     13 C13         26.9938  34.8314  41.4048 C.3            1 <1>                0.0000
     14 C14         28.4792  36.7145  42.1048 C.3            1 <1>                0.0000
     15 S15         32.2885  37.8442  35.4199 S.o2           1 <1>                0.0000
     16 O16         32.9799  39.0614  35.6647 O.2            1 <1>                0.0000
     17 O17         32.9367  36.6552  34.9894 O.2            1 <1>                0.0000
     18 Cl18        30.8777  38.2582  34.0349 Cl             1 <1>                0.0000
     19 H19         31.4005  34.9330  39.9462 H              1 <1>                0.0000
     20 H20         30.4417  33.6628  39.1491 H              1 <1>                0.0000
     21 H21         32.1583  33.8770  38.7303 H              1 <1>                0.0000
     22 H22         30.6515  34.8361  36.9878 H              1 <1>                0.0000
     23 H23         32.3082  36.7906  38.6460 H              1 <1>                0.0000
     24 H24         32.8267  35.8776  37.2050 H              1 <1>                0.0000
     25 H25         30.4960  38.7458  38.1571 H              1 <1>                0.0000
     26 H26         30.0178  38.9081  36.4471 H              1 <1>                0.0000
     27 H27         28.3187  37.7063  37.9391 H              1 <1>                0.0000
     28 H28         28.8372  36.7933  36.4980 H              1 <1>                0.0000
     29 H29         25.3576  36.8781  40.6533 H              1 <1>                0.0000
     30 H30         25.7907  37.0799  42.3679 H              1 <1>                0.0000
     31 H31         26.4159  38.2197  41.1519 H              1 <1>                0.0000
     32 H32         27.8676  34.1965  41.2589 H              1 <1>                0.0000
     33 H33         26.6385  34.7305  42.4304 H              1 <1>                0.0000
     34 H34         26.2054  34.5287  40.7157 H              1 <1>                0.0000
     35 H35         28.7490  37.7532  41.9143 H              1 <1>                0.0000
     36 H36         28.1240  36.6136  43.1303 H              1 <1>                0.0000
     37 H37         29.3530  36.0794  41.9588 H              1 <1>                0.0000
@<TRIPOS>BOND
    1    1    2 1     
    2    1   19 1     
    3    1   20 1     
    4    1   21 1     
    5    2    3 1     
    6    2    7 1     
    7    2   22 1     
    8    3    4 1     
    9    3   23 1     
   10    3   24 1     
   11    4    5 1     
   12    4   15 1     
   13    5    6 1     
   14    5   25 1     
   15    5   26 1     
   16    6    7 1     
   17    6   27 1     
   18    6   28 1     
   19    7    8 am    
   20    8    9 2     
   21    8   10 1     
   22   10   11 1     
   23   11   12 1     
   24   11   13 1     
   25   11   14 1     
   26   12   29 1     
   27   12   30 1     
   28   12   31 1     
   29   13   32 1     
   30   13   33 1     
   31   13   34 1     
   32   14   35 1     
   33   14   36 1     
   34   14   37 1     
   35   15   16 2     
   36   15   17 2     
   37   15   18 1     
@<TRIPOS>SUBSTRUCTURE
      1 ****           1
@<TRIPOS>COMMENT
> <Gold.Version>
2022.2.0

> <Gold.Id.Protein>
1qkm|1qkm_protein|mol2

> <Gold.Protein.RotatedTorsions>
[  496  491  490  487 ] final  -18.11 input  -89.99 | X-H torsion

> <Gold.Protein.ActiveResidues>
 MET295  LEU298  THR299  LEU301  ALA302  GLU305  TRP335  MET336  LEU339  MET340 
 GLY342  LEU343  ARG346  PHE356  ILE373  ILE376  PHE377  LEU380  LYS471  GLY472 
 MET473  HIS475  LEU476  LEU477  ASN478  MET479  VAL484  VAL487 

> <Gold.Protein.RotatedAtoms>
   36.2761   34.4485   42.0553 H   0  0  0  0  0  0  0  0  0  0  0  0  # atno 496  bound_to 491 

> <Gold.Score>
     Score     S(PLP)   S(hbond)     S(cho)   S(metal)  DE(clash)   DE(tors)     intcor
     36.56     -36.87       0.00       0.00       0.00      17.46       1.37      19.89

> <Gold.PLP.Fitness>
36.5632

> <Gold.PLP.PLP>
-36.8725

> <Gold.PLP.part.hbond>
0.0000

> <Gold.PLP.part.metal>
0.0000

> <Gold.PLP.part.buried>
7.3778

> <Gold.PLP.part.nonpolar>
-46.1167

> <Gold.PLP.part.repulsive>
1.1112

> <Gold.PLP.ligand.clash>
17.4603

> <Gold.PLP.ligand.torsion>
1.3698

> <Gold.PLP.Chemscore.Hbond>
0.0000

> <Gold.PLP.Chemscore.CHOScore>
0.0000

> <Gold.PLP.Chemscore.Metal>
0.0000

> <Gold.PLP.Chemscore.Internal.Correction>
19.8907

