#       Name:                EN300-6738463_i001
#       Creating user name   aseyller
#       Creation time:       Fri Apr 21 19:06:44 2023


#       File generated by GOLD software.
#

@<TRIPOS>MOLECULE
EN300-6738463_i001|Sulfonylchlorides|mol2|733|dock8
    37    37     1
SMALL
USER_CHARGES


@<TRIPOS>ATOM
      1 C1          28.5529  38.2227  37.6389 C.3            1 <1>                0.0000
      2 C2          30.0261  37.8106  37.6120 C.3            1 <1>                0.0000
      3 C3          30.4021  37.3353  36.2031 C.3            1 <1>                0.0000
      4 N4          31.7287  36.7052  36.2585 N.pl3          1 <1>                0.0000
      5 C5          31.9488  35.5996  37.2013 C.3            1 <1>                0.0000
      6 C6          31.5729  36.0748  38.6102 C.3            1 <1>                0.0000
      7 N7          30.2463  36.7049  38.5549 N.am           1 <1>                0.0000
      8 C8          29.2496  36.2768  39.3548 C.2            1 <1>                0.0000
      9 O9          29.4679  35.4278  40.1962 O.2            1 <1>                0.0000
     10 O10         28.0120  36.7899  39.2215 O.3            1 <1>                0.0000
     11 C11         27.0799  36.5540  40.3095 C.3            1 <1>                0.0000
     12 C12         25.8004  37.3572  40.0681 C.3            1 <1>                0.0000
     13 C13         26.7414  35.0634  40.3769 C.3            1 <1>                0.0000
     14 C14         27.7160  36.9927  41.6301 C.3            1 <1>                0.0000
     15 S15         32.9532  37.2312  35.2756 S.o2           1 <1>                0.0000
     16 O16         33.6787  38.1992  36.0213 O.2            1 <1>                0.0000
     17 O17         33.5522  36.0672  34.7228 O.2            1 <1>                0.0000
     18 Cl18        32.1001  38.2202  33.7347 Cl             1 <1>                0.0000
     19 H19         27.9302  37.3613  37.3975 H              1 <1>                0.0000
     20 H20         28.2963  38.5895  38.6327 H              1 <1>                0.0000
     21 H21         28.3826  39.0109  36.9055 H              1 <1>                0.0000
     22 H22         30.6490  38.6609  37.8895 H              1 <1>                0.0000
     23 H23         29.6670  36.6105  35.8533 H              1 <1>                0.0000
     24 H24         30.4302  38.1880  35.5248 H              1 <1>                0.0000
     25 H25         31.3239  34.7511  36.9225 H              1 <1>                0.0000
     26 H26         32.9984  35.3060  37.1822 H              1 <1>                0.0000
     27 H27         31.5448  35.2221  39.2886 H              1 <1>                0.0000
     28 H28         32.3079  36.7997  38.9600 H              1 <1>                0.0000
     29 H29         25.3472  37.0447  39.1273 H              1 <1>                0.0000
     30 H30         25.1006  37.1802  40.8849 H              1 <1>                0.0000
     31 H31         26.0416  38.4192  40.0201 H              1 <1>                0.0000
     32 H32         27.6529  34.4912  40.5489 H              1 <1>                0.0000
     33 H33         26.0416  34.8864  41.1938 H              1 <1>                0.0000
     34 H34         26.2882  34.7509  39.4361 H              1 <1>                0.0000
     35 H35         27.9572  38.0545  41.5821 H              1 <1>                0.0000
     36 H36         27.0163  36.8156  42.4469 H              1 <1>                0.0000
     37 H37         28.6276  36.4204  41.8021 H              1 <1>                0.0000
@<TRIPOS>BOND
    1    1    2 1     
    2    1   19 1     
    3    1   20 1     
    4    1   21 1     
    5    2    3 1     
    6    2    7 1     
    7    2   22 1     
    8    3    4 1     
    9    3   23 1     
   10    3   24 1     
   11    4    5 1     
   12    4   15 1     
   13    5    6 1     
   14    5   25 1     
   15    5   26 1     
   16    6    7 1     
   17    6   27 1     
   18    6   28 1     
   19    7    8 am    
   20    8    9 2     
   21    8   10 1     
   22   10   11 1     
   23   11   12 1     
   24   11   13 1     
   25   11   14 1     
   26   12   29 1     
   27   12   30 1     
   28   12   31 1     
   29   13   32 1     
   30   13   33 1     
   31   13   34 1     
   32   14   35 1     
   33   14   36 1     
   34   14   37 1     
   35   15   16 2     
   36   15   17 2     
   37   15   18 1     
@<TRIPOS>SUBSTRUCTURE
      1 ****           1
@<TRIPOS>COMMENT
> <Gold.Version>
2022.2.0

> <Gold.Id.Protein>
1qkm|1qkm_protein|mol2

> <Gold.Protein.RotatedTorsions>
[  496  491  490  487 ] final  -83.12 input  -89.99 | X-H torsion

> <Gold.Protein.ActiveResidues>
 MET295  LEU298  THR299  LEU301  ALA302  GLU305  TRP335  MET336  LEU339  MET340 
 GLY342  LEU343  ARG346  PHE356  ILE373  ILE376  PHE377  LEU380  LYS471  GLY472 
 MET473  HIS475  LEU476  LEU477  ASN478  MET479  VAL484  VAL487 

> <Gold.Protein.RotatedAtoms>
   36.6942   34.6925   41.1646 H   0  0  0  0  0  0  0  0  0  0  0  0  # atno 496  bound_to 491 

> <Gold.Score>
     Score     S(PLP)   S(hbond)     S(cho)   S(metal)  DE(clash)   DE(tors)     intcor
     37.08     -38.05       0.00       0.00       0.00      17.93       1.48      19.92

> <Gold.PLP.Fitness>
37.0826

> <Gold.PLP.PLP>
-38.0480

> <Gold.PLP.part.hbond>
-0.0608

> <Gold.PLP.part.metal>
0.0000

> <Gold.PLP.part.buried>
1.7446

> <Gold.PLP.part.nonpolar>
-41.4623

> <Gold.PLP.part.repulsive>
0.9721

> <Gold.PLP.ligand.clash>
17.9335

> <Gold.PLP.ligand.torsion>
1.4753

> <Gold.PLP.Chemscore.Hbond>
0.0000

> <Gold.PLP.Chemscore.CHOScore>
0.0000

> <Gold.PLP.Chemscore.Metal>
0.0000

> <Gold.PLP.Chemscore.Internal.Correction>
19.9188

