#       Name:                EN300-6738463_i001
#       Creating user name   aseyller
#       Creation time:       Fri Apr 21 19:06:52 2023


#       File generated by GOLD software.
#

@<TRIPOS>MOLECULE
EN300-6738463_i001|Sulfonylchlorides|mol2|733|dock14
    37    37     1
SMALL
USER_CHARGES


@<TRIPOS>ATOM
      1 C1          29.5644  37.8991  36.6057 C.3            1 <1>                0.0000
      2 C2          28.9403  36.9694  37.6482 C.3            1 <1>                0.0000
      3 C3          28.2232  37.8027  38.7176 C.3            1 <1>                0.0000
      4 N4          27.8597  36.9201  39.8351 N.pl3          1 <1>                0.0000
      5 C5          28.9142  36.1294  40.4851 C.3            1 <1>                0.0000
      6 C6          29.6313  35.2960  39.4157 C.3            1 <1>                0.0000
      7 N7          29.9949  36.1785  38.2982 N.am           1 <1>                0.0000
      8 C8          31.2723  36.2609  37.8766 C.2            1 <1>                0.0000
      9 O9          32.1187  35.5332  38.3567 O.2            1 <1>                0.0000
     10 O10         31.6107  37.1495  36.9235 O.3            1 <1>                0.0000
     11 C11         32.7181  36.7943  36.0543 C.3            1 <1>                0.0000
     12 C12         34.0240  36.8322  36.8505 C.3            1 <1>                0.0000
     13 C13         32.4996  35.3851  35.4998 C.3            1 <1>                0.0000
     14 C14         32.7977  37.7912  34.8963 C.3            1 <1>                0.0000
     15 S15         26.2901  36.8190  40.3532 S.o2           1 <1>                0.0000
     16 O16         25.5039  37.5033  39.3872 O.2            1 <1>                0.0000
     17 O17         26.0725  35.4614  40.7118 O.2            1 <1>                0.0000
     18 Cl18        26.1541  37.8890  42.0611 Cl             1 <1>                0.0000
     19 H19         30.3051  38.5384  37.0861 H              1 <1>                0.0000
     20 H20         30.0464  37.3039  35.8302 H              1 <1>                0.0000
     21 H21         28.7863  38.5175  36.1582 H              1 <1>                0.0000
     22 H22         28.2262  36.3035  37.1637 H              1 <1>                0.0000
     23 H23         28.8875  38.5899  39.0742 H              1 <1>                0.0000
     24 H24         27.3222  38.2454  38.2931 H              1 <1>                0.0000
     25 H25         29.6278  36.7974  40.9676 H              1 <1>                0.0000
     26 H26         28.4696  35.4669  41.2278 H              1 <1>                0.0000
     27 H27         30.5324  34.8533  39.8402 H              1 <1>                0.0000
     28 H28         28.9671  34.5088  39.0591 H              1 <1>                0.0000
     29 H29         33.9674  36.1220  37.6754 H              1 <1>                0.0000
     30 H30         34.8554  36.5656  36.1980 H              1 <1>                0.0000
     31 H31         34.1797  37.8362  37.2455 H              1 <1>                0.0000
     32 H32         31.5693  35.3581  34.9325 H              1 <1>                0.0000
     33 H33         33.3311  35.1184  34.8472 H              1 <1>                0.0000
     34 H34         32.4430  34.6749  36.3248 H              1 <1>                0.0000
     35 H35         32.9534  38.7951  35.2913 H              1 <1>                0.0000
     36 H36         33.6290  37.5246  34.2438 H              1 <1>                0.0000
     37 H37         31.8673  37.7641  34.3290 H              1 <1>                0.0000
@<TRIPOS>BOND
    1    1    2 1     
    2    1   19 1     
    3    1   20 1     
    4    1   21 1     
    5    2    3 1     
    6    2    7 1     
    7    2   22 1     
    8    3    4 1     
    9    3   23 1     
   10    3   24 1     
   11    4    5 1     
   12    4   15 1     
   13    5    6 1     
   14    5   25 1     
   15    5   26 1     
   16    6    7 1     
   17    6   27 1     
   18    6   28 1     
   19    7    8 am    
   20    8    9 2     
   21    8   10 1     
   22   10   11 1     
   23   11   12 1     
   24   11   13 1     
   25   11   14 1     
   26   12   29 1     
   27   12   30 1     
   28   12   31 1     
   29   13   32 1     
   30   13   33 1     
   31   13   34 1     
   32   14   35 1     
   33   14   36 1     
   34   14   37 1     
   35   15   16 2     
   36   15   17 2     
   37   15   18 1     
@<TRIPOS>SUBSTRUCTURE
      1 ****           1
@<TRIPOS>COMMENT
> <Gold.Version>
2022.2.0

> <Gold.Id.Protein>
1qkm|1qkm_protein|mol2

> <Gold.Protein.RotatedTorsions>
[  496  491  490  487 ] final  -87.79 input  -89.99 | X-H torsion

> <Gold.Protein.ActiveResidues>
 MET295  LEU298  THR299  LEU301  ALA302  GLU305  TRP335  MET336  LEU339  MET340 
 GLY342  LEU343  ARG346  PHE356  ILE373  ILE376  PHE377  LEU380  LYS471  GLY472 
 MET473  HIS475  LEU476  LEU477  ASN478  MET479  VAL484  VAL487 

> <Gold.Protein.RotatedAtoms>
   36.7369   34.6672   41.1060 H   0  0  0  0  0  0  0  0  0  0  0  0  # atno 496  bound_to 491 

> <Gold.Score>
     Score     S(PLP)   S(hbond)     S(cho)   S(metal)  DE(clash)   DE(tors)     intcor
     37.80     -38.77       0.00       0.00       0.00      17.93       1.47      19.89

> <Gold.PLP.Fitness>
37.7981

> <Gold.PLP.PLP>
-38.7718

> <Gold.PLP.part.hbond>
0.0000

> <Gold.PLP.part.metal>
0.0000

> <Gold.PLP.part.buried>
-2.9007

> <Gold.PLP.part.nonpolar>
-36.7741

> <Gold.PLP.part.repulsive>
0.3506

> <Gold.PLP.ligand.clash>
17.9335

> <Gold.PLP.ligand.torsion>
1.4654

> <Gold.PLP.Chemscore.Hbond>
0.0000

> <Gold.PLP.Chemscore.CHOScore>
0.0000

> <Gold.PLP.Chemscore.Metal>
0.0000

> <Gold.PLP.Chemscore.Internal.Correction>
19.8907

