#       Name:                EN300-6738463_i001
#       Creating user name   aseyller
#       Creation time:       Fri Apr 21 19:07:00 2023


#       File generated by GOLD software.
#

@<TRIPOS>MOLECULE
EN300-6738463_i001|Sulfonylchlorides|mol2|733|dock20
    37    37     1
SMALL
USER_CHARGES


@<TRIPOS>ATOM
      1 C1          28.8463  38.4151  37.6044 C.3            1 <1>                0.0000
      2 C2          30.1733  37.6613  37.7127 C.3            1 <1>                0.0000
      3 C3          30.4887  36.9796  36.3755 C.3            1 <1>                0.0000
      4 N4          31.6163  36.0579  36.5727 N.pl3          1 <1>                0.0000
      5 C5          31.5135  35.0254  37.6133 C.3            1 <1>                0.0000
      6 C6          31.1982  35.7070  38.9505 C.3            1 <1>                0.0000
      7 N7          30.0704  36.6287  38.7534 N.am           1 <1>                0.0000
      8 C8          28.9621  36.5291  39.5136 C.2            1 <1>                0.0000
      9 O9          28.9252  35.7354  40.4330 O.2            1 <1>                0.0000
     10 O10         27.8957  37.3089  39.2544 O.3            1 <1>                0.0000
     11 C11         26.5885  36.7685  39.5822 C.3            1 <1>                0.0000
     12 C12         26.4328  36.6969  41.1025 C.3            1 <1>                0.0000
     13 C13         25.5015  37.6744  39.0002 C.3            1 <1>                0.0000
     14 C14         26.4538  35.3646  38.9891 C.3            1 <1>                0.0000
     15 S15         32.9782  36.1804  35.6385 S.o2           1 <1>                0.0000
     16 O16         34.0834  36.1070  36.5287 O.2            1 <1>                0.0000
     17 O17         32.7982  35.2876  34.5477 O.2            1 <1>                0.0000
     18 Cl18        32.9999  38.0418  34.8543 Cl             1 <1>                0.0000
     19 H19         28.0439  37.7093  37.3896 H              1 <1>                0.0000
     20 H20         28.6399  38.9244  38.5457 H              1 <1>                0.0000
     21 H21         28.9097  39.1487  36.8006 H              1 <1>                0.0000
     22 H22         30.9713  38.3598  37.9643 H              1 <1>                0.0000
     23 H23         29.6162  36.4225  36.0341 H              1 <1>                0.0000
     24 H24         30.7573  37.7331  35.6351 H              1 <1>                0.0000
     25 H25         30.7140  34.3291  37.3602 H              1 <1>                0.0000
     26 H26         32.4589  34.4883  37.6905 H              1 <1>                0.0000
     27 H27         30.9296  34.9535  39.6909 H              1 <1>                0.0000
     28 H28         32.0706  36.2642  39.2918 H              1 <1>                0.0000
     29 H29         26.5287  37.6971  41.5251 H              1 <1>                0.0000
     30 H30         25.4515  36.2911  41.3486 H              1 <1>                0.0000
     31 H31         27.2072  36.0515  41.5171 H              1 <1>                0.0000
     32 H32         25.6125  37.7254  37.9172 H              1 <1>                0.0000
     33 H33         24.5202  37.2686  39.2463 H              1 <1>                0.0000
     34 H34         25.5975  38.6746  39.4228 H              1 <1>                0.0000
     35 H35         27.2281  34.7192  39.4037 H              1 <1>                0.0000
     36 H36         25.4725  34.9588  39.2351 H              1 <1>                0.0000
     37 H37         26.5647  35.4156  37.9059 H              1 <1>                0.0000
@<TRIPOS>BOND
    1    1    2 1     
    2    1   19 1     
    3    1   20 1     
    4    1   21 1     
    5    2    3 1     
    6    2    7 1     
    7    2   22 1     
    8    3    4 1     
    9    3   23 1     
   10    3   24 1     
   11    4    5 1     
   12    4   15 1     
   13    5    6 1     
   14    5   25 1     
   15    5   26 1     
   16    6    7 1     
   17    6   27 1     
   18    6   28 1     
   19    7    8 am    
   20    8    9 2     
   21    8   10 1     
   22   10   11 1     
   23   11   12 1     
   24   11   13 1     
   25   11   14 1     
   26   12   29 1     
   27   12   30 1     
   28   12   31 1     
   29   13   32 1     
   30   13   33 1     
   31   13   34 1     
   32   14   35 1     
   33   14   36 1     
   34   14   37 1     
   35   15   16 2     
   36   15   17 2     
   37   15   18 1     
@<TRIPOS>SUBSTRUCTURE
      1 ****           1
@<TRIPOS>COMMENT
> <Gold.Version>
2022.2.0

> <Gold.Id.Protein>
1qkm|1qkm_protein|mol2

> <Gold.Protein.RotatedTorsions>
[  496  491  490  487 ] final -154.70 input  -89.99 | X-H torsion

> <Gold.Protein.ActiveResidues>
 MET295  LEU298  THR299  LEU301  ALA302  GLU305  TRP335  MET336  LEU339  MET340 
 GLY342  LEU343  ARG346  PHE356  ILE373  ILE376  PHE377  LEU380  LYS471  GLY472 
 MET473  HIS475  LEU476  LEU477  ASN478  MET479  VAL484  VAL487 

> <Gold.Protein.RotatedAtoms>
   37.2537   33.8462   40.7311 H   0  0  0  0  0  0  0  0  0  0  0  0  # atno 496  bound_to 491 

> <Gold.Score>
     Score     S(PLP)   S(hbond)     S(cho)   S(metal)  DE(clash)   DE(tors)     intcor
     38.57     -39.99       0.00       0.00       0.00      17.93       1.69      19.89

> <Gold.PLP.Fitness>
38.5716

> <Gold.PLP.PLP>
-39.9925

> <Gold.PLP.part.hbond>
0.0000

> <Gold.PLP.part.metal>
0.0000

> <Gold.PLP.part.buried>
3.9593

> <Gold.PLP.part.nonpolar>
-47.0391

> <Gold.PLP.part.repulsive>
2.8578

> <Gold.PLP.ligand.clash>
17.9335

> <Gold.PLP.ligand.torsion>
1.6890

> <Gold.PLP.Chemscore.Hbond>
0.0000

> <Gold.PLP.Chemscore.CHOScore>
0.0000

> <Gold.PLP.Chemscore.Metal>
0.0000

> <Gold.PLP.Chemscore.Internal.Correction>
19.8907

