#       Name:                EN300-6738463_i001
#       Creating user name   aseyller
#       Creation time:       Fri Apr 21 19:06:53 2023


#       File generated by GOLD software.
#

@<TRIPOS>MOLECULE
EN300-6738463_i001|Sulfonylchlorides|mol2|733|dock15
    37    37     1
SMALL
USER_CHARGES


@<TRIPOS>ATOM
      1 C1          30.8041  35.1300  39.2772 C.3            1 <1>                0.0000
      2 C2          29.6656  36.1500  39.3424 C.3            1 <1>                0.0000
      3 C3          28.3325  35.4208  39.5504 C.3            1 <1>                0.0000
      4 N4          27.2367  36.3796  39.3506 N.pl3          1 <1>                0.0000
      5 C5          27.1709  37.1268  38.0869 C.3            1 <1>                0.0000
      6 C6          28.5040  37.8560  37.8788 C.3            1 <1>                0.0000
      7 N7          29.5999  36.8973  38.0786 N.am           1 <1>                0.0000
      8 C8          30.5282  36.7071  37.1202 C.2            1 <1>                0.0000
      9 O9          31.3739  35.8452  37.2559 O.2            1 <1>                0.0000
     10 O10         30.5186  37.4722  36.0125 O.3            1 <1>                0.0000
     11 C11         31.7982  37.7239  35.3740 C.3            1 <1>                0.0000
     12 C12         31.6276  38.7941  34.2941 C.3            1 <1>                0.0000
     13 C13         32.8032  38.2106  36.4201 C.3            1 <1>                0.0000
     14 C14         32.3123  36.4321  34.7353 C.3            1 <1>                0.0000
     15 S15         26.0960  36.6131  40.5282 S.o2           1 <1>                0.0000
     16 O16         25.2015  37.5988  40.0305 O.2            1 <1>                0.0000
     17 O17         25.6758  35.3203  40.9420 O.2            1 <1>                0.0000
     18 Cl18        27.0342  37.4424  42.1132 Cl             1 <1>                0.0000
     19 H19         30.6484  34.4655  38.4273 H              1 <1>                0.0000
     20 H20         31.7537  35.6523  39.1608 H              1 <1>                0.0000
     21 H21         30.8213  34.5453  40.1970 H              1 <1>                0.0000
     22 H22         29.8386  36.8389  40.1692 H              1 <1>                0.0000
     23 H23         28.2436  34.6082  38.8294 H              1 <1>                0.0000
     24 H24         28.2884  35.0208  40.5634 H              1 <1>                0.0000
     25 H25         26.9993  36.4357  37.2616 H              1 <1>                0.0000
     26 H26         26.3598  37.8535  38.1333 H              1 <1>                0.0000
     27 H27         28.5481  38.2560  36.8659 H              1 <1>                0.0000
     28 H28         28.5929  38.6686  38.5999 H              1 <1>                0.0000
     29 H29         31.2615  39.7144  34.7491 H              1 <1>                0.0000
     30 H30         32.5882  38.9830  33.8147 H              1 <1>                0.0000
     31 H31         30.9116  38.4474  33.5488 H              1 <1>                0.0000
     32 H32         32.9247  37.4481  37.1894 H              1 <1>                0.0000
     33 H33         33.7638  38.3995  35.9407 H              1 <1>                0.0000
     34 H34         32.4369  39.1309  36.8751 H              1 <1>                0.0000
     35 H35         31.5963  36.0855  33.9901 H              1 <1>                0.0000
     36 H36         33.2728  36.6210  34.2560 H              1 <1>                0.0000
     37 H37         32.4338  35.6697  35.5047 H              1 <1>                0.0000
@<TRIPOS>BOND
    1    1    2 1     
    2    1   19 1     
    3    1   20 1     
    4    1   21 1     
    5    2    3 1     
    6    2    7 1     
    7    2   22 1     
    8    3    4 1     
    9    3   23 1     
   10    3   24 1     
   11    4    5 1     
   12    4   15 1     
   13    5    6 1     
   14    5   25 1     
   15    5   26 1     
   16    6    7 1     
   17    6   27 1     
   18    6   28 1     
   19    7    8 am    
   20    8    9 2     
   21    8   10 1     
   22   10   11 1     
   23   11   12 1     
   24   11   13 1     
   25   11   14 1     
   26   12   29 1     
   27   12   30 1     
   28   12   31 1     
   29   13   32 1     
   30   13   33 1     
   31   13   34 1     
   32   14   35 1     
   33   14   36 1     
   34   14   37 1     
   35   15   16 2     
   36   15   17 2     
   37   15   18 1     
@<TRIPOS>SUBSTRUCTURE
      1 ****           1
@<TRIPOS>COMMENT
> <Gold.Version>
2022.2.0

> <Gold.Id.Protein>
1qkm|1qkm_protein|mol2

> <Gold.Protein.RotatedTorsions>
[  496  491  490  487 ] final  127.70 input  -89.99 | X-H torsion

> <Gold.Protein.ActiveResidues>
 MET295  LEU298  THR299  LEU301  ALA302  GLU305  TRP335  MET336  LEU339  MET340 
 GLY342  LEU343  ARG346  PHE356  ILE373  ILE376  PHE377  LEU380  LYS471  GLY472 
 MET473  HIS475  LEU476  LEU477  ASN478  MET479  VAL484  VAL487 

> <Gold.Protein.RotatedAtoms>
   37.1372   32.9623   41.5072 H   0  0  0  0  0  0  0  0  0  0  0  0  # atno 496  bound_to 491 

> <Gold.Score>
     Score     S(PLP)   S(hbond)     S(cho)   S(metal)  DE(clash)   DE(tors)     intcor
     37.99     -38.55       0.00       0.00       0.00      17.46       1.49      19.89

> <Gold.PLP.Fitness>
37.9899

> <Gold.PLP.PLP>
-38.5487

> <Gold.PLP.part.hbond>
0.0000

> <Gold.PLP.part.metal>
0.0000

> <Gold.PLP.part.buried>
3.4346

> <Gold.PLP.part.nonpolar>
-43.8252

> <Gold.PLP.part.repulsive>
1.4310

> <Gold.PLP.ligand.clash>
17.4603

> <Gold.PLP.ligand.torsion>
1.4946

> <Gold.PLP.Chemscore.Hbond>
0.0000

> <Gold.PLP.Chemscore.CHOScore>
0.0000

> <Gold.PLP.Chemscore.Metal>
0.0000

> <Gold.PLP.Chemscore.Internal.Correction>
19.8907

