#       Name:                EN300-6738463_i001
#       Creating user name   aseyller
#       Creation time:       Fri Apr 21 19:06:48 2023


#       File generated by GOLD software.
#

@<TRIPOS>MOLECULE
EN300-6738463_i001|Sulfonylchlorides|mol2|733|dock11
    37    37     1
SMALL
USER_CHARGES


@<TRIPOS>ATOM
      1 C1          31.7169  34.5179  38.1934 C.3            1 <1>                0.0000
      2 C2          30.8848  35.5255  38.9890 C.3            1 <1>                0.0000
      3 C3          29.4521  35.0009  39.1448 C.3            1 <1>                0.0000
      4 N4          28.6109  36.0829  39.6755 N.pl3          1 <1>                0.0000
      5 C5          28.5664  37.3634  38.9558 C.3            1 <1>                0.0000
      6 C6          29.9991  37.8881  38.8001 C.3            1 <1>                0.0000
      7 N7          30.8403  36.8061  38.2692 N.am           1 <1>                0.0000
      8 C8          31.5584  36.9852  37.1429 C.2            1 <1>                0.0000
      9 O9          32.1750  36.0555  36.6612 O.2            1 <1>                0.0000
     10 O10         31.5928  38.1942  36.5515 O.3            1 <1>                0.0000
     11 C11         31.7656  38.2183  35.1101 C.3            1 <1>                0.0000
     12 C12         31.5408  39.6406  34.5932 C.3            1 <1>                0.0000
     13 C13         33.1845  37.7663  34.7589 C.3            1 <1>                0.0000
     14 C14         30.7536  37.2732  34.4592 C.3            1 <1>                0.0000
     15 S15         27.7285  35.8628  41.0595 S.o2           1 <1>                0.0000
     16 O16         27.2919  34.5105  41.0462 O.2            1 <1>                0.0000
     17 O17         28.4951  36.4216  42.1174 O.2            1 <1>                0.0000
     18 Cl18        26.0672  37.0002  40.8964 Cl             1 <1>                0.0000
     19 H19         31.2914  34.4019  37.1966 H              1 <1>                0.0000
     20 H20         32.7424  34.8781  38.1110 H              1 <1>                0.0000
     21 H21         31.7099  33.5558  38.7056 H              1 <1>                0.0000
     22 H22         31.3299  35.6714  39.9732 H              1 <1>                0.0000
     23 H23         29.0710  34.6839  38.1740 H              1 <1>                0.0000
     24 H24         29.4441  34.1586  39.8365 H              1 <1>                0.0000
     25 H25         28.1223  37.2147  37.9715 H              1 <1>                0.0000
     26 H26         27.9736  38.0813  39.5227 H              1 <1>                0.0000
     27 H27         30.0071  38.7304  38.1084 H              1 <1>                0.0000
     28 H28         30.3802  38.2050  39.7708 H              1 <1>                0.0000
     29 H29         32.2618  40.3139  35.0567 H              1 <1>                0.0000
     30 H30         31.6705  39.6587  33.5110 H              1 <1>                0.0000
     31 H31         30.5299  39.9626  34.8434 H              1 <1>                0.0000
     32 H32         33.3446  36.7530  35.1271 H              1 <1>                0.0000
     33 H33         33.3142  37.7844  33.6767 H              1 <1>                0.0000
     34 H34         33.9055  38.4396  35.2225 H              1 <1>                0.0000
     35 H35         29.7427  37.5952  34.7094 H              1 <1>                0.0000
     36 H36         30.8832  37.2912  33.3772 H              1 <1>                0.0000
     37 H37         30.9137  36.2598  34.8276 H              1 <1>                0.0000
@<TRIPOS>BOND
    1    1    2 1     
    2    1   19 1     
    3    1   20 1     
    4    1   21 1     
    5    2    3 1     
    6    2    7 1     
    7    2   22 1     
    8    3    4 1     
    9    3   23 1     
   10    3   24 1     
   11    4    5 1     
   12    4   15 1     
   13    5    6 1     
   14    5   25 1     
   15    5   26 1     
   16    6    7 1     
   17    6   27 1     
   18    6   28 1     
   19    7    8 am    
   20    8    9 2     
   21    8   10 1     
   22   10   11 1     
   23   11   12 1     
   24   11   13 1     
   25   11   14 1     
   26   12   29 1     
   27   12   30 1     
   28   12   31 1     
   29   13   32 1     
   30   13   33 1     
   31   13   34 1     
   32   14   35 1     
   33   14   36 1     
   34   14   37 1     
   35   15   16 2     
   36   15   17 2     
   37   15   18 1     
@<TRIPOS>SUBSTRUCTURE
      1 ****           1
@<TRIPOS>COMMENT
> <Gold.Version>
2022.2.0

> <Gold.Id.Protein>
1qkm|1qkm_protein|mol2

> <Gold.Protein.RotatedTorsions>
[  496  491  490  487 ] final   24.26 input  -89.99 | X-H torsion

> <Gold.Protein.ActiveResidues>
 MET295  LEU298  THR299  LEU301  ALA302  GLU305  TRP335  MET336  LEU339  MET340 
 GLY342  LEU343  ARG346  PHE356  ILE373  ILE376  PHE377  LEU380  LYS471  GLY472 
 MET473  HIS475  LEU476  LEU477  ASN478  MET479  VAL484  VAL487 

> <Gold.Protein.RotatedAtoms>
   36.3194   33.8452   42.3697 H   0  0  0  0  0  0  0  0  0  0  0  0  # atno 496  bound_to 491 

> <Gold.Score>
     Score     S(PLP)   S(hbond)     S(cho)   S(metal)  DE(clash)   DE(tors)     intcor
     41.54     -42.39       0.00       0.00       0.00      17.46       1.65      19.91

> <Gold.PLP.Fitness>
41.5437

> <Gold.PLP.PLP>
-42.3937

> <Gold.PLP.part.hbond>
0.0000

> <Gold.PLP.part.metal>
0.0000

> <Gold.PLP.part.buried>
1.0440

> <Gold.PLP.part.nonpolar>
-44.6036

> <Gold.PLP.part.repulsive>
1.2199

> <Gold.PLP.ligand.clash>
17.4603

> <Gold.PLP.ligand.torsion>
1.6479

> <Gold.PLP.Chemscore.Hbond>
0.0000

> <Gold.PLP.Chemscore.CHOScore>
0.0000

> <Gold.PLP.Chemscore.Metal>
0.0000

> <Gold.PLP.Chemscore.Internal.Correction>
19.9061

