#       Name:                EN300-43349_i004
#       Creating user name   aseyller
#       Creation time:       Fri Apr 21 14:35:58 2023


#       File generated by GOLD software.
#

@<TRIPOS>MOLECULE
EN300-43349_i004|amine_1|mol2|734|dock19
    38    39     1
SMALL
USER_CHARGES


@<TRIPOS>ATOM
      1 N1          32.3565  36.7243  34.3028 N.3            1 <1>                0.0000
      2 C2          33.1468  36.3967  35.4970 C.3            1 <1>                0.0000
      3 C3          32.2233  36.1940  36.6705 C.ar           1 <1>                0.0000
      4 C4          32.3678  35.0844  37.4934 C.ar           1 <1>                0.0000
      5 C5          31.4999  34.9362  38.5598 C.ar           1 <1>                0.0000
      6 C6          30.5170  35.8980  38.7712 C.ar           1 <1>                0.0000
      7 N7          30.4113  36.9420  37.9637 N.ar           1 <1>                0.0000
      8 C8          31.2291  37.1121  36.9419 C.ar           1 <1>                0.0000
      9 N9          29.6380  35.7616  39.8392 N.3            1 <1>                0.0000
     10 C10         29.6671  36.9510  40.6999 C.3            1 <1>                0.0000
     11 C11         28.8013  36.7076  41.9381 C.3            1 <1>                0.0000
     12 C12         27.3654  36.4069  41.4997 C.3            1 <1>                0.0000
     13 C13         27.3687  35.1934  40.5658 C.3            1 <1>                0.0000
     14 C14         28.2760  35.4807  39.3674 C.3            1 <1>                0.0000
     15 C15         27.7415  36.6931  38.6023 C.3            1 <1>                0.0000
     16 C16         26.2588  36.4842  38.2875 C.3            1 <1>                0.0000
     17 O17         25.4646  37.1460  39.2741 O.3            1 <1>                0.0000
     18 H18         33.7133  35.4827  35.3184 H              1 <1>                0.0000
     19 H19         33.8347  37.2142  35.7129 H              1 <1>                0.0000
     20 H20         33.1403  34.3538  37.3044 H              1 <1>                0.0000
     21 H21         31.5837  34.0851  39.2194 H              1 <1>                0.0000
     22 H22         31.1129  37.9759  36.3043 H              1 <1>                0.0000
     23 H23         30.6933  37.1514  41.0080 H              1 <1>                0.0000
     24 H24         29.2798  37.8078  40.1486 H              1 <1>                0.0000
     25 H25         29.1962  35.8594  42.4973 H              1 <1>                0.0000
     26 H26         28.8105  37.5964  42.5691 H              1 <1>                0.0000
     27 H27         26.7547  36.1902  42.3762 H              1 <1>                0.0000
     28 H28         26.9566  37.2698  40.9742 H              1 <1>                0.0000
     29 H29         27.7412  34.3214  41.1035 H              1 <1>                0.0000
     30 H30         26.3545  35.0004  40.2163 H              1 <1>                0.0000
     31 H31         28.2919  34.6132  38.7077 H              1 <1>                0.0000
     32 H32         27.8608  37.5889  39.2118 H              1 <1>                0.0000
     33 H33         28.2976  36.8097  37.6721 H              1 <1>                0.0000
     34 H34         26.0346  36.8969  37.3039 H              1 <1>                0.0000
     35 H35         26.0327  35.4180  38.2944 H              1 <1>                0.0000
     36 H36         32.2399  35.9140  33.7130 H              1 <1>                0.0000
     37 H37         31.4630  37.1179  34.5574 H              1 <1>                0.0000
     38 H38         25.7526  36.9859  40.1831 H              1 <1>                0.0000
@<TRIPOS>BOND
    1    1    2 1     
    2    1   36 1     
    3    1   37 1     
    4    2    3 1     
    5    2   18 1     
    6    2   19 1     
    7    3    4 ar    
    8    3    8 ar    
    9    4    5 ar    
   10    4   20 1     
   11    5    6 ar    
   12    5   21 1     
   13    6    7 ar    
   14    6    9 1     
   15    7    8 ar    
   16    8   22 1     
   17    9   10 1     
   18    9   14 1     
   19   10   11 1     
   20   10   23 1     
   21   10   24 1     
   22   11   12 1     
   23   11   25 1     
   24   11   26 1     
   25   12   13 1     
   26   12   27 1     
   27   12   28 1     
   28   13   14 1     
   29   13   29 1     
   30   13   30 1     
   31   14   15 1     
   32   14   31 1     
   33   15   16 1     
   34   15   32 1     
   35   15   33 1     
   36   16   17 1     
   37   16   34 1     
   38   16   35 1     
   39   17   38 1     
@<TRIPOS>SUBSTRUCTURE
      1 ****           1
@<TRIPOS>SET
DONOR_HYDROGENS      STATIC     ATOMS    <user>   **** ""
3 36 37 38
ATOM$RED        STATIC     ATOMS    COLORGROUP SYSTEM
3 36 37 38
@<TRIPOS>COMMENT
> <Gold.Version>
2022.2.0

> <Gold.Id.Protein>
1qkm|1qkm_protein|mol2

> <Gold.Protein.RotatedTorsions>
[  496  491  490  487 ] final  156.25 input  -89.99 | X-H torsion

> <Gold.Protein.ActiveResidues>
 MET295  LEU298  THR299  LEU301  ALA302  GLU305  TRP335  MET336  LEU339  MET340 
 GLY342  LEU343  ARG346  PHE356  ILE373  ILE376  PHE377  LEU380  LYS471  GLY472 
 MET473  HIS475  LEU476  LEU477  ASN478  MET479  VAL484  VAL487 

> <Gold.Protein.RotatedAtoms>
   37.2857   33.1649   41.1157 H   0  0  0  0  0  0  0  0  0  0  0  0  # atno 496  bound_to 491 

> <Gold.Score>
     Score     S(PLP)   S(hbond)     S(cho)   S(metal)  DE(clash)   DE(tors)     intcor
     55.21     -53.16       1.00       0.00       0.00       0.00       0.51       0.06

> <Gold.PLP.Fitness>
55.2069

> <Gold.PLP.PLP>
-53.1628

> <Gold.PLP.part.hbond>
-1.3855

> <Gold.PLP.part.metal>
0.0000

> <Gold.PLP.part.buried>
-5.1800

> <Gold.PLP.part.nonpolar>
-47.5098

> <Gold.PLP.part.repulsive>
0.1092

> <Gold.PLP.ligand.clash>
0.0000

> <Gold.PLP.ligand.torsion>
0.5088

> <Gold.PLP.Chemscore.Hbond>
1.0000

> <Gold.PLP.Chemscore.CHOScore>
0.0000

> <Gold.PLP.Chemscore.Metal>
0.0000

> <Gold.Chemscore.Hbonds>
donor molecule, donor type, donor heavy atom, donor atom, acceptor molecule, acceptor atom, score
      L1  H     1    36       P1  3187  1.00

> <Gold.PLP.Chemscore.Internal.Correction>
0.0617

