#       Name:                EN300-43349_i004
#       Creating user name   aseyller
#       Creation time:       Fri Apr 21 14:35:33 2023


#       File generated by GOLD software.
#

@<TRIPOS>MOLECULE
EN300-43349_i004|amine_1|mol2|734|dock1
    38    39     1
SMALL
USER_CHARGES


@<TRIPOS>ATOM
      1 N1          24.5833  36.1147  41.8142 N.3            1 <1>                0.0000
      2 C2          25.2318  37.1621  41.0139 C.3            1 <1>                0.0000
      3 C3          26.6001  36.6949  40.5892 C.ar           1 <1>                0.0000
      4 C4          27.6012  36.5061  41.5332 C.ar           1 <1>                0.0000
      5 C5          28.8427  36.0760  41.1016 C.ar           1 <1>                0.0000
      6 C6          29.0457  35.8484  39.7441 C.ar           1 <1>                0.0000
      7 N7          28.0656  36.0403  38.8748 N.ar           1 <1>                0.0000
      8 C8          26.8695  36.4447  39.2588 C.ar           1 <1>                0.0000
      9 N9          30.2885  35.4159  39.2964 N.3            1 <1>                0.0000
     10 C10         30.1686  34.1627  38.5404 C.3            1 <1>                0.0000
     11 C11         31.5641  33.6416  38.1896 C.3            1 <1>                0.0000
     12 C12         32.3019  34.6934  37.3566 C.3            1 <1>                0.0000
     13 C13         32.3707  36.0029  38.1472 C.3            1 <1>                0.0000
     14 C14         30.9518  36.4556  38.4992 C.3            1 <1>                0.0000
     15 C15         30.1591  36.6948  37.2126 C.3            1 <1>                0.0000
     16 C16         30.6057  38.0124  36.5760 C.3            1 <1>                0.0000
     17 O17         29.9958  39.1054  37.2656 O.3            1 <1>                0.0000
     18 H18         24.6284  37.3703  40.1303 H              1 <1>                0.0000
     19 H19         25.3266  38.0691  41.6109 H              1 <1>                0.0000
     20 H20         27.4144  36.6913  42.5806 H              1 <1>                0.0000
     21 H21         29.6439  35.9194  41.8086 H              1 <1>                0.0000
     22 H22         26.0941  36.5908  38.5214 H              1 <1>                0.0000
     23 H23         29.6459  33.4220  39.1455 H              1 <1>                0.0000
     24 H24         29.6076  34.3439  37.6236 H              1 <1>                0.0000
     25 H25         32.1210  33.4471  39.1062 H              1 <1>                0.0000
     26 H26         31.4746  32.7196  37.6150 H              1 <1>                0.0000
     27 H27         33.3119  34.3446  37.1412 H              1 <1>                0.0000
     28 H28         31.7660  34.8597  36.4222 H              1 <1>                0.0000
     29 H29         32.9402  35.8456  39.0632 H              1 <1>                0.0000
     30 H30         32.8572  36.7681  37.5423 H              1 <1>                0.0000
     31 H31         30.9978  37.3803  39.0745 H              1 <1>                0.0000
     32 H32         30.3398  35.8754  36.5168 H              1 <1>                0.0000
     33 H33         29.0954  36.7459  37.4454 H              1 <1>                0.0000
     34 H34         31.6902  38.0996  36.6440 H              1 <1>                0.0000
     35 H35         30.3048  38.0303  35.5286 H              1 <1>                0.0000
     36 H36         23.8945  35.6180  41.2693 H              1 <1>                0.0000
     37 H37         25.2659  35.4797  42.1999 H              1 <1>                0.0000
     38 H38         29.0613  38.9678  37.4723 H              1 <1>                0.0000
@<TRIPOS>BOND
    1    1    2 1     
    2    1   36 1     
    3    1   37 1     
    4    2    3 1     
    5    2   18 1     
    6    2   19 1     
    7    3    4 ar    
    8    3    8 ar    
    9    4    5 ar    
   10    4   20 1     
   11    5    6 ar    
   12    5   21 1     
   13    6    7 ar    
   14    6    9 1     
   15    7    8 ar    
   16    8   22 1     
   17    9   10 1     
   18    9   14 1     
   19   10   11 1     
   20   10   23 1     
   21   10   24 1     
   22   11   12 1     
   23   11   25 1     
   24   11   26 1     
   25   12   13 1     
   26   12   27 1     
   27   12   28 1     
   28   13   14 1     
   29   13   29 1     
   30   13   30 1     
   31   14   15 1     
   32   14   31 1     
   33   15   16 1     
   34   15   32 1     
   35   15   33 1     
   36   16   17 1     
   37   16   34 1     
   38   16   35 1     
   39   17   38 1     
@<TRIPOS>SUBSTRUCTURE
      1 ****           1
@<TRIPOS>SET
DONOR_HYDROGENS      STATIC     ATOMS    <user>   **** ""
3 36 37 38
ATOM$RED        STATIC     ATOMS    COLORGROUP SYSTEM
3 36 37 38
@<TRIPOS>COMMENT
> <Gold.Version>
2022.2.0

> <Gold.Id.Protein>
1qkm|1qkm_protein|mol2

> <Gold.Protein.RotatedTorsions>
[  496  491  490  487 ] final -103.44 input  -89.99 | X-H torsion

> <Gold.Protein.ActiveResidues>
 MET295  LEU298  THR299  LEU301  ALA302  GLU305  TRP335  MET336  LEU339  MET340 
 GLY342  LEU343  ARG346  PHE356  ILE373  ILE376  PHE377  LEU380  LYS471  GLY472 
 MET473  HIS475  LEU476  LEU477  ASN478  MET479  VAL484  VAL487 

> <Gold.Protein.RotatedAtoms>
   36.8811   34.5436   40.9331 H   0  0  0  0  0  0  0  0  0  0  0  0  # atno 496  bound_to 491 

> <Gold.Score>
     Score     S(PLP)   S(hbond)     S(cho)   S(metal)  DE(clash)   DE(tors)     intcor
     66.44     -58.32       2.85       0.00       0.00       0.00       0.33       0.23

> <Gold.PLP.Fitness>
66.4399

> <Gold.PLP.PLP>
-58.3239

> <Gold.PLP.part.hbond>
-3.1763

> <Gold.PLP.part.metal>
0.0000

> <Gold.PLP.part.buried>
-5.0869

> <Gold.PLP.part.nonpolar>
-51.3761

> <Gold.PLP.part.repulsive>
0.0969

> <Gold.PLP.ligand.clash>
0.0000

> <Gold.PLP.ligand.torsion>
0.3309

> <Gold.PLP.Chemscore.Hbond>
2.8480

> <Gold.PLP.Chemscore.CHOScore>
0.0000

> <Gold.PLP.Chemscore.Metal>
0.0000

> <Gold.Chemscore.Hbonds>
donor molecule, donor type, donor heavy atom, donor atom, acceptor molecule, acceptor atom, score
      L1  H     1    36       P1  1131  0.86
      L1  H     1    37       P1   582  0.99
      P1  H  1258  1270       L1     1  0.99

> <Gold.PLP.Chemscore.Internal.Correction>
0.2338

