#       Name:                EN300-43349_i004
#       Creating user name   aseyller
#       Creation time:       Fri Apr 21 14:35:37 2023


#       File generated by GOLD software.
#

@<TRIPOS>MOLECULE
EN300-43349_i004|amine_1|mol2|734|dock4
    38    39     1
SMALL
USER_CHARGES


@<TRIPOS>ATOM
      1 N1          24.6949  36.0908  41.7901 N.3            1 <1>                0.0000
      2 C2          25.4968  37.2173  41.2939 C.3            1 <1>                0.0000
      3 C3          26.7960  36.7002  40.7322 C.ar           1 <1>                0.0000
      4 C4          26.8296  36.1012  39.4795 C.ar           1 <1>                0.0000
      5 C5          28.0425  35.6405  39.0006 C.ar           1 <1>                0.0000
      6 C6          29.1814  35.7918  39.7853 C.ar           1 <1>                0.0000
      7 N7          29.1081  36.3684  40.9750 N.ar           1 <1>                0.0000
      8 C8          27.9656  36.8223  41.4548 C.ar           1 <1>                0.0000
      9 N9          30.4070  35.3335  39.3164 N.3            1 <1>                0.0000
     10 C10         30.2487  34.0794  38.5689 C.3            1 <1>                0.0000
     11 C11         31.6271  33.5299  38.1944 C.3            1 <1>                0.0000
     12 C12         32.3690  34.5635  37.3425 C.3            1 <1>                0.0000
     13 C13         32.4778  35.8750  38.1253 C.3            1 <1>                0.0000
     14 C14         31.0749  36.3566  38.5017 C.3            1 <1>                0.0000
     15 C15         30.2626  36.6052  37.2292 C.3            1 <1>                0.0000
     16 C16         30.8703  37.7782  36.4574 C.3            1 <1>                0.0000
     17 O17         30.3934  39.0081  37.0070 O.3            1 <1>                0.0000
     18 H18         24.9451  37.7394  40.5121 H              1 <1>                0.0000
     19 H19         25.7035  37.9050  42.1139 H              1 <1>                0.0000
     20 H20         25.9288  35.9972  38.8930 H              1 <1>                0.0000
     21 H21         28.1046  35.1693  38.0308 H              1 <1>                0.0000
     22 H22         27.9438  37.2870  42.4294 H              1 <1>                0.0000
     23 H23         29.7235  33.3517  39.1874 H              1 <1>                0.0000
     24 H24         29.6740  34.2673  37.6620 H              1 <1>                0.0000
     25 H25         32.1974  33.3289  39.1013 H              1 <1>                0.0000
     26 H26         31.5089  32.6073  37.6261 H              1 <1>                0.0000
     27 H27         33.3678  34.1943  37.1097 H              1 <1>                0.0000
     28 H28         31.8187  34.7359  36.4176 H              1 <1>                0.0000
     29 H29         33.0615  35.7108  39.0311 H              1 <1>                0.0000
     30 H30         32.9674  36.6279  37.5076 H              1 <1>                0.0000
     31 H31         31.1495  37.2828  39.0715 H              1 <1>                0.0000
     32 H32         30.2814  35.7113  36.6057 H              1 <1>                0.0000
     33 H33         29.2323  36.8405  37.4960 H              1 <1>                0.0000
     34 H34         31.9569  37.7418  36.5372 H              1 <1>                0.0000
     35 H35         30.5806  37.7123  35.4088 H              1 <1>                0.0000
     36 H36         24.1231  35.7026  41.0550 H              1 <1>                0.0000
     37 H37         25.2831  35.3825  42.2029 H              1 <1>                0.0000
     38 H38         30.5256  39.7737  36.4313 H              1 <1>                0.0000
@<TRIPOS>BOND
    1    1    2 1     
    2    1   36 1     
    3    1   37 1     
    4    2    3 1     
    5    2   18 1     
    6    2   19 1     
    7    3    4 ar    
    8    3    8 ar    
    9    4    5 ar    
   10    4   20 1     
   11    5    6 ar    
   12    5   21 1     
   13    6    7 ar    
   14    6    9 1     
   15    7    8 ar    
   16    8   22 1     
   17    9   10 1     
   18    9   14 1     
   19   10   11 1     
   20   10   23 1     
   21   10   24 1     
   22   11   12 1     
   23   11   25 1     
   24   11   26 1     
   25   12   13 1     
   26   12   27 1     
   27   12   28 1     
   28   13   14 1     
   29   13   29 1     
   30   13   30 1     
   31   14   15 1     
   32   14   31 1     
   33   15   16 1     
   34   15   32 1     
   35   15   33 1     
   36   16   17 1     
   37   16   34 1     
   38   16   35 1     
   39   17   38 1     
@<TRIPOS>SUBSTRUCTURE
      1 ****           1
@<TRIPOS>SET
DONOR_HYDROGENS      STATIC     ATOMS    <user>   **** ""
3 36 37 38
ATOM$RED        STATIC     ATOMS    COLORGROUP SYSTEM
3 36 37 38
@<TRIPOS>COMMENT
> <Gold.Version>
2022.2.0

> <Gold.Id.Protein>
1qkm|1qkm_protein|mol2

> <Gold.Protein.RotatedTorsions>
[  496  491  490  487 ] final   82.94 input  -89.99 | X-H torsion

> <Gold.Protein.ActiveResidues>
 MET295  LEU298  THR299  LEU301  ALA302  GLU305  TRP335  MET336  LEU339  MET340 
 GLY342  LEU343  ARG346  PHE356  ILE373  ILE376  PHE377  LEU380  LYS471  GLY472 
 MET473  HIS475  LEU476  LEU477  ASN478  MET479  VAL484  VAL487 

> <Gold.Protein.RotatedAtoms>
   36.7550   33.0743   42.1047 H   0  0  0  0  0  0  0  0  0  0  0  0  # atno 496  bound_to 491 

> <Gold.Score>
     Score     S(PLP)   S(hbond)     S(cho)   S(metal)  DE(clash)   DE(tors)     intcor
     62.89     -56.73       2.89       0.00       0.00       0.49       1.06       0.10

> <Gold.PLP.Fitness>
62.8942

> <Gold.PLP.PLP>
-56.7310

> <Gold.PLP.part.hbond>
-3.0858

> <Gold.PLP.part.metal>
0.0000

> <Gold.PLP.part.buried>
-6.0800

> <Gold.PLP.part.nonpolar>
-48.0240

> <Gold.PLP.part.repulsive>
0.3786

> <Gold.PLP.ligand.clash>
0.4866

> <Gold.PLP.ligand.torsion>
1.0556

> <Gold.PLP.Chemscore.Hbond>
2.8873

> <Gold.PLP.Chemscore.CHOScore>
0.0000

> <Gold.PLP.Chemscore.Metal>
0.0000

> <Gold.Chemscore.Hbonds>
donor molecule, donor type, donor heavy atom, donor atom, acceptor molecule, acceptor atom, score
      L1  H     1    36       P1  1131  0.98
      L1  H     1    37       P1   582  0.99
      P1  H  1258  1270       L1     1  0.91

> <Gold.PLP.Chemscore.Internal.Correction>
0.0991

