#       Name:                EN300-43349_i004
#       Creating user name   aseyller
#       Creation time:       Fri Apr 21 14:35:56 2023


#       File generated by GOLD software.
#

@<TRIPOS>MOLECULE
EN300-43349_i004|amine_1|mol2|734|dock18
    38    39     1
SMALL
USER_CHARGES


@<TRIPOS>ATOM
      1 N1          33.2674  36.7885  34.0008 N.3            1 <1>                0.0000
      2 C2          33.6986  36.3688  35.3410 C.3            1 <1>                0.0000
      3 C3          32.4922  36.2102  36.2300 C.ar           1 <1>                0.0000
      4 C4          32.5510  35.3959  37.3536 C.ar           1 <1>                0.0000
      5 C5          31.4218  35.2782  38.1433 C.ar           1 <1>                0.0000
      6 C6          30.2715  35.9755  37.7874 C.ar           1 <1>                0.0000
      7 N7          30.2552  36.7419  36.7079 N.ar           1 <1>                0.0000
      8 C8          31.3194  36.8774  35.9393 C.ar           1 <1>                0.0000
      9 N9          29.1294  35.8663  38.5720 N.3            1 <1>                0.0000
     10 C10         29.4267  36.1656  39.9786 C.3            1 <1>                0.0000
     11 C11         28.1856  35.8951  40.8323 C.3            1 <1>                0.0000
     12 C12         27.0311  36.7709  40.3376 C.3            1 <1>                0.0000
     13 C13         26.7737  36.4744  38.8577 C.3            1 <1>                0.0000
     14 C14         28.0556  36.7281  38.0612 C.3            1 <1>                0.0000
     15 C15         28.4655  38.1947  38.2086 C.3            1 <1>                0.0000
     16 C16         27.9707  38.9867  36.9966 C.3            1 <1>                0.0000
     17 O17         29.0641  39.6992  36.4144 O.3            1 <1>                0.0000
     18 H18         34.2264  35.4176  35.2716 H              1 <1>                0.0000
     19 H19         34.3633  37.1233  35.7616 H              1 <1>                0.0000
     20 H20         33.4581  34.8663  37.6047 H              1 <1>                0.0000
     21 H21         31.4325  34.6531  39.0239 H              1 <1>                0.0000
     22 H22         31.2692  37.5112  35.0663 H              1 <1>                0.0000
     23 H23         30.2465  35.5331  40.3191 H              1 <1>                0.0000
     24 H24         29.7122  37.2131  40.0745 H              1 <1>                0.0000
     25 H25         27.9076  34.8445  40.7477 H              1 <1>                0.0000
     26 H26         28.4017  36.1321  41.8740 H              1 <1>                0.0000
     27 H27         26.1332  36.5500  40.9149 H              1 <1>                0.0000
     28 H28         27.2935  37.8219  40.4583 H              1 <1>                0.0000
     29 H29         26.4735  35.4329  38.7420 H              1 <1>                0.0000
     30 H30         25.9812  37.1254  38.4886 H              1 <1>                0.0000
     31 H31         27.8798  36.5042  37.0090 H              1 <1>                0.0000
     32 H32         28.0240  38.6060  39.1163 H              1 <1>                0.0000
     33 H33         29.5517  38.2641  38.2692 H              1 <1>                0.0000
     34 H34         27.5513  38.3005  36.2607 H              1 <1>                0.0000
     35 H35         27.2037  39.6935  37.3129 H              1 <1>                0.0000
     36 H36         33.9595  37.3814  33.5676 H              1 <1>                0.0000
     37 H37         33.0616  35.9892  33.4204 H              1 <1>                0.0000
     38 H38         28.9846  39.8300  35.4597 H              1 <1>                0.0000
@<TRIPOS>BOND
    1    1    2 1     
    2    1   36 1     
    3    1   37 1     
    4    2    3 1     
    5    2   18 1     
    6    2   19 1     
    7    3    4 ar    
    8    3    8 ar    
    9    4    5 ar    
   10    4   20 1     
   11    5    6 ar    
   12    5   21 1     
   13    6    7 ar    
   14    6    9 1     
   15    7    8 ar    
   16    8   22 1     
   17    9   10 1     
   18    9   14 1     
   19   10   11 1     
   20   10   23 1     
   21   10   24 1     
   22   11   12 1     
   23   11   25 1     
   24   11   26 1     
   25   12   13 1     
   26   12   27 1     
   27   12   28 1     
   28   13   14 1     
   29   13   29 1     
   30   13   30 1     
   31   14   15 1     
   32   14   31 1     
   33   15   16 1     
   34   15   32 1     
   35   15   33 1     
   36   16   17 1     
   37   16   34 1     
   38   16   35 1     
   39   17   38 1     
@<TRIPOS>SUBSTRUCTURE
      1 ****           1
@<TRIPOS>SET
DONOR_HYDROGENS      STATIC     ATOMS    <user>   **** ""
3 36 37 38
ATOM$RED        STATIC     ATOMS    COLORGROUP SYSTEM
3 36 37 38
@<TRIPOS>COMMENT
> <Gold.Version>
2022.2.0

> <Gold.Id.Protein>
1qkm|1qkm_protein|mol2

> <Gold.Protein.RotatedTorsions>
[  496  491  490  487 ] final -159.55 input  -89.99 | X-H torsion

> <Gold.Protein.ActiveResidues>
 MET295  LEU298  THR299  LEU301  ALA302  GLU305  TRP335  MET336  LEU339  MET340 
 GLY342  LEU343  ARG346  PHE356  ILE373  ILE376  PHE377  LEU380  LYS471  GLY472 
 MET473  HIS475  LEU476  LEU477  ASN478  MET479  VAL484  VAL487 

> <Gold.Protein.RotatedAtoms>
   37.2735   33.7704   40.7454 H   0  0  0  0  0  0  0  0  0  0  0  0  # atno 496  bound_to 491 

> <Gold.Score>
     Score     S(PLP)   S(hbond)     S(cho)   S(metal)  DE(clash)   DE(tors)     intcor
     55.17     -51.73       1.98       0.00       0.00       0.01       1.26       0.06

> <Gold.PLP.Fitness>
55.1739

> <Gold.PLP.PLP>
-51.7252

> <Gold.PLP.part.hbond>
-2.4072

> <Gold.PLP.part.metal>
0.0000

> <Gold.PLP.part.buried>
-5.5610

> <Gold.PLP.part.nonpolar>
-44.2346

> <Gold.PLP.part.repulsive>
0.0249

> <Gold.PLP.ligand.clash>
0.0128

> <Gold.PLP.ligand.torsion>
1.2641

> <Gold.PLP.Chemscore.Hbond>
1.9760

> <Gold.PLP.Chemscore.CHOScore>
0.0000

> <Gold.PLP.Chemscore.Metal>
0.0000

> <Gold.Chemscore.Hbonds>
donor molecule, donor type, donor heavy atom, donor atom, acceptor molecule, acceptor atom, score
      L1  H     1    36       P1  3229  1.00
      L1  H     1    37       P1  3187  0.98

> <Gold.PLP.Chemscore.Internal.Correction>
0.0617

