#       Name:                EN300-43349_i004
#       Creating user name   aseyller
#       Creation time:       Fri Apr 21 14:35:52 2023


#       File generated by GOLD software.
#

@<TRIPOS>MOLECULE
EN300-43349_i004|amine_1|mol2|734|dock15
    38    39     1
SMALL
USER_CHARGES


@<TRIPOS>ATOM
      1 N1          24.8824  36.7795  41.4384 N.3            1 <1>                0.0000
      2 C2          26.0997  35.9626  41.3443 C.3            1 <1>                0.0000
      3 C3          26.9381  36.4418  40.1874 C.ar           1 <1>                0.0000
      4 C4          26.3642  36.6337  38.9373 C.ar           1 <1>                0.0000
      5 C5          27.1685  37.0749  37.9025 C.ar           1 <1>                0.0000
      6 C6          28.5178  37.3102  38.1473 C.ar           1 <1>                0.0000
      7 N7          29.0277  37.1150  39.3535 N.ar           1 <1>                0.0000
      8 C8          28.2828  36.7001  40.3608 C.ar           1 <1>                0.0000
      9 N9          29.3379  37.7539  37.1164 N.3            1 <1>                0.0000
     10 C10         30.0030  39.0123  37.4776 C.3            1 <1>                0.0000
     11 C11         30.7797  39.5447  36.2712 C.3            1 <1>                0.0000
     12 C12         31.8159  38.5041  35.8377 C.3            1 <1>                0.0000
     13 C13         31.1020  37.1889  35.5136 C.3            1 <1>                0.0000
     14 C14         30.3161  36.7247  36.7419 C.3            1 <1>                0.0000
     15 C15         31.2809  36.4908  37.9061 C.3            1 <1>                0.0000
     16 C16         32.2048  35.3171  37.5748 C.3            1 <1>                0.0000
     17 O17         33.4184  35.8122  37.0053 O.3            1 <1>                0.0000
     18 H18         26.6704  36.0530  42.2686 H              1 <1>                0.0000
     19 H19         25.8259  34.9193  41.1870 H              1 <1>                0.0000
     20 H20         25.3134  36.4424  38.7769 H              1 <1>                0.0000
     21 H21         26.7551  37.2342  36.9175 H              1 <1>                0.0000
     22 H22         28.7332  36.5516  41.3311 H              1 <1>                0.0000
     23 H23         29.2547  39.7449  37.7799 H              1 <1>                0.0000
     24 H24         30.6918  38.8349  38.3035 H              1 <1>                0.0000
     25 H25         30.0895  39.7354  35.4494 H              1 <1>                0.0000
     26 H26         31.2860  40.4707  36.5442 H              1 <1>                0.0000
     27 H27         32.3419  38.8609  34.9521 H              1 <1>                0.0000
     28 H28         32.5293  38.3419  36.6456 H              1 <1>                0.0000
     29 H29         30.4169  37.3424  34.6798 H              1 <1>                0.0000
     30 H30         31.8386  36.4315  35.2454 H              1 <1>                0.0000
     31 H31         29.7951  35.7957  36.5100 H              1 <1>                0.0000
     32 H32         31.8777  37.3882  38.0693 H              1 <1>                0.0000
     33 H33         30.7132  36.2629  38.8083 H              1 <1>                0.0000
     34 H34         32.4305  34.7637  38.4864 H              1 <1>                0.0000
     35 H35         31.7117  34.6567  36.8615 H              1 <1>                0.0000
     36 H36         25.0864  37.7530  41.2692 H              1 <1>                0.0000
     37 H37         24.1718  36.4436  40.8057 H              1 <1>                0.0000
     38 H38         33.3529  36.7140  36.6627 H              1 <1>                0.0000
@<TRIPOS>BOND
    1    1    2 1     
    2    1   36 1     
    3    1   37 1     
    4    2    3 1     
    5    2   18 1     
    6    2   19 1     
    7    3    4 ar    
    8    3    8 ar    
    9    4    5 ar    
   10    4   20 1     
   11    5    6 ar    
   12    5   21 1     
   13    6    7 ar    
   14    6    9 1     
   15    7    8 ar    
   16    8   22 1     
   17    9   10 1     
   18    9   14 1     
   19   10   11 1     
   20   10   23 1     
   21   10   24 1     
   22   11   12 1     
   23   11   25 1     
   24   11   26 1     
   25   12   13 1     
   26   12   27 1     
   27   12   28 1     
   28   13   14 1     
   29   13   29 1     
   30   13   30 1     
   31   14   15 1     
   32   14   31 1     
   33   15   16 1     
   34   15   32 1     
   35   15   33 1     
   36   16   17 1     
   37   16   34 1     
   38   16   35 1     
   39   17   38 1     
@<TRIPOS>SUBSTRUCTURE
      1 ****           1
@<TRIPOS>SET
DONOR_HYDROGENS      STATIC     ATOMS    <user>   **** ""
3 36 37 38
ATOM$RED        STATIC     ATOMS    COLORGROUP SYSTEM
3 36 37 38
@<TRIPOS>COMMENT
> <Gold.Version>
2022.2.0

> <Gold.Id.Protein>
1qkm|1qkm_protein|mol2

> <Gold.Protein.RotatedTorsions>
[  496  491  490  487 ] final -174.16 input  -89.99 | X-H torsion

> <Gold.Protein.ActiveResidues>
 MET295  LEU298  THR299  LEU301  ALA302  GLU305  TRP335  MET336  LEU339  MET340 
 GLY342  LEU343  ARG346  PHE356  ILE373  ILE376  PHE377  LEU380  LYS471  GLY472 
 MET473  HIS475  LEU476  LEU477  ASN478  MET479  VAL484  VAL487 

> <Gold.Protein.RotatedAtoms>
   37.3119   33.5466   40.8229 H   0  0  0  0  0  0  0  0  0  0  0  0  # atno 496  bound_to 491 

> <Gold.Score>
     Score     S(PLP)   S(hbond)     S(cho)   S(metal)  DE(clash)   DE(tors)     intcor
     53.60     -50.47       1.31       0.00       0.00       0.01       0.43       0.06

> <Gold.PLP.Fitness>
53.6046

> <Gold.PLP.PLP>
-50.4739

> <Gold.PLP.part.hbond>
-2.0000

> <Gold.PLP.part.metal>
0.0000

> <Gold.PLP.part.buried>
-2.6602

> <Gold.PLP.part.nonpolar>
-46.7332

> <Gold.PLP.part.repulsive>
0.0307

> <Gold.PLP.ligand.clash>
0.0061

> <Gold.PLP.ligand.torsion>
0.4261

> <Gold.PLP.Chemscore.Hbond>
1.3091

> <Gold.PLP.Chemscore.CHOScore>
0.0000

> <Gold.PLP.Chemscore.Metal>
0.0000

> <Gold.Chemscore.Hbonds>
donor molecule, donor type, donor heavy atom, donor atom, acceptor molecule, acceptor atom, score
      L1  H     1    37       P1  1131  1.00
      P1  H  1258  1270       L1     1  0.31

> <Gold.PLP.Chemscore.Internal.Correction>
0.0617

