#       Name:                EN300-43349_i004
#       Creating user name   aseyller
#       Creation time:       Fri Apr 21 14:35:34 2023


#       File generated by GOLD software.
#

@<TRIPOS>MOLECULE
EN300-43349_i004|amine_1|mol2|734|dock2
    38    39     1
SMALL
USER_CHARGES


@<TRIPOS>ATOM
      1 N1          25.4985  36.8688  42.3927 N.3            1 <1>                0.0000
      2 C2          25.5911  37.0371  40.9363 C.3            1 <1>                0.0000
      3 C3          26.9768  36.6660  40.4748 C.ar           1 <1>                0.0000
      4 C4          28.0457  36.7075  41.3606 C.ar           1 <1>                0.0000
      5 C5          29.3011  36.3586  40.8969 C.ar           1 <1>                0.0000
      6 C6          29.4499  35.9802  39.5663 C.ar           1 <1>                0.0000
      7 N7          28.4057  35.9536  38.7526 N.ar           1 <1>                0.0000
      8 C8          27.1955  36.2758  39.1690 C.ar           1 <1>                0.0000
      9 N9          30.7058  35.6271  39.0868 N.3            1 <1>                0.0000
     10 C10         30.6860  34.2806  38.5011 C.3            1 <1>                0.0000
     11 C11         32.1091  33.8688  38.1174 C.3            1 <1>                0.0000
     12 C12         32.6726  34.8755  37.1106 C.3            1 <1>                0.0000
     13 C13         32.6372  36.2765  37.7273 C.3            1 <1>                0.0000
     14 C14         31.1988  36.6185  38.1222 C.3            1 <1>                0.0000
     15 C15         30.3107  36.6031  36.8765 C.3            1 <1>                0.0000
     16 C16         30.7277  37.7381  35.9389 C.3            1 <1>                0.0000
     17 O17         31.6146  37.2296  34.9404 O.3            1 <1>                0.0000
     18 H18         24.8606  36.3916  40.4487 H              1 <1>                0.0000
     19 H19         25.3879  38.0762  40.6771 H              1 <1>                0.0000
     20 H20         27.8999  37.0057  42.3882 H              1 <1>                0.0000
     21 H21         30.1544  36.3802  41.5584 H              1 <1>                0.0000
     22 H22         26.3672  36.2426  38.4769 H              1 <1>                0.0000
     23 H23         30.2872  33.5738  39.2287 H              1 <1>                0.0000
     24 H24         30.0557  34.2807  37.6118 H              1 <1>                0.0000
     25 H25         32.7368  33.8552  39.0085 H              1 <1>                0.0000
     26 H26         32.0921  32.8757  37.6684 H              1 <1>                0.0000
     27 H27         33.7016  34.6104  36.8675 H              1 <1>                0.0000
     28 H28         32.0679  34.8612  36.2039 H              1 <1>                0.0000
     29 H29         33.2732  36.3008  38.6123 H              1 <1>                0.0000
     30 H30         32.9974  37.0037  36.9995 H              1 <1>                0.0000
     31 H31         31.1723  37.6098  38.5747 H              1 <1>                0.0000
     32 H32         30.4218  35.6482  36.3628 H              1 <1>                0.0000
     33 H33         29.2699  36.7387  37.1706 H              1 <1>                0.0000
     34 H34         29.8429  38.1571  35.4596 H              1 <1>                0.0000
     35 H35         31.2331  38.5155  36.5119 H              1 <1>                0.0000
     36 H36         24.5377  36.8979  42.6996 H              1 <1>                0.0000
     37 H37         25.9464  36.0139  42.6871 H              1 <1>                0.0000
     38 H38         31.4401  36.3122  34.6897 H              1 <1>                0.0000
@<TRIPOS>BOND
    1    1    2 1     
    2    1   36 1     
    3    1   37 1     
    4    2    3 1     
    5    2   18 1     
    6    2   19 1     
    7    3    4 ar    
    8    3    8 ar    
    9    4    5 ar    
   10    4   20 1     
   11    5    6 ar    
   12    5   21 1     
   13    6    7 ar    
   14    6    9 1     
   15    7    8 ar    
   16    8   22 1     
   17    9   10 1     
   18    9   14 1     
   19   10   11 1     
   20   10   23 1     
   21   10   24 1     
   22   11   12 1     
   23   11   25 1     
   24   11   26 1     
   25   12   13 1     
   26   12   27 1     
   27   12   28 1     
   28   13   14 1     
   29   13   29 1     
   30   13   30 1     
   31   14   15 1     
   32   14   31 1     
   33   15   16 1     
   34   15   32 1     
   35   15   33 1     
   36   16   17 1     
   37   16   34 1     
   38   16   35 1     
   39   17   38 1     
@<TRIPOS>SUBSTRUCTURE
      1 ****           1
@<TRIPOS>SET
DONOR_HYDROGENS      STATIC     ATOMS    <user>   **** ""
3 36 37 38
ATOM$RED        STATIC     ATOMS    COLORGROUP SYSTEM
3 36 37 38
@<TRIPOS>COMMENT
> <Gold.Version>
2022.2.0

> <Gold.Id.Protein>
1qkm|1qkm_protein|mol2

> <Gold.Protein.RotatedTorsions>
[  496  491  490  487 ] final   70.41 input  -89.99 | X-H torsion

> <Gold.Protein.ActiveResidues>
 MET295  LEU298  THR299  LEU301  ALA302  GLU305  TRP335  MET336  LEU339  MET340 
 GLY342  LEU343  ARG346  PHE356  ILE373  ILE376  PHE377  LEU380  LYS471  GLY472 
 MET473  HIS475  LEU476  LEU477  ASN478  MET479  VAL484  VAL487 

> <Gold.Protein.RotatedAtoms>
   36.6411   33.1952   42.2263 H   0  0  0  0  0  0  0  0  0  0  0  0  # atno 496  bound_to 491 

> <Gold.Score>
     Score     S(PLP)   S(hbond)     S(cho)   S(metal)  DE(clash)   DE(tors)     intcor
     59.22     -57.40       1.00       0.00       0.00       0.00       0.68       0.17

> <Gold.PLP.Fitness>
59.2167

> <Gold.PLP.PLP>
-57.4008

> <Gold.PLP.part.hbond>
-2.0000

> <Gold.PLP.part.metal>
0.0000

> <Gold.PLP.part.buried>
-5.1049

> <Gold.PLP.part.nonpolar>
-50.7633

> <Gold.PLP.part.repulsive>
0.0999

> <Gold.PLP.ligand.clash>
0.0000

> <Gold.PLP.ligand.torsion>
0.6777

> <Gold.PLP.Chemscore.Hbond>
1.0000

> <Gold.PLP.Chemscore.CHOScore>
0.0000

> <Gold.PLP.Chemscore.Metal>
0.0000

> <Gold.Chemscore.Hbonds>
donor molecule, donor type, donor heavy atom, donor atom, acceptor molecule, acceptor atom, score
      L1  H     1    37       P1   582  1.00

> <Gold.PLP.Chemscore.Internal.Correction>
0.1713

