#       Name:                EN300-43349_i004
#       Creating user name   aseyller
#       Creation time:       Fri Apr 21 14:35:59 2023


#       File generated by GOLD software.
#

@<TRIPOS>MOLECULE
EN300-43349_i004|amine_1|mol2|734|dock20
    38    39     1
SMALL
USER_CHARGES


@<TRIPOS>ATOM
      1 N1          33.0803  38.1983  34.6004 N.3            1 <1>                0.0000
      2 C2          31.6676  38.4972  34.3304 C.3            1 <1>                0.0000
      3 C3          30.8524  38.2326  35.5699 C.ar           1 <1>                0.0000
      4 C4          30.5108  39.2759  36.4208 C.ar           1 <1>                0.0000
      5 C5          29.7613  38.9904  37.5474 C.ar           1 <1>                0.0000
      6 C6          29.3770  37.6752  37.7890 C.ar           1 <1>                0.0000
      7 N7          29.7230  36.7079  36.9537 N.ar           1 <1>                0.0000
      8 C8          30.4327  36.9520  35.8682 C.ar           1 <1>                0.0000
      9 N9          28.6235  37.3739  38.9175 N.3            1 <1>                0.0000
     10 C10         27.3974  36.6519  38.5542 C.3            1 <1>                0.0000
     11 C11         26.5259  36.4658  39.7984 C.3            1 <1>                0.0000
     12 C12         27.3105  35.6793  40.8522 C.3            1 <1>                0.0000
     13 C13         28.6057  36.4285  41.1772 C.3            1 <1>                0.0000
     14 C14         29.4169  36.6156  39.8932 C.3            1 <1>                0.0000
     15 C15         29.7700  35.2463  39.3091 C.3            1 <1>                0.0000
     16 C16         31.2566  35.2136  38.9485 C.3            1 <1>                0.0000
     17 O17         31.5169  34.0917  38.1025 O.3            1 <1>                0.0000
     18 H18         31.5657  39.5442  34.0451 H              1 <1>                0.0000
     19 H19         31.3108  37.8631  33.5187 H              1 <1>                0.0000
     20 H20         30.8238  40.2873  36.2075 H              1 <1>                0.0000
     21 H21         29.4785  39.7775  38.2306 H              1 <1>                0.0000
     22 H22         30.6966  36.1378  35.2096 H              1 <1>                0.0000
     23 H23         26.8469  37.2239  37.8074 H              1 <1>                0.0000
     24 H24         27.6585  35.6762  38.1444 H              1 <1>                0.0000
     25 H25         26.2531  37.4414  40.2008 H              1 <1>                0.0000
     26 H26         25.6232  35.9163  39.5315 H              1 <1>                0.0000
     27 H27         26.7093  35.5819  41.7562 H              1 <1>                0.0000
     28 H28         27.5498  34.6892  40.4644 H              1 <1>                0.0000
     29 H29         28.3656  37.4035  41.6014 H              1 <1>                0.0000
     30 H30         29.1890  35.8522  41.8954 H              1 <1>                0.0000
     31 H31         30.3332  37.1613  40.1187 H              1 <1>                0.0000
     32 H32         29.5576  34.4713  40.0456 H              1 <1>                0.0000
     33 H33         29.1748  35.0690  38.4132 H              1 <1>                0.0000
     34 H34         31.5240  36.1323  38.4262 H              1 <1>                0.0000
     35 H35         31.8495  35.1275  39.8590 H              1 <1>                0.0000
     36 H36         33.6466  38.3583  33.7808 H              1 <1>                0.0000
     37 H37         33.4198  38.7345  35.3848 H              1 <1>                0.0000
     38 H38         30.7201  33.6595  37.7659 H              1 <1>                0.0000
@<TRIPOS>BOND
    1    1    2 1     
    2    1   36 1     
    3    1   37 1     
    4    2    3 1     
    5    2   18 1     
    6    2   19 1     
    7    3    4 ar    
    8    3    8 ar    
    9    4    5 ar    
   10    4   20 1     
   11    5    6 ar    
   12    5   21 1     
   13    6    7 ar    
   14    6    9 1     
   15    7    8 ar    
   16    8   22 1     
   17    9   10 1     
   18    9   14 1     
   19   10   11 1     
   20   10   23 1     
   21   10   24 1     
   22   11   12 1     
   23   11   25 1     
   24   11   26 1     
   25   12   13 1     
   26   12   27 1     
   27   12   28 1     
   28   13   14 1     
   29   13   29 1     
   30   13   30 1     
   31   14   15 1     
   32   14   31 1     
   33   15   16 1     
   34   15   32 1     
   35   15   33 1     
   36   16   17 1     
   37   16   34 1     
   38   16   35 1     
   39   17   38 1     
@<TRIPOS>SUBSTRUCTURE
      1 ****           1
@<TRIPOS>SET
DONOR_HYDROGENS      STATIC     ATOMS    <user>   **** ""
3 36 37 38
ATOM$RED        STATIC     ATOMS    COLORGROUP SYSTEM
3 36 37 38
@<TRIPOS>COMMENT
> <Gold.Version>
2022.2.0

> <Gold.Id.Protein>
1qkm|1qkm_protein|mol2

> <Gold.Protein.RotatedTorsions>
[  496  491  490  487 ] final  147.36 input  -89.99 | X-H torsion

> <Gold.Protein.ActiveResidues>
 MET295  LEU298  THR299  LEU301  ALA302  GLU305  TRP335  MET336  LEU339  MET340 
 GLY342  LEU343  ARG346  PHE356  ILE373  ILE376  PHE377  LEU380  LYS471  GLY472 
 MET473  HIS475  LEU476  LEU477  ASN478  MET479  VAL484  VAL487 

> <Gold.Protein.RotatedAtoms>
   37.2513   33.0811   41.2303 H   0  0  0  0  0  0  0  0  0  0  0  0  # atno 496  bound_to 491 

> <Gold.Score>
     Score     S(PLP)   S(hbond)     S(cho)   S(metal)  DE(clash)   DE(tors)     intcor
     54.83     -54.24       0.96       0.00       0.00       0.00       1.18       0.06

> <Gold.PLP.Fitness>
54.8319

> <Gold.PLP.PLP>
-54.2445

> <Gold.PLP.part.hbond>
-1.0000

> <Gold.PLP.part.metal>
0.0000

> <Gold.PLP.part.buried>
-2.1036

> <Gold.PLP.part.nonpolar>
-50.3702

> <Gold.PLP.part.repulsive>
0.0000

> <Gold.PLP.ligand.clash>
0.0000

> <Gold.PLP.ligand.torsion>
1.1753

> <Gold.PLP.Chemscore.Hbond>
0.9588

> <Gold.PLP.Chemscore.CHOScore>
0.0000

> <Gold.PLP.Chemscore.Metal>
0.0000

> <Gold.Chemscore.Hbonds>
donor molecule, donor type, donor heavy atom, donor atom, acceptor molecule, acceptor atom, score
      L1  H     1    36       P1  3229  0.96

> <Gold.PLP.Chemscore.Internal.Correction>
0.0617

