#       Name:                EN300-43349_i004
#       Creating user name   aseyller
#       Creation time:       Fri Apr 21 14:35:55 2023


#       File generated by GOLD software.
#

@<TRIPOS>MOLECULE
EN300-43349_i004|amine_1|mol2|734|dock17
    38    39     1
SMALL
USER_CHARGES


@<TRIPOS>ATOM
      1 N1          33.2917  36.8145  34.0083 N.3            1 <1>                0.0000
      2 C2          32.4018  37.9757  34.1413 C.3            1 <1>                0.0000
      3 C3          31.5197  37.7967  35.3500 C.ar           1 <1>                0.0000
      4 C4          32.0678  37.8061  36.6260 C.ar           1 <1>                0.0000
      5 C5          31.2234  37.6390  37.7084 C.ar           1 <1>                0.0000
      6 C6          29.8610  37.4681  37.4837 C.ar           1 <1>                0.0000
      7 N7          29.3767  37.4648  36.2514 N.ar           1 <1>                0.0000
      8 C8          30.1580  37.6276  35.2004 C.ar           1 <1>                0.0000
      9 N9          29.0007  37.2992  38.5623 N.3            1 <1>                0.0000
     10 C10         27.6450  36.9658  38.1068 C.3            1 <1>                0.0000
     11 C11         26.6964  36.9307  39.3073 C.3            1 <1>                0.0000
     12 C12         27.1896  35.8847  40.3109 C.3            1 <1>                0.0000
     13 C13         28.6210  36.2283  40.7324 C.3            1 <1>                0.0000
     14 C14         29.5137  36.2836  39.4906 C.3            1 <1>                0.0000
     15 C15         29.5145  34.9174  38.8020 C.3            1 <1>                0.0000
     16 C16         30.8980  34.6471  38.2070 C.3            1 <1>                0.0000
     17 O17         31.7989  34.2676  39.2494 O.3            1 <1>                0.0000
     18 H18         32.9992  38.8799  34.2582 H              1 <1>                0.0000
     19 H19         31.7820  38.0625  33.2489 H              1 <1>                0.0000
     20 H20         33.1297  37.9405  36.7698 H              1 <1>                0.0000
     21 H21         31.6161  37.6407  38.7145 H              1 <1>                0.0000
     22 H22         29.7277  37.6192  34.2099 H              1 <1>                0.0000
     23 H23         27.3046  37.7197  37.3970 H              1 <1>                0.0000
     24 H24         27.6544  35.9893  37.6227 H              1 <1>                0.0000
     25 H25         26.6760  37.9109  39.7837 H              1 <1>                0.0000
     26 H26         25.6934  36.6680  38.9711 H              1 <1>                0.0000
     27 H27         26.5414  35.8868  41.1872 H              1 <1>                0.0000
     28 H28         27.1732  34.8986  39.8469 H              1 <1>                0.0000
     29 H29         28.6308  37.1974  41.2312 H              1 <1>                0.0000
     30 H30         28.9930  35.4635  41.4142 H              1 <1>                0.0000
     31 H31         30.5307  36.5421  39.7857 H              1 <1>                0.0000
     32 H32         29.2748  34.1430  39.5306 H              1 <1>                0.0000
     33 H33         28.7693  34.9111  38.0065 H              1 <1>                0.0000
     34 H34         30.8281  33.8415  37.4760 H              1 <1>                0.0000
     35 H35         31.2663  35.5495  37.7191 H              1 <1>                0.0000
     36 H36         32.8191  36.0469  33.5549 H              1 <1>                0.0000
     37 H37         34.1366  37.0611  33.5149 H              1 <1>                0.0000
     38 H38         31.5391  34.5799  40.1268 H              1 <1>                0.0000
@<TRIPOS>BOND
    1    1    2 1     
    2    1   36 1     
    3    1   37 1     
    4    2    3 1     
    5    2   18 1     
    6    2   19 1     
    7    3    4 ar    
    8    3    8 ar    
    9    4    5 ar    
   10    4   20 1     
   11    5    6 ar    
   12    5   21 1     
   13    6    7 ar    
   14    6    9 1     
   15    7    8 ar    
   16    8   22 1     
   17    9   10 1     
   18    9   14 1     
   19   10   11 1     
   20   10   23 1     
   21   10   24 1     
   22   11   12 1     
   23   11   25 1     
   24   11   26 1     
   25   12   13 1     
   26   12   27 1     
   27   12   28 1     
   28   13   14 1     
   29   13   29 1     
   30   13   30 1     
   31   14   15 1     
   32   14   31 1     
   33   15   16 1     
   34   15   32 1     
   35   15   33 1     
   36   16   17 1     
   37   16   34 1     
   38   16   35 1     
   39   17   38 1     
@<TRIPOS>SUBSTRUCTURE
      1 ****           1
@<TRIPOS>SET
DONOR_HYDROGENS      STATIC     ATOMS    <user>   **** ""
3 36 37 38
ATOM$RED        STATIC     ATOMS    COLORGROUP SYSTEM
3 36 37 38
@<TRIPOS>COMMENT
> <Gold.Version>
2022.2.0

> <Gold.Id.Protein>
1qkm|1qkm_protein|mol2

> <Gold.Protein.RotatedTorsions>
[  496  491  490  487 ] final   -2.08 input  -89.99 | X-H torsion

> <Gold.Protein.ActiveResidues>
 MET295  LEU298  THR299  LEU301  ALA302  GLU305  TRP335  MET336  LEU339  MET340 
 GLY342  LEU343  ARG346  PHE356  ILE373  ILE376  PHE377  LEU380  LYS471  GLY472 
 MET473  HIS475  LEU476  LEU477  ASN478  MET479  VAL484  VAL487 

> <Gold.Protein.RotatedAtoms>
   36.2589   34.2430   42.2184 H   0  0  0  0  0  0  0  0  0  0  0  0  # atno 496  bound_to 491 

> <Gold.Score>
     Score     S(PLP)   S(hbond)     S(cho)   S(metal)  DE(clash)   DE(tors)     intcor
     59.90     -52.53       2.94       0.00       0.00       0.00       0.76       0.06

> <Gold.PLP.Fitness>
59.8952

> <Gold.PLP.PLP>
-52.5332

> <Gold.PLP.part.hbond>
-3.3779

> <Gold.PLP.part.metal>
0.0000

> <Gold.PLP.part.buried>
-4.2866

> <Gold.PLP.part.nonpolar>
-45.5975

> <Gold.PLP.part.repulsive>
0.0000

> <Gold.PLP.ligand.clash>
0.0000

> <Gold.PLP.ligand.torsion>
0.7636

> <Gold.PLP.Chemscore.Hbond>
2.9425

> <Gold.PLP.Chemscore.CHOScore>
0.0000

> <Gold.PLP.Chemscore.Metal>
0.0000

> <Gold.Chemscore.Hbonds>
donor molecule, donor type, donor heavy atom, donor atom, acceptor molecule, acceptor atom, score
      L1  H     1    36       P1  3187  1.00
      L1  H     1    37       P1  3229  0.94
      L1  H    17    38       P1   470  1.00

> <Gold.PLP.Chemscore.Internal.Correction>
0.0617

