#       Name:                EN300-43349_i004
#       Creating user name   aseyller
#       Creation time:       Fri Apr 21 14:35:54 2023


#       File generated by GOLD software.
#

@<TRIPOS>MOLECULE
EN300-43349_i004|amine_1|mol2|734|dock16
    38    39     1
SMALL
USER_CHARGES


@<TRIPOS>ATOM
      1 N1          25.4924  36.9291  42.4108 N.3            1 <1>                0.0000
      2 C2          25.4355  35.9482  41.3186 C.3            1 <1>                0.0000
      3 C3          26.2475  36.4481  40.1518 C.ar           1 <1>                0.0000
      4 C4          25.8251  37.5542  39.4257 C.ar           1 <1>                0.0000
      5 C5          26.5997  37.9808  38.3624 C.ar           1 <1>                0.0000
      6 C6          27.7692  37.2914  38.0577 C.ar           1 <1>                0.0000
      7 N7          28.1380  36.2407  38.7739 N.ar           1 <1>                0.0000
      8 C8          27.4216  35.8149  39.7972 C.ar           1 <1>                0.0000
      9 N9          28.5573  37.7092  36.9917 N.3            1 <1>                0.0000
     10 C10         28.8852  39.1360  37.1072 C.3            1 <1>                0.0000
     11 C11         29.6270  39.5937  35.8493 C.3            1 <1>                0.0000
     12 C12         30.9064  38.7681  35.6883 C.3            1 <1>                0.0000
     13 C13         30.5408  37.2828  35.6190 C.3            1 <1>                0.0000
     14 C14         29.7726  36.8921  36.8836 C.3            1 <1>                0.0000
     15 C15         30.6562  37.1279  38.1101 C.3            1 <1>                0.0000
     16 C16         31.7137  36.0255  38.1964 C.3            1 <1>                0.0000
     17 O17         32.8382  36.3800  37.3889 O.3            1 <1>                0.0000
     18 H18         25.8415  34.9970  41.6630 H              1 <1>                0.0000
     19 H19         24.3998  35.8101  41.0080 H              1 <1>                0.0000
     20 H20         24.9121  38.0693  39.6855 H              1 <1>                0.0000
     21 H21         26.3006  38.8371  37.7762 H              1 <1>                0.0000
     22 H22         27.7534  34.9541  40.3588 H              1 <1>                0.0000
     23 H23         27.9665  39.7121  37.2169 H              1 <1>                0.0000
     24 H24         29.5189  39.2934  37.9800 H              1 <1>                0.0000
     25 H25         28.9886  39.4493  34.9776 H              1 <1>                0.0000
     26 H26         29.8840  40.6489  35.9420 H              1 <1>                0.0000
     27 H27         31.4158  39.0610  34.7703 H              1 <1>                0.0000
     28 H28         31.5622  38.9424  36.5413 H              1 <1>                0.0000
     29 H29         29.9168  37.1021  34.7437 H              1 <1>                0.0000
     30 H30         31.4507  36.6870  35.5473 H              1 <1>                0.0000
     31 H31         29.4983  35.8385  36.8309 H              1 <1>                0.0000
     32 H32         31.1477  38.0969  38.0230 H              1 <1>                0.0000
     33 H33         30.0408  37.1123  39.0097 H              1 <1>                0.0000
     34 H34         32.0327  35.9082  39.2321 H              1 <1>                0.0000
     35 H35         31.2904  35.0872  37.8380 H              1 <1>                0.0000
     36 H36         25.8756  36.5161  43.2479 H              1 <1>                0.0000
     37 H37         26.0184  37.7453  42.1367 H              1 <1>                0.0000
     38 H38         33.2350  37.2312  37.6190 H              1 <1>                0.0000
@<TRIPOS>BOND
    1    1    2 1     
    2    1   36 1     
    3    1   37 1     
    4    2    3 1     
    5    2   18 1     
    6    2   19 1     
    7    3    4 ar    
    8    3    8 ar    
    9    4    5 ar    
   10    4   20 1     
   11    5    6 ar    
   12    5   21 1     
   13    6    7 ar    
   14    6    9 1     
   15    7    8 ar    
   16    8   22 1     
   17    9   10 1     
   18    9   14 1     
   19   10   11 1     
   20   10   23 1     
   21   10   24 1     
   22   11   12 1     
   23   11   25 1     
   24   11   26 1     
   25   12   13 1     
   26   12   27 1     
   27   12   28 1     
   28   13   14 1     
   29   13   29 1     
   30   13   30 1     
   31   14   15 1     
   32   14   31 1     
   33   15   16 1     
   34   15   32 1     
   35   15   33 1     
   36   16   17 1     
   37   16   34 1     
   38   16   35 1     
   39   17   38 1     
@<TRIPOS>SUBSTRUCTURE
      1 ****           1
@<TRIPOS>SET
DONOR_HYDROGENS      STATIC     ATOMS    <user>   **** ""
3 36 37 38
ATOM$RED        STATIC     ATOMS    COLORGROUP SYSTEM
3 36 37 38
@<TRIPOS>COMMENT
> <Gold.Version>
2022.2.0

> <Gold.Id.Protein>
1qkm|1qkm_protein|mol2

> <Gold.Protein.RotatedTorsions>
[  496  491  490  487 ] final   84.05 input  -89.99 | X-H torsion

> <Gold.Protein.ActiveResidues>
 MET295  LEU298  THR299  LEU301  ALA302  GLU305  TRP335  MET336  LEU339  MET340 
 GLY342  LEU343  ARG346  PHE356  ILE373  ILE376  PHE377  LEU380  LYS471  GLY472 
 MET473  HIS475  LEU476  LEU477  ASN478  MET479  VAL484  VAL487 

> <Gold.Protein.RotatedAtoms>
   36.7652   33.0653   42.0926 H   0  0  0  0  0  0  0  0  0  0  0  0  # atno 496  bound_to 491 

> <Gold.Score>
     Score     S(PLP)   S(hbond)     S(cho)   S(metal)  DE(clash)   DE(tors)     intcor
     51.78     -49.97       0.84       0.00       0.00       0.00       0.38       0.06

> <Gold.PLP.Fitness>
51.7836

> <Gold.PLP.PLP>
-49.9678

> <Gold.PLP.part.hbond>
-2.0000

> <Gold.PLP.part.metal>
0.0000

> <Gold.PLP.part.buried>
-2.8841

> <Gold.PLP.part.nonpolar>
-46.2510

> <Gold.PLP.part.repulsive>
0.0000

> <Gold.PLP.ligand.clash>
0.0000

> <Gold.PLP.ligand.torsion>
0.3801

> <Gold.PLP.Chemscore.Hbond>
0.8381

> <Gold.PLP.Chemscore.CHOScore>
0.0000

> <Gold.PLP.Chemscore.Metal>
0.0000

> <Gold.Chemscore.Hbonds>
donor molecule, donor type, donor heavy atom, donor atom, acceptor molecule, acceptor atom, score
      L1  H     1    36       P1   582  0.62
      P1  H  1258  1270       L1     1  0.21

> <Gold.PLP.Chemscore.Internal.Correction>
0.0617

