#       Name:                EN300-43349_i004
#       Creating user name   aseyller
#       Creation time:       Fri Apr 21 14:35:46 2023


#       File generated by GOLD software.
#

@<TRIPOS>MOLECULE
EN300-43349_i004|amine_1|mol2|734|dock11
    38    39     1
SMALL
USER_CHARGES


@<TRIPOS>ATOM
      1 N1          26.3158  35.9699  41.6965 N.3            1 <1>                0.0000
      2 C2          27.5651  35.3758  41.2020 C.3            1 <1>                0.0000
      3 C3          28.0616  36.1639  40.0174 C.ar           1 <1>                0.0000
      4 C4          29.3142  36.7630  40.0486 C.ar           1 <1>                0.0000
      5 C5          29.7322  37.4769  38.9403 C.ar           1 <1>                0.0000
      6 C6          28.8886  37.5702  37.8379 C.ar           1 <1>                0.0000
      7 N7          27.7010  36.9849  37.8469 N.ar           1 <1>                0.0000
      8 C8          27.2785  36.2927  38.8880 C.ar           1 <1>                0.0000
      9 N9          29.2959  38.2845  36.7172 N.3            1 <1>                0.0000
     10 C10         30.0572  39.4796  37.1031 C.3            1 <1>                0.0000
     11 C11         30.3628  40.3152  35.8579 C.3            1 <1>                0.0000
     12 C12         31.1697  39.4707  34.8678 C.3            1 <1>                0.0000
     13 C13         30.3754  38.2088  34.5197 C.3            1 <1>                0.0000
     14 C14         30.0695  37.4342  35.8035 C.3            1 <1>                0.0000
     15 C15         31.3810  37.0241  36.4763 C.3            1 <1>                0.0000
     16 C16         32.0081  35.8613  35.7046 C.3            1 <1>                0.0000
     17 O17         32.7516  36.3713  34.5959 O.3            1 <1>                0.0000
     18 H18         28.3152  35.3967  41.9925 H              1 <1>                0.0000
     19 H19         27.3826  34.3441  40.9014 H              1 <1>                0.0000
     20 H20         29.9473  36.6736  40.9189 H              1 <1>                0.0000
     21 H21         30.7002  37.9558  38.9309 H              1 <1>                0.0000
     22 H22         26.3036  35.8289  38.8597 H              1 <1>                0.0000
     23 H23         29.4705  40.0734  37.8039 H              1 <1>                0.0000
     24 H24         30.9916  39.1778  37.5762 H              1 <1>                0.0000
     25 H25         29.4287  40.6289  35.3919 H              1 <1>                0.0000
     26 H26         30.9413  41.1942  36.1425 H              1 <1>                0.0000
     27 H27         31.3524  40.0478  33.9613 H              1 <1>                0.0000
     28 H28         32.1209  39.1894  35.3195 H              1 <1>                0.0000
     29 H29         29.4415  38.4894  34.0326 H              1 <1>                0.0000
     30 H30         30.9630  37.5827  33.8482 H              1 <1>                0.0000
     31 H31         29.4917  36.5424  35.5607 H              1 <1>                0.0000
     32 H32         32.0679  37.8704  36.4796 H              1 <1>                0.0000
     33 H33         31.1816  36.7140  37.5021 H              1 <1>                0.0000
     34 H34         32.6746  35.3051  36.3639 H              1 <1>                0.0000
     35 H35         31.2215  35.2001  35.3413 H              1 <1>                0.0000
     36 H36         26.0857  35.6167  42.6132 H              1 <1>                0.0000
     37 H37         26.3713  36.9774  41.7006 H              1 <1>                0.0000
     38 H38         32.5189  35.9692  33.7479 H              1 <1>                0.0000
@<TRIPOS>BOND
    1    1    2 1     
    2    1   36 1     
    3    1   37 1     
    4    2    3 1     
    5    2   18 1     
    6    2   19 1     
    7    3    4 ar    
    8    3    8 ar    
    9    4    5 ar    
   10    4   20 1     
   11    5    6 ar    
   12    5   21 1     
   13    6    7 ar    
   14    6    9 1     
   15    7    8 ar    
   16    8   22 1     
   17    9   10 1     
   18    9   14 1     
   19   10   11 1     
   20   10   23 1     
   21   10   24 1     
   22   11   12 1     
   23   11   25 1     
   24   11   26 1     
   25   12   13 1     
   26   12   27 1     
   27   12   28 1     
   28   13   14 1     
   29   13   29 1     
   30   13   30 1     
   31   14   15 1     
   32   14   31 1     
   33   15   16 1     
   34   15   32 1     
   35   15   33 1     
   36   16   17 1     
   37   16   34 1     
   38   16   35 1     
   39   17   38 1     
@<TRIPOS>SUBSTRUCTURE
      1 ****           1
@<TRIPOS>SET
DONOR_HYDROGENS      STATIC     ATOMS    <user>   **** ""
3 36 37 38
ATOM$RED        STATIC     ATOMS    COLORGROUP SYSTEM
3 36 37 38
@<TRIPOS>COMMENT
> <Gold.Version>
2022.2.0

> <Gold.Id.Protein>
1qkm|1qkm_protein|mol2

> <Gold.Protein.RotatedTorsions>
[  496  491  490  487 ] final   29.53 input  -89.99 | X-H torsion

> <Gold.Protein.ActiveResidues>
 MET295  LEU298  THR299  LEU301  ALA302  GLU305  TRP335  MET336  LEU339  MET340 
 GLY342  LEU343  ARG346  PHE356  ILE373  ILE376  PHE377  LEU380  LYS471  GLY472 
 MET473  HIS475  LEU476  LEU477  ASN478  MET479  VAL484  VAL487 

> <Gold.Protein.RotatedAtoms>
   36.3440   33.7627   42.3800 H   0  0  0  0  0  0  0  0  0  0  0  0  # atno 496  bound_to 491 

> <Gold.Score>
     Score     S(PLP)   S(hbond)     S(cho)   S(metal)  DE(clash)   DE(tors)     intcor
     54.48     -50.78       1.99       0.00       0.00       0.49       0.92       0.06

> <Gold.PLP.Fitness>
54.4761

> <Gold.PLP.PLP>
-50.7823

> <Gold.PLP.part.hbond>
-2.0000

> <Gold.PLP.part.metal>
0.0000

> <Gold.PLP.part.buried>
-4.4149

> <Gold.PLP.part.nonpolar>
-45.8018

> <Gold.PLP.part.repulsive>
0.0000

> <Gold.PLP.ligand.clash>
0.4942

> <Gold.PLP.ligand.torsion>
0.9237

> <Gold.PLP.Chemscore.Hbond>
1.9913

> <Gold.PLP.Chemscore.CHOScore>
0.0000

> <Gold.PLP.Chemscore.Metal>
0.0000

> <Gold.Chemscore.Hbonds>
donor molecule, donor type, donor heavy atom, donor atom, acceptor molecule, acceptor atom, score
      L1  H     1    36       P1   582  1.00
      L1  H    17    38       P1  3187  0.99

> <Gold.PLP.Chemscore.Internal.Correction>
0.0617

