#       Name:                EN300-43349_i004
#       Creating user name   aseyller
#       Creation time:       Fri Apr 21 14:35:35 2023


#       File generated by GOLD software.
#

@<TRIPOS>MOLECULE
EN300-43349_i004|amine_1|mol2|734|dock3
    38    39     1
SMALL
USER_CHARGES


@<TRIPOS>ATOM
      1 N1          26.8784  36.0995  41.9479 N.3            1 <1>                0.0000
      2 C2          27.8708  35.3397  41.1759 C.3            1 <1>                0.0000
      3 C3          28.2634  36.1254  39.9514 C.ar           1 <1>                0.0000
      4 C4          27.3160  36.4388  38.9854 C.ar           1 <1>                0.0000
      5 C5          27.7177  37.1618  37.8771 C.ar           1 <1>                0.0000
      6 C6          29.0497  37.5486  37.7678 C.ar           1 <1>                0.0000
      7 N7          29.9232  37.2300  38.7104 N.ar           1 <1>                0.0000
      8 C8          29.5670  36.5459  39.7813 C.ar           1 <1>                0.0000
      9 N9          29.4672  38.2757  36.6592 N.3            1 <1>                0.0000
     10 C10         30.1039  39.5352  37.0652 C.3            1 <1>                0.0000
     11 C11         30.4182  40.3728  35.8236 C.3            1 <1>                0.0000
     12 C12         31.3509  39.5814  34.9026 C.3            1 <1>                0.0000
     13 C13         30.6844  38.2532  34.5336 C.3            1 <1>                0.0000
     14 C14         30.3625  37.4769  35.8125 C.3            1 <1>                0.0000
     15 C15         31.6583  37.1866  36.5725 C.3            1 <1>                0.0000
     16 C16         32.7026  36.6268  35.6046 C.3            1 <1>                0.0000
     17 O17         32.1162  35.5854  34.8212 O.3            1 <1>                0.0000
     18 H18         28.7523  35.1624  41.7920 H              1 <1>                0.0000
     19 H19         27.4415  34.3847  40.8727 H              1 <1>                0.0000
     20 H20         26.2888  36.1246  39.0972 H              1 <1>                0.0000
     21 H21         27.0071  37.4223  37.1066 H              1 <1>                0.0000
     22 H22         30.3070  36.3039  40.5297 H              1 <1>                0.0000
     23 H23         29.4285  40.0902  37.7163 H              1 <1>                0.0000
     24 H24         31.0282  39.3187  37.6008 H              1 <1>                0.0000
     25 H25         29.4927  40.6014  35.2950 H              1 <1>                0.0000
     26 H26         30.9049  41.3007  36.1242 H              1 <1>                0.0000
     27 H27         31.5426  40.1567  33.9969 H              1 <1>                0.0000
     28 H28         32.2916  39.3863  35.4173 H              1 <1>                0.0000
     29 H29         29.7632  38.4484  33.9846 H              1 <1>                0.0000
     30 H30         31.3614  37.6665  33.9126 H              1 <1>                0.0000
     31 H31         29.8749  36.5370  35.5539 H              1 <1>                0.0000
     32 H32         32.0327  38.1084  37.0178 H              1 <1>                0.0000
     33 H33         31.4629  36.4568  37.3582 H              1 <1>                0.0000
     34 H34         33.0524  37.4229  34.9472 H              1 <1>                0.0000
     35 H35         33.5441  36.2263  36.1698 H              1 <1>                0.0000
     36 H36         26.1899  36.5169  41.3398 H              1 <1>                0.0000
     37 H37         26.4396  35.5169  42.6451 H              1 <1>                0.0000
     38 H38         32.2141  35.7082  33.8671 H              1 <1>                0.0000
@<TRIPOS>BOND
    1    1    2 1     
    2    1   36 1     
    3    1   37 1     
    4    2    3 1     
    5    2   18 1     
    6    2   19 1     
    7    3    4 ar    
    8    3    8 ar    
    9    4    5 ar    
   10    4   20 1     
   11    5    6 ar    
   12    5   21 1     
   13    6    7 ar    
   14    6    9 1     
   15    7    8 ar    
   16    8   22 1     
   17    9   10 1     
   18    9   14 1     
   19   10   11 1     
   20   10   23 1     
   21   10   24 1     
   22   11   12 1     
   23   11   25 1     
   24   11   26 1     
   25   12   13 1     
   26   12   27 1     
   27   12   28 1     
   28   13   14 1     
   29   13   29 1     
   30   13   30 1     
   31   14   15 1     
   32   14   31 1     
   33   15   16 1     
   34   15   32 1     
   35   15   33 1     
   36   16   17 1     
   37   16   34 1     
   38   16   35 1     
   39   17   38 1     
@<TRIPOS>SUBSTRUCTURE
      1 ****           1
@<TRIPOS>SET
DONOR_HYDROGENS      STATIC     ATOMS    <user>   **** ""
3 36 37 38
ATOM$RED        STATIC     ATOMS    COLORGROUP SYSTEM
3 36 37 38
@<TRIPOS>COMMENT
> <Gold.Version>
2022.2.0

> <Gold.Id.Protein>
1qkm|1qkm_protein|mol2

> <Gold.Protein.RotatedTorsions>
[  496  491  490  487 ] final   68.40 input  -89.99 | X-H torsion

> <Gold.Protein.ActiveResidues>
 MET295  LEU298  THR299  LEU301  ALA302  GLU305  TRP335  MET336  LEU339  MET340 
 GLY342  LEU343  ARG346  PHE356  ILE373  ILE376  PHE377  LEU380  LYS471  GLY472 
 MET473  HIS475  LEU476  LEU477  ASN478  MET479  VAL484  VAL487 

> <Gold.Protein.RotatedAtoms>
   36.6233   33.2176   42.2429 H   0  0  0  0  0  0  0  0  0  0  0  0  # atno 496  bound_to 491 

> <Gold.Score>
     Score     S(PLP)   S(hbond)     S(cho)   S(metal)  DE(clash)   DE(tors)     intcor
     59.57     -50.85       2.00       1.00       0.00       0.00       0.20       0.11

> <Gold.PLP.Fitness>
59.5683

> <Gold.PLP.PLP>
-50.8501

> <Gold.PLP.part.hbond>
-2.0000

> <Gold.PLP.part.metal>
0.0000

> <Gold.PLP.part.buried>
-5.0268

> <Gold.PLP.part.nonpolar>
-45.3585

> <Gold.PLP.part.repulsive>
0.0297

> <Gold.PLP.ligand.clash>
0.0000

> <Gold.PLP.ligand.torsion>
0.1967

> <Gold.PLP.Chemscore.Hbond>
2.0000

> <Gold.PLP.Chemscore.CHOScore>
1.0000

> <Gold.PLP.Chemscore.Metal>
0.0000

> <Gold.Chemscore.Hbonds>
donor molecule, donor type, donor heavy atom, donor atom, acceptor molecule, acceptor atom, score
      L1  H     1    37       P1   582  1.00
      L1  H    17    38       P1  3187  1.00
      L1  C     8    22       P1   470  1.00

> <Gold.PLP.Chemscore.Internal.Correction>
0.1116

