#       Name:                EN300-43349_i004
#       Creating user name   aseyller
#       Creation time:       Fri Apr 21 14:35:45 2023


#       File generated by GOLD software.
#

@<TRIPOS>MOLECULE
EN300-43349_i004|amine_1|mol2|734|dock10
    38    39     1
SMALL
USER_CHARGES


@<TRIPOS>ATOM
      1 N1          25.0297  36.9287  40.7610 N.3            1 <1>                0.0000
      2 C2          25.4969  37.4173  39.4568 C.3            1 <1>                0.0000
      3 C3          26.9272  36.9929  39.2443 C.ar           1 <1>                0.0000
      4 C4          27.4436  35.9001  39.9283 C.ar           1 <1>                0.0000
      5 C5          28.7609  35.5435  39.7043 C.ar           1 <1>                0.0000
      6 C6          29.5199  36.2875  38.8063 C.ar           1 <1>                0.0000
      7 N7          28.9911  37.3234  38.1737 N.ar           1 <1>                0.0000
      8 C8          27.7356  37.6829  38.3636 C.ar           1 <1>                0.0000
      9 N9          30.8452  35.9403  38.5715 N.3            1 <1>                0.0000
     10 C10         30.9603  34.5244  38.1996 C.3            1 <1>                0.0000
     11 C11         32.4383  34.1426  38.0914 C.3            1 <1>                0.0000
     12 C12         33.1120  35.0233  37.0355 C.3            1 <1>                0.0000
     13 C13         32.9359  36.4946  37.4216 C.3            1 <1>                0.0000
     14 C14         31.4434  36.8082  37.5491 C.3            1 <1>                0.0000
     15 C15         30.7542  36.5627  36.2054 C.3            1 <1>                0.0000
     16 C16         31.2870  37.5555  35.1702 C.3            1 <1>                0.0000
     17 O17         32.2110  36.8918  34.3053 O.3            1 <1>                0.0000
     18 H18         24.8727  36.9989  38.6672 H              1 <1>                0.0000
     19 H19         25.4332  38.5051  39.4323 H              1 <1>                0.0000
     20 H20         26.8304  35.3415  40.6199 H              1 <1>                0.0000
     21 H21         29.1947  34.6994  40.2196 H              1 <1>                0.0000
     22 H22         27.3382  38.5336  37.8301 H              1 <1>                0.0000
     23 H23         30.4810  33.9088  38.9608 H              1 <1>                0.0000
     24 H24         30.4716  34.3603  37.2393 H              1 <1>                0.0000
     25 H25         32.9246  34.2934  39.0552 H              1 <1>                0.0000
     26 H26         32.5234  33.0956  37.8001 H              1 <1>                0.0000
     27 H27         34.1744  34.7845  36.9859 H              1 <1>                0.0000
     28 H28         32.6517  34.8440  36.0640 H              1 <1>                0.0000
     29 H29         33.4300  36.6824  38.3748 H              1 <1>                0.0000
     30 H30         33.3763  37.1281  36.6516 H              1 <1>                0.0000
     31 H31         31.3149  37.8514  37.8378 H              1 <1>                0.0000
     32 H32         30.9593  35.5454  35.8723 H              1 <1>                0.0000
     33 H33         29.6786  36.6981  36.3187 H              1 <1>                0.0000
     34 H34         30.4572  37.9481  34.5825 H              1 <1>                0.0000
     35 H35         31.7917  38.3762  35.6799 H              1 <1>                0.0000
     36 H36         24.2298  36.3230  40.6548 H              1 <1>                0.0000
     37 H37         25.7727  36.4624  41.2597 H              1 <1>                0.0000
     38 H38         31.7968  36.4520  33.5504 H              1 <1>                0.0000
@<TRIPOS>BOND
    1    1    2 1     
    2    1   36 1     
    3    1   37 1     
    4    2    3 1     
    5    2   18 1     
    6    2   19 1     
    7    3    4 ar    
    8    3    8 ar    
    9    4    5 ar    
   10    4   20 1     
   11    5    6 ar    
   12    5   21 1     
   13    6    7 ar    
   14    6    9 1     
   15    7    8 ar    
   16    8   22 1     
   17    9   10 1     
   18    9   14 1     
   19   10   11 1     
   20   10   23 1     
   21   10   24 1     
   22   11   12 1     
   23   11   25 1     
   24   11   26 1     
   25   12   13 1     
   26   12   27 1     
   27   12   28 1     
   28   13   14 1     
   29   13   29 1     
   30   13   30 1     
   31   14   15 1     
   32   14   31 1     
   33   15   16 1     
   34   15   32 1     
   35   15   33 1     
   36   16   17 1     
   37   16   34 1     
   38   16   35 1     
   39   17   38 1     
@<TRIPOS>SUBSTRUCTURE
      1 ****           1
@<TRIPOS>SET
DONOR_HYDROGENS      STATIC     ATOMS    <user>   **** ""
3 36 37 38
ATOM$RED        STATIC     ATOMS    COLORGROUP SYSTEM
3 36 37 38
@<TRIPOS>COMMENT
> <Gold.Version>
2022.2.0

> <Gold.Id.Protein>
1qkm|1qkm_protein|mol2

> <Gold.Protein.RotatedTorsions>
[  496  491  490  487 ] final   99.26 input  -89.99 | X-H torsion

> <Gold.Protein.ActiveResidues>
 MET295  LEU298  THR299  LEU301  ALA302  GLU305  TRP335  MET336  LEU339  MET340 
 GLY342  LEU343  ARG346  PHE356  ILE373  ILE376  PHE377  LEU380  LYS471  GLY472 
 MET473  HIS475  LEU476  LEU477  ASN478  MET479  VAL484  VAL487 

> <Gold.Protein.RotatedAtoms>
   36.9050   32.9721   41.9079 H   0  0  0  0  0  0  0  0  0  0  0  0  # atno 496  bound_to 491 

> <Gold.Score>
     Score     S(PLP)   S(hbond)     S(cho)   S(metal)  DE(clash)   DE(tors)     intcor
     55.47     -50.82       2.00       0.00       0.00       0.01       0.70       0.06

> <Gold.PLP.Fitness>
55.4741

> <Gold.PLP.PLP>
-50.8183

> <Gold.PLP.part.hbond>
-2.0000

> <Gold.PLP.part.metal>
0.0000

> <Gold.PLP.part.buried>
-6.3973

> <Gold.PLP.part.nonpolar>
-43.1573

> <Gold.PLP.part.repulsive>
0.0673

> <Gold.PLP.ligand.clash>
0.0060

> <Gold.PLP.ligand.torsion>
0.7000

> <Gold.PLP.Chemscore.Hbond>
2.0000

> <Gold.PLP.Chemscore.CHOScore>
0.0000

> <Gold.PLP.Chemscore.Metal>
0.0000

> <Gold.Chemscore.Hbonds>
donor molecule, donor type, donor heavy atom, donor atom, acceptor molecule, acceptor atom, score
      L1  H     1    36       P1  1131  1.00
      L1  H    17    38       P1  3187  1.00

> <Gold.PLP.Chemscore.Internal.Correction>
0.0617

