#       Name:                EN300-43349_i004
#       Creating user name   aseyller
#       Creation time:       Fri Apr 21 14:35:40 2023


#       File generated by GOLD software.
#

@<TRIPOS>MOLECULE
EN300-43349_i004|amine_1|mol2|734|dock6
    38    39     1
SMALL
USER_CHARGES


@<TRIPOS>ATOM
      1 N1          26.5140  36.4165  42.0707 N.3            1 <1>                0.0000
      2 C2          27.7439  35.7109  41.6863 C.3            1 <1>                0.0000
      3 C3          28.2347  36.2410  40.3639 C.ar           1 <1>                0.0000
      4 C4          27.4067  36.2202  39.2489 C.ar           1 <1>                0.0000
      5 C5          27.8957  36.7166  38.0543 C.ar           1 <1>                0.0000
      6 C6          29.1931  37.2173  38.0101 C.ar           1 <1>                0.0000
      7 N7          29.9518  37.2194  39.0952 N.ar           1 <1>                0.0000
      8 C8          29.5096  36.7574  40.2496 C.ar           1 <1>                0.0000
      9 N9          29.6974  37.7194  36.8161 N.3            1 <1>                0.0000
     10 C10         30.1563  39.1047  36.9800 C.3            1 <1>                0.0000
     11 C11         30.5678  39.6714  35.6192 C.3            1 <1>                0.0000
     12 C12         31.6878  38.8092  35.0303 C.3            1 <1>                0.0000
     13 C13         31.2004  37.3622  34.9151 C.3            1 <1>                0.0000
     14 C14         30.7705  36.8625  36.2962 C.3            1 <1>                0.0000
     15 C15         31.9662  36.9080  37.2497 C.3            1 <1>                0.0000
     16 C16         32.8017  35.6373  37.0808 C.3            1 <1>                0.0000
     17 O17         32.0805  34.5200  37.6037 O.3            1 <1>                0.0000
     18 H18         28.5074  35.8706  42.4477 H              1 <1>                0.0000
     19 H19         27.5378  34.6444  41.5965 H              1 <1>                0.0000
     20 H20         26.4038  35.8248  39.3134 H              1 <1>                0.0000
     21 H21         27.2790  36.7153  37.1677 H              1 <1>                0.0000
     22 H22         30.1569  36.7750  41.1139 H              1 <1>                0.0000
     23 H23         29.3492  39.7080  37.3955 H              1 <1>                0.0000
     24 H24         31.0110  39.1266  37.6560 H              1 <1>                0.0000
     25 H25         29.7100  39.6626  34.9468 H              1 <1>                0.0000
     26 H26         30.9231  40.6944  35.7434 H              1 <1>                0.0000
     27 H27         31.9542  39.1836  34.0419 H              1 <1>                0.0000
     28 H28         32.5598  38.8490  35.6831 H              1 <1>                0.0000
     29 H29         30.3524  37.3171  34.2316 H              1 <1>                0.0000
     30 H30         32.0076  36.7353  34.5363 H              1 <1>                0.0000
     31 H31         30.4095  35.8372  36.2153 H              1 <1>                0.0000
     32 H32         32.5800  37.7794  37.0216 H              1 <1>                0.0000
     33 H33         31.6091  36.9740  38.2774 H              1 <1>                0.0000
     34 H34         33.0060  35.4748  36.0225 H              1 <1>                0.0000
     35 H35         33.7427  35.7469  37.6198 H              1 <1>                0.0000
     36 H36         25.9434  36.6147  41.2625 H              1 <1>                0.0000
     37 H37         25.9960  35.8913  42.7591 H              1 <1>                0.0000
     38 H38         32.3523  33.6687  37.2346 H              1 <1>                0.0000
@<TRIPOS>BOND
    1    1    2 1     
    2    1   36 1     
    3    1   37 1     
    4    2    3 1     
    5    2   18 1     
    6    2   19 1     
    7    3    4 ar    
    8    3    8 ar    
    9    4    5 ar    
   10    4   20 1     
   11    5    6 ar    
   12    5   21 1     
   13    6    7 ar    
   14    6    9 1     
   15    7    8 ar    
   16    8   22 1     
   17    9   10 1     
   18    9   14 1     
   19   10   11 1     
   20   10   23 1     
   21   10   24 1     
   22   11   12 1     
   23   11   25 1     
   24   11   26 1     
   25   12   13 1     
   26   12   27 1     
   27   12   28 1     
   28   13   14 1     
   29   13   29 1     
   30   13   30 1     
   31   14   15 1     
   32   14   31 1     
   33   15   16 1     
   34   15   32 1     
   35   15   33 1     
   36   16   17 1     
   37   16   34 1     
   38   16   35 1     
   39   17   38 1     
@<TRIPOS>SUBSTRUCTURE
      1 ****           1
@<TRIPOS>SET
DONOR_HYDROGENS      STATIC     ATOMS    <user>   **** ""
3 36 37 38
ATOM$RED        STATIC     ATOMS    COLORGROUP SYSTEM
3 36 37 38
@<TRIPOS>COMMENT
> <Gold.Version>
2022.2.0

> <Gold.Id.Protein>
1qkm|1qkm_protein|mol2

> <Gold.Protein.RotatedTorsions>
[  496  491  490  487 ] final  -55.32 input  -89.99 | X-H torsion

> <Gold.Protein.ActiveResidues>
 MET295  LEU298  THR299  LEU301  ALA302  GLU305  TRP335  MET336  LEU339  MET340 
 GLY342  LEU343  ARG346  PHE356  ILE373  ILE376  PHE377  LEU380  LYS471  GLY472 
 MET473  HIS475  LEU476  LEU477  ASN478  MET479  VAL484  VAL487 

> <Gold.Protein.RotatedAtoms>
   36.4619   34.7223   41.5525 H   0  0  0  0  0  0  0  0  0  0  0  0  # atno 496  bound_to 491 

> <Gold.Score>
     Score     S(PLP)   S(hbond)     S(cho)   S(metal)  DE(clash)   DE(tors)     intcor
     54.67     -49.66       0.90       0.99       0.00       0.01       0.37       0.10

> <Gold.PLP.Fitness>
54.6664

> <Gold.PLP.PLP>
-49.6601

> <Gold.PLP.part.hbond>
-1.0000

> <Gold.PLP.part.metal>
0.0000

> <Gold.PLP.part.buried>
-3.1128

> <Gold.PLP.part.nonpolar>
-46.7645

> <Gold.PLP.part.repulsive>
0.0467

> <Gold.PLP.ligand.clash>
0.0103

> <Gold.PLP.ligand.torsion>
0.3734

> <Gold.PLP.Chemscore.Hbond>
0.8960

> <Gold.PLP.Chemscore.CHOScore>
0.9921

> <Gold.PLP.Chemscore.Metal>
0.0000

> <Gold.Chemscore.Hbonds>
donor molecule, donor type, donor heavy atom, donor atom, acceptor molecule, acceptor atom, score
      L1  H     1    37       P1   582  0.90
      L1  C     8    22       P1   470  0.99

> <Gold.PLP.Chemscore.Internal.Correction>
0.0991

