#       Name:                EN300-43349_i004
#       Creating user name   aseyller
#       Creation time:       Fri Apr 21 14:35:38 2023


#       File generated by GOLD software.
#

@<TRIPOS>MOLECULE
EN300-43349_i004|amine_1|mol2|734|dock5
    38    39     1
SMALL
USER_CHARGES


@<TRIPOS>ATOM
      1 N1          25.5736  36.9542  42.4033 N.3            1 <1>                0.0000
      2 C2          25.5287  36.4885  41.0108 C.3            1 <1>                0.0000
      3 C3          26.9283  36.4299  40.4553 C.ar           1 <1>                0.0000
      4 C4          28.0188  36.7022  41.2712 C.ar           1 <1>                0.0000
      5 C5          29.2865  36.6369  40.7222 C.ar           1 <1>                0.0000
      6 C6          29.4257  36.3026  39.3788 C.ar           1 <1>                0.0000
      7 N7          28.3609  36.0502  38.6335 N.ar           1 <1>                0.0000
      8 C8          27.1399  36.0994  39.1320 C.ar           1 <1>                0.0000
      9 N9          30.6939  36.2333  38.8140 N.3            1 <1>                0.0000
     10 C10         30.9263  34.9187  38.2024 C.3            1 <1>                0.0000
     11 C11         32.3763  34.8277  37.7214 C.3            1 <1>                0.0000
     12 C12         32.6418  35.9396  36.7027 C.3            1 <1>                0.0000
     13 C13         32.3459  37.2953  37.3500 C.3            1 <1>                0.0000
     14 C14         30.8968  37.3148  37.8416 C.3            1 <1>                0.0000
     15 C15         29.9528  37.1163  36.6540 C.3            1 <1>                0.0000
     16 C16         29.9831  38.3611  35.7649 C.3            1 <1>                0.0000
     17 O17         29.7411  39.5220  36.5622 O.3            1 <1>                0.0000
     18 H18         25.0813  35.4952  40.9740 H              1 <1>                0.0000
     19 H19         24.9303  37.1787  40.4160 H              1 <1>                0.0000
     20 H20         27.8799  36.9594  42.3108 H              1 <1>                0.0000
     21 H21         30.1565  36.8430  41.3280 H              1 <1>                0.0000
     22 H22         26.2948  35.8875  38.4939 H              1 <1>                0.0000
     23 H23         30.7382  34.1372  38.9385 H              1 <1>                0.0000
     24 H24         30.2537  34.7885  37.3546 H              1 <1>                0.0000
     25 H25         33.0495  34.9441  38.5708 H              1 <1>                0.0000
     26 H26         32.5444  33.8577  37.2534 H              1 <1>                0.0000
     27 H27         33.6854  35.9054  36.3899 H              1 <1>                0.0000
     28 H28         31.9960  35.8011  35.8357 H              1 <1>                0.0000
     29 H29         33.0185  37.4505  38.1935 H              1 <1>                0.0000
     30 H30         32.4920  38.0884  36.6166 H              1 <1>                0.0000
     31 H31         30.6870  38.2736  38.3158 H              1 <1>                0.0000
     32 H32         30.2730  36.2492  36.0763 H              1 <1>                0.0000
     33 H33         28.9385  36.9552  37.0192 H              1 <1>                0.0000
     34 H34         30.9605  38.4442  35.2894 H              1 <1>                0.0000
     35 H35         29.2122  38.2792  34.9988 H              1 <1>                0.0000
     36 H36         25.9014  36.2244  43.0181 H              1 <1>                0.0000
     37 H37         26.1433  37.7825  42.4894 H              1 <1>                0.0000
     38 H38         30.4680  40.1596  36.5596 H              1 <1>                0.0000
@<TRIPOS>BOND
    1    1    2 1     
    2    1   36 1     
    3    1   37 1     
    4    2    3 1     
    5    2   18 1     
    6    2   19 1     
    7    3    4 ar    
    8    3    8 ar    
    9    4    5 ar    
   10    4   20 1     
   11    5    6 ar    
   12    5   21 1     
   13    6    7 ar    
   14    6    9 1     
   15    7    8 ar    
   16    8   22 1     
   17    9   10 1     
   18    9   14 1     
   19   10   11 1     
   20   10   23 1     
   21   10   24 1     
   22   11   12 1     
   23   11   25 1     
   24   11   26 1     
   25   12   13 1     
   26   12   27 1     
   27   12   28 1     
   28   13   14 1     
   29   13   29 1     
   30   13   30 1     
   31   14   15 1     
   32   14   31 1     
   33   15   16 1     
   34   15   32 1     
   35   15   33 1     
   36   16   17 1     
   37   16   34 1     
   38   16   35 1     
   39   17   38 1     
@<TRIPOS>SUBSTRUCTURE
      1 ****           1
@<TRIPOS>SET
DONOR_HYDROGENS      STATIC     ATOMS    <user>   **** ""
3 36 37 38
ATOM$RED        STATIC     ATOMS    COLORGROUP SYSTEM
3 36 37 38
@<TRIPOS>COMMENT
> <Gold.Version>
2022.2.0

> <Gold.Id.Protein>
1qkm|1qkm_protein|mol2

> <Gold.Protein.RotatedTorsions>
[  496  491  490  487 ] final  175.13 input  -89.99 | X-H torsion

> <Gold.Protein.ActiveResidues>
 MET295  LEU298  THR299  LEU301  ALA302  GLU305  TRP335  MET336  LEU339  MET340 
 GLY342  LEU343  ARG346  PHE356  ILE373  ILE376  PHE377  LEU380  LYS471  GLY472 
 MET473  HIS475  LEU476  LEU477  ASN478  MET479  VAL484  VAL487 

> <Gold.Protein.RotatedAtoms>
   37.3186   33.3938   40.9100 H   0  0  0  0  0  0  0  0  0  0  0  0  # atno 496  bound_to 491 

> <Gold.Score>
     Score     S(PLP)   S(hbond)     S(cho)   S(metal)  DE(clash)   DE(tors)     intcor
     56.35     -54.63       1.18       0.00       0.00       1.58       0.17       0.10

> <Gold.PLP.Fitness>
56.3524

> <Gold.PLP.PLP>
-54.6330

> <Gold.PLP.part.hbond>
-2.0000

> <Gold.PLP.part.metal>
0.0000

> <Gold.PLP.part.buried>
-5.5260

> <Gold.PLP.part.nonpolar>
-47.8384

> <Gold.PLP.part.repulsive>
0.0729

> <Gold.PLP.ligand.clash>
1.5758

> <Gold.PLP.ligand.torsion>
0.1695

> <Gold.PLP.Chemscore.Hbond>
1.1784

> <Gold.PLP.Chemscore.CHOScore>
0.0000

> <Gold.PLP.Chemscore.Metal>
0.0000

> <Gold.Chemscore.Hbonds>
donor molecule, donor type, donor heavy atom, donor atom, acceptor molecule, acceptor atom, score
      L1  H     1    36       P1   582  1.00
      P1  H  1258  1270       L1     1  0.18

> <Gold.PLP.Chemscore.Internal.Correction>
0.0991

