#       Name:                EN300-43349_i004
#       Creating user name   aseyller
#       Creation time:       Fri Apr 21 14:35:48 2023


#       File generated by GOLD software.
#

@<TRIPOS>MOLECULE
EN300-43349_i004|amine_1|mol2|734|dock12
    38    39     1
SMALL
USER_CHARGES


@<TRIPOS>ATOM
      1 N1          27.2683  36.0418  41.8774 N.3            1 <1>                0.0000
      2 C2          26.4845  35.9269  40.6403 C.3            1 <1>                0.0000
      3 C3          27.3265  36.3648  39.4697 C.ar           1 <1>                0.0000
      4 C4          26.9144  37.4186  38.6644 C.ar           1 <1>                0.0000
      5 C5          27.7166  37.7892  37.6006 C.ar           1 <1>                0.0000
      6 C6          28.9026  37.0978  37.3743 C.ar           1 <1>                0.0000
      7 N7          29.2608  36.0979  38.1649 N.ar           1 <1>                0.0000
      8 C8          28.5180  35.7263  39.1905 C.ar           1 <1>                0.0000
      9 N9          29.7185  37.4596  36.3088 N.3            1 <1>                0.0000
     10 C10         30.0291  38.8944  36.3474 C.3            1 <1>                0.0000
     11 C11         30.8041  39.2840  35.0866 C.3            1 <1>                0.0000
     12 C12         32.0957  38.4648  35.0138 C.3            1 <1>                0.0000
     13 C13         31.7466  36.9740  35.0237 C.3            1 <1>                0.0000
     14 C14         30.9443  36.6514  36.2863 C.3            1 <1>                0.0000
     15 C15         31.7881  36.9707  37.5220 C.3            1 <1>                0.0000
     16 C16         32.9306  35.9592  37.6346 C.3            1 <1>                0.0000
     17 O17         32.3971  34.6336  37.6107 O.3            1 <1>                0.0000
     18 H18         26.1774  34.8906  40.4995 H              1 <1>                0.0000
     19 H19         25.6009  36.5614  40.7098 H              1 <1>                0.0000
     20 H20         25.9882  37.9367  38.8643 H              1 <1>                0.0000
     21 H21         27.4263  38.6041  36.9539 H              1 <1>                0.0000
     22 H22         28.8419  34.9061  39.8138 H              1 <1>                0.0000
     23 H23         29.1020  39.4656  36.3948 H              1 <1>                0.0000
     24 H24         30.6345  39.1113  37.2274 H              1 <1>                0.0000
     25 H25         30.1938  39.0801  34.2068 H              1 <1>                0.0000
     26 H26         31.0481  40.3457  35.1229 H              1 <1>                0.0000
     27 H27         32.6298  38.7078  34.0952 H              1 <1>                0.0000
     28 H28         32.7237  38.6976  35.8737 H              1 <1>                0.0000
     29 H29         31.1511  36.7338  34.1428 H              1 <1>                0.0000
     30 H30         32.6639  36.3854  35.0152 H              1 <1>                0.0000
     31 H31         30.6819  35.5934  36.2894 H              1 <1>                0.0000
     32 H32         32.2003  37.9756  37.4308 H              1 <1>                0.0000
     33 H33         31.1632  36.9138  38.4133 H              1 <1>                0.0000
     34 H34         33.6158  36.0901  36.7970 H              1 <1>                0.0000
     35 H35         33.4660  36.1185  38.5705 H              1 <1>                0.0000
     36 H36         27.5606  36.9949  42.0330 H              1 <1>                0.0000
     37 H37         26.7499  35.6889  42.6679 H              1 <1>                0.0000
     38 H38         32.8600  34.0129  38.1899 H              1 <1>                0.0000
@<TRIPOS>BOND
    1    1    2 1     
    2    1   36 1     
    3    1   37 1     
    4    2    3 1     
    5    2   18 1     
    6    2   19 1     
    7    3    4 ar    
    8    3    8 ar    
    9    4    5 ar    
   10    4   20 1     
   11    5    6 ar    
   12    5   21 1     
   13    6    7 ar    
   14    6    9 1     
   15    7    8 ar    
   16    8   22 1     
   17    9   10 1     
   18    9   14 1     
   19   10   11 1     
   20   10   23 1     
   21   10   24 1     
   22   11   12 1     
   23   11   25 1     
   24   11   26 1     
   25   12   13 1     
   26   12   27 1     
   27   12   28 1     
   28   13   14 1     
   29   13   29 1     
   30   13   30 1     
   31   14   15 1     
   32   14   31 1     
   33   15   16 1     
   34   15   32 1     
   35   15   33 1     
   36   16   17 1     
   37   16   34 1     
   38   16   35 1     
   39   17   38 1     
@<TRIPOS>SUBSTRUCTURE
      1 ****           1
@<TRIPOS>SET
DONOR_HYDROGENS      STATIC     ATOMS    <user>   **** ""
3 36 37 38
ATOM$RED        STATIC     ATOMS    COLORGROUP SYSTEM
3 36 37 38
@<TRIPOS>COMMENT
> <Gold.Version>
2022.2.0

> <Gold.Id.Protein>
1qkm|1qkm_protein|mol2

> <Gold.Protein.RotatedTorsions>
[  496  491  490  487 ] final  123.61 input  -89.99 | X-H torsion

> <Gold.Protein.ActiveResidues>
 MET295  LEU298  THR299  LEU301  ALA302  GLU305  TRP335  MET336  LEU339  MET340 
 GLY342  LEU343  ARG346  PHE356  ILE373  ILE376  PHE377  LEU380  LYS471  GLY472 
 MET473  HIS475  LEU476  LEU477  ASN478  MET479  VAL484  VAL487 

> <Gold.Protein.RotatedAtoms>
   37.1078   32.9502   41.5665 H   0  0  0  0  0  0  0  0  0  0  0  0  # atno 496  bound_to 491 

> <Gold.Score>
     Score     S(PLP)   S(hbond)     S(cho)   S(metal)  DE(clash)   DE(tors)     intcor
     51.99     -49.16       1.00       0.00       0.00       0.00       0.12       0.06

> <Gold.PLP.Fitness>
51.9917

> <Gold.PLP.PLP>
-49.1635

> <Gold.PLP.part.hbond>
-1.0000

> <Gold.PLP.part.metal>
0.0000

> <Gold.PLP.part.buried>
-5.1871

> <Gold.PLP.part.nonpolar>
-43.8037

> <Gold.PLP.part.repulsive>
0.0086

> <Gold.PLP.ligand.clash>
0.0000

> <Gold.PLP.ligand.torsion>
0.1168

> <Gold.PLP.Chemscore.Hbond>
1.0000

> <Gold.PLP.Chemscore.CHOScore>
0.0000

> <Gold.PLP.Chemscore.Metal>
0.0000

> <Gold.Chemscore.Hbonds>
donor molecule, donor type, donor heavy atom, donor atom, acceptor molecule, acceptor atom, score
      L1  H     1    37       P1   582  1.00

> <Gold.PLP.Chemscore.Internal.Correction>
0.0617

