#       Name:                EN300-43349_i004
#       Creating user name   aseyller
#       Creation time:       Fri Apr 21 14:35:41 2023


#       File generated by GOLD software.
#

@<TRIPOS>MOLECULE
EN300-43349_i004|amine_1|mol2|734|dock7
    38    39     1
SMALL
USER_CHARGES


@<TRIPOS>ATOM
      1 N1          24.8741  37.0064  41.1639 N.3            1 <1>                0.0000
      2 C2          25.9522  36.0271  40.9725 C.3            1 <1>                0.0000
      3 C3          26.8165  36.4517  39.8133 C.ar           1 <1>                0.0000
      4 C4          26.4311  37.5112  39.0021 C.ar           1 <1>                0.0000
      5 C5          27.2531  37.8692  37.9491 C.ar           1 <1>                0.0000
      6 C6          28.4316  37.1600  37.7393 C.ar           1 <1>                0.0000
      7 N7          28.7641  36.1553  38.5350 N.ar           1 <1>                0.0000
      8 C8          28.0020  35.7955  39.5505 C.ar           1 <1>                0.0000
      9 N9          29.2672  37.5091  36.6848 N.3            1 <1>                0.0000
     10 C10         29.5995  38.9389  36.7278 C.3            1 <1>                0.0000
     11 C11         30.3972  39.3163  35.4775 C.3            1 <1>                0.0000
     12 C12         31.6768  38.4771  35.4218 C.3            1 <1>                0.0000
     13 C13         31.3044  36.9919  35.4268 C.3            1 <1>                0.0000
     14 C14         30.4805  36.6819  36.6785 C.3            1 <1>                0.0000
     15 C15         31.3126  36.9881  37.9254 C.3            1 <1>                0.0000
     16 C16         32.0432  35.7210  38.3747 C.3            1 <1>                0.0000
     17 O17         31.1664  34.9233  39.1729 O.3            1 <1>                0.0000
     18 H18         26.5584  35.9725  41.8768 H              1 <1>                0.0000
     19 H19         25.5209  35.0479  40.7646 H              1 <1>                0.0000
     20 H20         25.5100  38.0431  39.1892 H              1 <1>                0.0000
     21 H21         26.9837  38.6879  37.2983 H              1 <1>                0.0000
     22 H22         28.3052  34.9708  40.1785 H              1 <1>                0.0000
     23 H23         28.6808  39.5244  36.7629 H              1 <1>                0.0000
     24 H24         30.1964  39.1463  37.6159 H              1 <1>                0.0000
     25 H25         29.7957  39.1219  34.5895 H              1 <1>                0.0000
     26 H26         30.6572  40.3741  35.5172 H              1 <1>                0.0000
     27 H27         32.2268  38.7117  34.5104 H              1 <1>                0.0000
     28 H28         32.2968  38.7002  36.2901 H              1 <1>                0.0000
     29 H29         30.7171  36.7610  34.5380 H              1 <1>                0.0000
     30 H30         32.2126  36.3891  35.4304 H              1 <1>                0.0000
     31 H31         30.2016  35.6282  36.6780 H              1 <1>                0.0000
     32 H32         32.0413  37.7650  37.6942 H              1 <1>                0.0000
     33 H33         30.6562  37.3318  38.7249 H              1 <1>                0.0000
     34 H34         32.3558  35.1520  37.4990 H              1 <1>                0.0000
     35 H35         32.9197  35.9957  38.9614 H              1 <1>                0.0000
     36 H36         25.2349  37.9486  41.1502 H              1 <1>                0.0000
     37 H37         24.1496  36.8865  40.4720 H              1 <1>                0.0000
     38 H38         31.2481  35.0801  40.1235 H              1 <1>                0.0000
@<TRIPOS>BOND
    1    1    2 1     
    2    1   36 1     
    3    1   37 1     
    4    2    3 1     
    5    2   18 1     
    6    2   19 1     
    7    3    4 ar    
    8    3    8 ar    
    9    4    5 ar    
   10    4   20 1     
   11    5    6 ar    
   12    5   21 1     
   13    6    7 ar    
   14    6    9 1     
   15    7    8 ar    
   16    8   22 1     
   17    9   10 1     
   18    9   14 1     
   19   10   11 1     
   20   10   23 1     
   21   10   24 1     
   22   11   12 1     
   23   11   25 1     
   24   11   26 1     
   25   12   13 1     
   26   12   27 1     
   27   12   28 1     
   28   13   14 1     
   29   13   29 1     
   30   13   30 1     
   31   14   15 1     
   32   14   31 1     
   33   15   16 1     
   34   15   32 1     
   35   15   33 1     
   36   16   17 1     
   37   16   34 1     
   38   16   35 1     
   39   17   38 1     
@<TRIPOS>SUBSTRUCTURE
      1 ****           1
@<TRIPOS>SET
DONOR_HYDROGENS      STATIC     ATOMS    <user>   **** ""
3 36 37 38
ATOM$RED        STATIC     ATOMS    COLORGROUP SYSTEM
3 36 37 38
@<TRIPOS>COMMENT
> <Gold.Version>
2022.2.0

> <Gold.Id.Protein>
1qkm|1qkm_protein|mol2

> <Gold.Protein.RotatedTorsions>
[  496  491  490  487 ] final  -44.87 input  -89.99 | X-H torsion

> <Gold.Protein.ActiveResidues>
 MET295  LEU298  THR299  LEU301  ALA302  GLU305  TRP335  MET336  LEU339  MET340 
 GLY342  LEU343  ARG346  PHE356  ILE373  ILE376  PHE377  LEU380  LYS471  GLY472 
 MET473  HIS475  LEU476  LEU477  ASN478  MET479  VAL484  VAL487 

> <Gold.Protein.RotatedAtoms>
   36.3916   34.6795   41.7034 H   0  0  0  0  0  0  0  0  0  0  0  0  # atno 496  bound_to 491 

> <Gold.Score>
     Score     S(PLP)   S(hbond)     S(cho)   S(metal)  DE(clash)   DE(tors)     intcor
     54.97     -51.08       2.18       0.00       0.00       1.41       0.68       0.10

> <Gold.PLP.Fitness>
54.9671

> <Gold.PLP.PLP>
-51.0841

> <Gold.PLP.part.hbond>
-3.0000

> <Gold.PLP.part.metal>
0.0000

> <Gold.PLP.part.buried>
-4.1546

> <Gold.PLP.part.nonpolar>
-43.7151

> <Gold.PLP.part.repulsive>
0.0077

> <Gold.PLP.ligand.clash>
1.4052

> <Gold.PLP.ligand.torsion>
0.6775

> <Gold.PLP.Chemscore.Hbond>
2.1814

> <Gold.PLP.Chemscore.CHOScore>
0.0000

> <Gold.PLP.Chemscore.Metal>
0.0000

> <Gold.Chemscore.Hbonds>
donor molecule, donor type, donor heavy atom, donor atom, acceptor molecule, acceptor atom, score
      L1  H     1    37       P1  1131  1.00
      L1  H    17    38       P1   470  1.00
      P1  H  1258  1270       L1     1  0.18

> <Gold.PLP.Chemscore.Internal.Correction>
0.0991

