#       Name:                EN300-43349_i004
#       Creating user name   aseyller
#       Creation time:       Fri Apr 21 14:35:49 2023


#       File generated by GOLD software.
#

@<TRIPOS>MOLECULE
EN300-43349_i004|amine_1|mol2|734|dock13
    38    39     1
SMALL
USER_CHARGES


@<TRIPOS>ATOM
      1 N1          25.9505  36.6377  41.7389 N.3            1 <1>                0.0000
      2 C2          25.9122  36.4263  40.2857 C.3            1 <1>                0.0000
      3 C3          27.3182  36.4067  39.7438 C.ar           1 <1>                0.0000
      4 C4          28.2442  35.4920  40.2285 C.ar           1 <1>                0.0000
      5 C5          29.5237  35.5071  39.7039 C.ar           1 <1>                0.0000
      6 C6          29.8383  36.4328  38.7139 C.ar           1 <1>                0.0000
      7 N7          28.9272  37.2891  38.2782 N.ar           1 <1>                0.0000
      8 C8          27.6972  37.2937  38.7564 C.ar           1 <1>                0.0000
      9 N9          31.1204  36.4591  38.1777 N.3            1 <1>                0.0000
     10 C10         31.5172  35.1294  37.6972 C.3            1 <1>                0.0000
     11 C11         32.9802  35.1631  37.2494 C.3            1 <1>                0.0000
     12 C12         33.1437  36.1992  36.1339 C.3            1 <1>                0.0000
     13 C13         32.6782  37.5655  36.6450 C.3            1 <1>                0.0000
     14 C14         31.2240  37.4622  37.1103 C.3            1 <1>                0.0000
     15 C15         30.3402  37.0465  35.9326 C.3            1 <1>                0.0000
     16 C16         30.3114  38.1706  34.8950 C.3            1 <1>                0.0000
     17 O17         30.0822  39.4191  35.5516 O.3            1 <1>                0.0000
     18 H18         25.4262  35.4748  40.0696 H              1 <1>                0.0000
     19 H19         25.3528  37.2350  39.8155 H              1 <1>                0.0000
     20 H20         27.9712  34.7852  40.9980 H              1 <1>                0.0000
     21 H21         30.2687  34.8101  40.0581 H              1 <1>                0.0000
     22 H22         26.9805  38.0069  38.3771 H              1 <1>                0.0000
     23 H23         31.4002  34.4028  38.5012 H              1 <1>                0.0000
     24 H24         30.8862  34.8442  36.8555 H              1 <1>                0.0000
     25 H25         33.6132  35.4348  38.0941 H              1 <1>                0.0000
     26 H26         33.2699  34.1800  36.8782 H              1 <1>                0.0000
     27 H27         34.1922  36.2575  35.8418 H              1 <1>                0.0000
     28 H28         32.5408  35.9072  35.2742 H              1 <1>                0.0000
     29 H29         33.3065  37.8750  37.4802 H              1 <1>                0.0000
     30 H30         32.7521  38.2989  35.8420 H              1 <1>                0.0000
     31 H31         30.8939  38.4299  37.4881 H              1 <1>                0.0000
     32 H32         30.7434  36.1420  35.4772 H              1 <1>                0.0000
     33 H33         29.3279  36.8541  36.2882 H              1 <1>                0.0000
     34 H34         31.2664  38.2058  34.3708 H              1 <1>                0.0000
     35 H35         29.5107  37.9841  34.1794 H              1 <1>                0.0000
     36 H36         25.9897  35.7579  42.2313 H              1 <1>                0.0000
     37 H37         26.7240  37.2317  41.9976 H              1 <1>                0.0000
     38 H38         29.9218  39.3401  36.5018 H              1 <1>                0.0000
@<TRIPOS>BOND
    1    1    2 1     
    2    1   36 1     
    3    1   37 1     
    4    2    3 1     
    5    2   18 1     
    6    2   19 1     
    7    3    4 ar    
    8    3    8 ar    
    9    4    5 ar    
   10    4   20 1     
   11    5    6 ar    
   12    5   21 1     
   13    6    7 ar    
   14    6    9 1     
   15    7    8 ar    
   16    8   22 1     
   17    9   10 1     
   18    9   14 1     
   19   10   11 1     
   20   10   23 1     
   21   10   24 1     
   22   11   12 1     
   23   11   25 1     
   24   11   26 1     
   25   12   13 1     
   26   12   27 1     
   27   12   28 1     
   28   13   14 1     
   29   13   29 1     
   30   13   30 1     
   31   14   15 1     
   32   14   31 1     
   33   15   16 1     
   34   15   32 1     
   35   15   33 1     
   36   16   17 1     
   37   16   34 1     
   38   16   35 1     
   39   17   38 1     
@<TRIPOS>SUBSTRUCTURE
      1 ****           1
@<TRIPOS>SET
DONOR_HYDROGENS      STATIC     ATOMS    <user>   **** ""
3 36 37 38
ATOM$RED        STATIC     ATOMS    COLORGROUP SYSTEM
3 36 37 38
@<TRIPOS>COMMENT
> <Gold.Version>
2022.2.0

> <Gold.Id.Protein>
1qkm|1qkm_protein|mol2

> <Gold.Protein.RotatedTorsions>
[  496  491  490  487 ] final   73.38 input  -89.99 | X-H torsion

> <Gold.Protein.ActiveResidues>
 MET295  LEU298  THR299  LEU301  ALA302  GLU305  TRP335  MET336  LEU339  MET340 
 GLY342  LEU343  ARG346  PHE356  ILE373  ILE376  PHE377  LEU380  LYS471  GLY472 
 MET473  HIS475  LEU476  LEU477  ASN478  MET479  VAL484  VAL487 

> <Gold.Protein.RotatedAtoms>
   36.6676   33.1636   42.2002 H   0  0  0  0  0  0  0  0  0  0  0  0  # atno 496  bound_to 491 

> <Gold.Score>
     Score     S(PLP)   S(hbond)     S(cho)   S(metal)  DE(clash)   DE(tors)     intcor
     50.63     -47.86       1.00       0.00       0.00       0.03       0.13       0.06

> <Gold.PLP.Fitness>
50.6299

> <Gold.PLP.PLP>
-47.8560

> <Gold.PLP.part.hbond>
-1.0000

> <Gold.PLP.part.metal>
0.0000

> <Gold.PLP.part.buried>
-5.8327

> <Gold.PLP.part.nonpolar>
-42.2853

> <Gold.PLP.part.repulsive>
0.0424

> <Gold.PLP.ligand.clash>
0.0342

> <Gold.PLP.ligand.torsion>
0.1268

> <Gold.PLP.Chemscore.Hbond>
1.0000

> <Gold.PLP.Chemscore.CHOScore>
0.0000

> <Gold.PLP.Chemscore.Metal>
0.0000

> <Gold.Chemscore.Hbonds>
donor molecule, donor type, donor heavy atom, donor atom, acceptor molecule, acceptor atom, score
      L1  H     1    36       P1   582  1.00

> <Gold.PLP.Chemscore.Internal.Correction>
0.0617

