#       Name:                EN300-43349_i004
#       Creating user name   aseyller
#       Creation time:       Fri Apr 21 14:35:44 2023


#       File generated by GOLD software.
#

@<TRIPOS>MOLECULE
EN300-43349_i004|amine_1|mol2|734|dock9
    38    39     1
SMALL
USER_CHARGES


@<TRIPOS>ATOM
      1 N1          28.0926  35.2418  42.4002 N.3            1 <1>                0.0000
      2 C2          27.4781  36.4005  41.7385 C.3            1 <1>                0.0000
      3 C3          28.1560  36.6406  40.4142 C.ar           1 <1>                0.0000
      4 C4          27.4130  36.6705  39.2411 C.ar           1 <1>                0.0000
      5 C5          28.0737  36.8942  38.0470 C.ar           1 <1>                0.0000
      6 C6          29.4524  37.0806  38.0611 C.ar           1 <1>                0.0000
      7 N7          30.1255  37.0446  39.2007 N.ar           1 <1>                0.0000
      8 C8          29.5207  36.8388  40.3554 C.ar           1 <1>                0.0000
      9 N9          30.1293  37.3064  36.8682 N.3            1 <1>                0.0000
     10 C10         30.8849  38.5645  36.9220 C.3            1 <1>                0.0000
     11 C11         31.4966  38.8526  35.5490 C.3            1 <1>                0.0000
     12 C12         32.4204  37.6970  35.1545 C.3            1 <1>                0.0000
     13 C13         31.6199  36.3917  35.1531 C.3            1 <1>                0.0000
     14 C14         31.0048  36.1748  36.5375 C.3            1 <1>                0.0000
     15 C15         32.1196  36.0711  37.5802 C.3            1 <1>                0.0000
     16 C16         32.1262  34.6642  38.1814 C.3            1 <1>                0.0000
     17 O17         31.1700  34.5946  39.2412 O.3            1 <1>                0.0000
     18 H18         26.4184  36.2054  41.5742 H              1 <1>                0.0000
     19 H19         27.5916  37.2818  42.3699 H              1 <1>                0.0000
     20 H20         26.3435  36.5220  39.2611 H              1 <1>                0.0000
     21 H21         27.5270  36.9233  37.1161 H              1 <1>                0.0000
     22 H22         30.1022  36.8158  41.2651 H              1 <1>                0.0000
     23 H23         30.2156  39.3787  37.1994 H              1 <1>                0.0000
     24 H24         31.6797  38.4793  37.6630 H              1 <1>                0.0000
     25 H25         30.7015  38.9516  34.8099 H              1 <1>                0.0000
     26 H26         32.0703  39.7784  35.5933 H              1 <1>                0.0000
     27 H27         32.8245  37.8776  34.1584 H              1 <1>                0.0000
     28 H28         33.2375  37.6225  35.8720 H              1 <1>                0.0000
     29 H29         30.8268  36.4520  34.4078 H              1 <1>                0.0000
     30 H30         32.2819  35.5592  34.9146 H              1 <1>                0.0000
     31 H31         30.4224  35.2535  36.5358 H              1 <1>                0.0000
     32 H32         33.0808  36.2678  37.1053 H              1 <1>                0.0000
     33 H33         31.9479  36.8028  38.3696 H              1 <1>                0.0000
     34 H34         31.8674  33.9383  37.4104 H              1 <1>                0.0000
     35 H35         33.1187  34.4407  38.5723 H              1 <1>                0.0000
     36 H36         27.4791  34.8605  43.1048 H              1 <1>                0.0000
     37 H37         28.3523  34.5366  41.7269 H              1 <1>                0.0000
     38 H38         31.5633  34.5445  40.1231 H              1 <1>                0.0000
@<TRIPOS>BOND
    1    1    2 1     
    2    1   36 1     
    3    1   37 1     
    4    2    3 1     
    5    2   18 1     
    6    2   19 1     
    7    3    4 ar    
    8    3    8 ar    
    9    4    5 ar    
   10    4   20 1     
   11    5    6 ar    
   12    5   21 1     
   13    6    7 ar    
   14    6    9 1     
   15    7    8 ar    
   16    8   22 1     
   17    9   10 1     
   18    9   14 1     
   19   10   11 1     
   20   10   23 1     
   21   10   24 1     
   22   11   12 1     
   23   11   25 1     
   24   11   26 1     
   25   12   13 1     
   26   12   27 1     
   27   12   28 1     
   28   13   14 1     
   29   13   29 1     
   30   13   30 1     
   31   14   15 1     
   32   14   31 1     
   33   15   16 1     
   34   15   32 1     
   35   15   33 1     
   36   16   17 1     
   37   16   34 1     
   38   16   35 1     
   39   17   38 1     
@<TRIPOS>SUBSTRUCTURE
      1 ****           1
@<TRIPOS>SET
DONOR_HYDROGENS      STATIC     ATOMS    <user>   **** ""
3 36 37 38
ATOM$RED        STATIC     ATOMS    COLORGROUP SYSTEM
3 36 37 38
@<TRIPOS>COMMENT
> <Gold.Version>
2022.2.0

> <Gold.Id.Protein>
1qkm|1qkm_protein|mol2

> <Gold.Protein.RotatedTorsions>
[  496  491  490  487 ] final  112.68 input  -89.99 | X-H torsion

> <Gold.Protein.ActiveResidues>
 MET295  LEU298  THR299  LEU301  ALA302  GLU305  TRP335  MET336  LEU339  MET340 
 GLY342  LEU343  ARG346  PHE356  ILE373  ILE376  PHE377  LEU380  LYS471  GLY472 
 MET473  HIS475  LEU476  LEU477  ASN478  MET479  VAL484  VAL487 

> <Gold.Protein.RotatedAtoms>
   37.0218   32.9401   41.7238 H   0  0  0  0  0  0  0  0  0  0  0  0  # atno 496  bound_to 491 

> <Gold.Score>
     Score     S(PLP)   S(hbond)     S(cho)   S(metal)  DE(clash)   DE(tors)     intcor
     54.39     -47.38       1.99       0.99       0.00       0.09       0.95       0.06

> <Gold.PLP.Fitness>
54.3874

> <Gold.PLP.PLP>
-47.3771

> <Gold.PLP.part.hbond>
-2.6625

> <Gold.PLP.part.metal>
0.0000

> <Gold.PLP.part.buried>
-2.1339

> <Gold.PLP.part.nonpolar>
-43.2999

> <Gold.PLP.part.repulsive>
0.0603

> <Gold.PLP.ligand.clash>
0.0909

> <Gold.PLP.ligand.torsion>
0.9533

> <Gold.PLP.Chemscore.Hbond>
1.9913

> <Gold.PLP.Chemscore.CHOScore>
0.9908

> <Gold.PLP.Chemscore.Metal>
0.0000

> <Gold.Chemscore.Hbonds>
donor molecule, donor type, donor heavy atom, donor atom, acceptor molecule, acceptor atom, score
      L1  H     1    36       P1   582  1.00
      L1  H    17    38       P1   470  0.99
      L1  C     8    22       P1   470  0.99

> <Gold.PLP.Chemscore.Internal.Correction>
0.0617

