#       Name:                EN300-43349_i004
#       Creating user name   aseyller
#       Creation time:       Fri Apr 21 14:35:42 2023


#       File generated by GOLD software.
#

@<TRIPOS>MOLECULE
EN300-43349_i004|amine_1|mol2|734|dock8
    38    39     1
SMALL
USER_CHARGES


@<TRIPOS>ATOM
      1 N1          33.2195  36.7458  34.0007 N.3            1 <1>                0.0000
      2 C2          32.3935  37.9546  34.1220 C.3            1 <1>                0.0000
      3 C3          31.4541  37.8059  35.2909 C.ar           1 <1>                0.0000
      4 C4          30.2725  38.5343  35.3384 C.ar           1 <1>                0.0000
      5 C5          29.4381  38.3682  36.4286 C.ar           1 <1>                0.0000
      6 C6          29.8084  37.4820  37.4354 C.ar           1 <1>                0.0000
      7 N7          30.9438  36.8058  37.3536 N.ar           1 <1>                0.0000
      8 C8          31.7564  36.9401  36.3225 C.ar           1 <1>                0.0000
      9 N9          28.9792  37.3053  38.5369 N.3            1 <1>                0.0000
     10 C10         27.6094  36.9822  38.1178 C.3            1 <1>                0.0000
     11 C11         26.6961  36.9384  39.3451 C.3            1 <1>                0.0000
     12 C12         27.2138  35.8800  40.3229 C.3            1 <1>                0.0000
     13 C13         28.6584  36.2132  40.7059 C.3            1 <1>                0.0000
     14 C14         29.5147  36.2780  39.4393 C.3            1 <1>                0.0000
     15 C15         29.4894  34.9190  38.7367 C.3            1 <1>                0.0000
     16 C16         30.7548  34.1367  39.0941 C.3            1 <1>                0.0000
     17 O17         31.8990  34.9739  38.9149 O.3            1 <1>                0.0000
     18 H18         33.0369  38.8200  34.2807 H              1 <1>                0.0000
     19 H19         31.8166  38.0936  33.2077 H              1 <1>                0.0000
     20 H20         30.0115  39.2154  34.5419 H              1 <1>                0.0000
     21 H21         28.5118  38.9192  36.4979 H              1 <1>                0.0000
     22 H22         32.6744  36.3721  36.2898 H              1 <1>                0.0000
     23 H23         27.2517  37.7449  37.4261 H              1 <1>                0.0000
     24 H24         27.6004  36.0108  37.6236 H              1 <1>                0.0000
     25 H25         26.6939  37.9136  39.8321 H              1 <1>                0.0000
     26 H26         25.6826  36.6833  39.0356 H              1 <1>                0.0000
     27 H27         26.5915  35.8755  41.2178 H              1 <1>                0.0000
     28 H28         27.1795  34.8988  39.8494 H              1 <1>                0.0000
     29 H29         28.6870  37.1770  41.2143 H              1 <1>                0.0000
     30 H30         29.0468  35.4398  41.3686 H              1 <1>                0.0000
     31 H31         30.5410  36.5291  39.7071 H              1 <1>                0.0000
     32 H32         28.6123  34.3588  39.0605 H              1 <1>                0.0000
     33 H33         29.4472  35.0685  37.6578 H              1 <1>                0.0000
     34 H34         30.7006  33.8132  40.1336 H              1 <1>                0.0000
     35 H35         30.8379  33.2644  38.4459 H              1 <1>                0.0000
     36 H36         33.5915  36.4708  34.8974 H              1 <1>                0.0000
     37 H37         32.6977  35.9921  33.5790 H              1 <1>                0.0000
     38 H38         31.7456  35.9024  39.1368 H              1 <1>                0.0000
@<TRIPOS>BOND
    1    1    2 1     
    2    1   36 1     
    3    1   37 1     
    4    2    3 1     
    5    2   18 1     
    6    2   19 1     
    7    3    4 ar    
    8    3    8 ar    
    9    4    5 ar    
   10    4   20 1     
   11    5    6 ar    
   12    5   21 1     
   13    6    7 ar    
   14    6    9 1     
   15    7    8 ar    
   16    8   22 1     
   17    9   10 1     
   18    9   14 1     
   19   10   11 1     
   20   10   23 1     
   21   10   24 1     
   22   11   12 1     
   23   11   25 1     
   24   11   26 1     
   25   12   13 1     
   26   12   27 1     
   27   12   28 1     
   28   13   14 1     
   29   13   29 1     
   30   13   30 1     
   31   14   15 1     
   32   14   31 1     
   33   15   16 1     
   34   15   32 1     
   35   15   33 1     
   36   16   17 1     
   37   16   34 1     
   38   16   35 1     
   39   17   38 1     
@<TRIPOS>SUBSTRUCTURE
      1 ****           1
@<TRIPOS>SET
DONOR_HYDROGENS      STATIC     ATOMS    <user>   **** ""
3 36 37 38
ATOM$RED        STATIC     ATOMS    COLORGROUP SYSTEM
3 36 37 38
@<TRIPOS>COMMENT
> <Gold.Version>
2022.2.0

> <Gold.Id.Protein>
1qkm|1qkm_protein|mol2

> <Gold.Protein.RotatedTorsions>
[  496  491  490  487 ] final  -49.48 input  -89.99 | X-H torsion

> <Gold.Protein.ActiveResidues>
 MET295  LEU298  THR299  LEU301  ALA302  GLU305  TRP335  MET336  LEU339  MET340 
 GLY342  LEU343  ARG346  PHE356  ILE373  ILE376  PHE377  LEU380  LYS471  GLY472 
 MET473  HIS475  LEU476  LEU477  ASN478  MET479  VAL484  VAL487 

> <Gold.Protein.RotatedAtoms>
   36.4211   34.7020   41.6372 H   0  0  0  0  0  0  0  0  0  0  0  0  # atno 496  bound_to 491 

> <Gold.Score>
     Score     S(PLP)   S(hbond)     S(cho)   S(metal)  DE(clash)   DE(tors)     intcor
     55.02     -53.87       1.00       0.00       0.00       0.00       0.97       0.10

> <Gold.PLP.Fitness>
55.0236

> <Gold.PLP.PLP>
-53.8740

> <Gold.PLP.part.hbond>
-2.9229

> <Gold.PLP.part.metal>
0.0000

> <Gold.PLP.part.buried>
-5.3639

> <Gold.PLP.part.nonpolar>
-46.4547

> <Gold.PLP.part.repulsive>
0.0000

> <Gold.PLP.ligand.clash>
0.0000

> <Gold.PLP.ligand.torsion>
0.9748

> <Gold.PLP.Chemscore.Hbond>
1.0000

> <Gold.PLP.Chemscore.CHOScore>
0.0000

> <Gold.PLP.Chemscore.Metal>
0.0000

> <Gold.Chemscore.Hbonds>
donor molecule, donor type, donor heavy atom, donor atom, acceptor molecule, acceptor atom, score
      L1  H     1    37       P1  3187  1.00

> <Gold.PLP.Chemscore.Internal.Correction>
0.0991

