#       Name:                EN300-43349_i004
#       Creating user name   aseyller
#       Creation time:       Fri Apr 21 14:35:51 2023


#       File generated by GOLD software.
#

@<TRIPOS>MOLECULE
EN300-43349_i004|amine_1|mol2|734|dock14
    38    39     1
SMALL
USER_CHARGES


@<TRIPOS>ATOM
      1 N1          25.8743  36.9644  42.5826 N.3            1 <1>                0.0000
      2 C2          25.5160  36.2410  41.3553 C.3            1 <1>                0.0000
      3 C3          26.4890  36.5961  40.2607 C.ar           1 <1>                0.0000
      4 C4          26.0443  36.7722  38.9568 C.ar           1 <1>                0.0000
      5 C5          26.9698  37.0980  37.9821 C.ar           1 <1>                0.0000
      6 C6          28.3074  37.2375  38.3388 C.ar           1 <1>                0.0000
      7 N7          28.6921  37.0611  39.5933 N.ar           1 <1>                0.0000
      8 C8          27.8303  36.7554  40.5449 C.ar           1 <1>                0.0000
      9 N9          29.2483  37.5647  37.3694 N.3            1 <1>                0.0000
     10 C10         29.9891  38.7764  37.7429 C.3            1 <1>                0.0000
     11 C11         30.9097  39.1881  36.5918 C.3            1 <1>                0.0000
     12 C12         31.8828  38.0453  36.2892 C.3            1 <1>                0.0000
     13 C13         31.0855  36.7828  35.9503 C.3            1 <1>                0.0000
     14 C14         30.1598  36.4408  37.1200 C.3            1 <1>                0.0000
     15 C15         30.9975  36.1762  38.3726 C.3            1 <1>                0.0000
     16 C16         31.8031  34.8890  38.1849 C.3            1 <1>                0.0000
     17 O17         31.5881  34.0253  39.3029 O.3            1 <1>                0.0000
     18 H18         25.5546  35.1677  41.5416 H              1 <1>                0.0000
     19 H19         24.5077  36.5208  41.0500 H              1 <1>                0.0000
     20 H20         24.9994  36.6569  38.7095 H              1 <1>                0.0000
     21 H21         26.6586  37.2417  36.9580 H              1 <1>                0.0000
     22 H22         28.1804  36.6189  41.5574 H              1 <1>                0.0000
     23 H23         29.2857  39.5825  37.9514 H              1 <1>                0.0000
     24 H24         30.5867  38.5769  38.6324 H              1 <1>                0.0000
     25 H25         30.3116  39.4011  35.7058 H              1 <1>                0.0000
     26 H26         31.4710  40.0785  36.8753 H              1 <1>                0.0000
     27 H27         32.5118  38.3173  35.4415 H              1 <1>                0.0000
     28 H28         32.5077  37.8581  37.1623 H              1 <1>                0.0000
     29 H29         30.4901  36.9579  35.0542 H              1 <1>                0.0000
     30 H30         31.7723  35.9546  35.7756 H              1 <1>                0.0000
     31 H31         29.5802  35.5504  36.8761 H              1 <1>                0.0000
     32 H32         31.6792  37.0107  38.5368 H              1 <1>                0.0000
     33 H33         30.3387  36.0702  39.2346 H              1 <1>                0.0000
     34 H34         31.4806  34.3885  37.2718 H              1 <1>                0.0000
     35 H35         32.8632  35.1313  38.1115 H              1 <1>                0.0000
     36 H36         25.2748  37.7645  42.7188 H              1 <1>                0.0000
     37 H37         25.8477  36.3519  43.3841 H              1 <1>                0.0000
     38 H38         31.5789  34.4807  40.1558 H              1 <1>                0.0000
@<TRIPOS>BOND
    1    1    2 1     
    2    1   36 1     
    3    1   37 1     
    4    2    3 1     
    5    2   18 1     
    6    2   19 1     
    7    3    4 ar    
    8    3    8 ar    
    9    4    5 ar    
   10    4   20 1     
   11    5    6 ar    
   12    5   21 1     
   13    6    7 ar    
   14    6    9 1     
   15    7    8 ar    
   16    8   22 1     
   17    9   10 1     
   18    9   14 1     
   19   10   11 1     
   20   10   23 1     
   21   10   24 1     
   22   11   12 1     
   23   11   25 1     
   24   11   26 1     
   25   12   13 1     
   26   12   27 1     
   27   12   28 1     
   28   13   14 1     
   29   13   29 1     
   30   13   30 1     
   31   14   15 1     
   32   14   31 1     
   33   15   16 1     
   34   15   32 1     
   35   15   33 1     
   36   16   17 1     
   37   16   34 1     
   38   16   35 1     
   39   17   38 1     
@<TRIPOS>SUBSTRUCTURE
      1 ****           1
@<TRIPOS>SET
DONOR_HYDROGENS      STATIC     ATOMS    <user>   **** ""
3 36 37 38
ATOM$RED        STATIC     ATOMS    COLORGROUP SYSTEM
3 36 37 38
@<TRIPOS>COMMENT
> <Gold.Version>
2022.2.0

> <Gold.Id.Protein>
1qkm|1qkm_protein|mol2

> <Gold.Protein.RotatedTorsions>
[  496  491  490  487 ] final   77.65 input  -89.99 | X-H torsion

> <Gold.Protein.ActiveResidues>
 MET295  LEU298  THR299  LEU301  ALA302  GLU305  TRP335  MET336  LEU339  MET340 
 GLY342  LEU343  ARG346  PHE356  ILE373  ILE376  PHE377  LEU380  LYS471  GLY472 
 MET473  HIS475  LEU476  LEU477  ASN478  MET479  VAL484  VAL487 

> <Gold.Protein.RotatedAtoms>
   36.7064   33.1212   42.1596 H   0  0  0  0  0  0  0  0  0  0  0  0  # atno 496  bound_to 491 

> <Gold.Score>
     Score     S(PLP)   S(hbond)     S(cho)   S(metal)  DE(clash)   DE(tors)     intcor
     52.06     -48.10       1.82       0.00       0.00       0.00       0.77       0.06

> <Gold.PLP.Fitness>
52.0623

> <Gold.PLP.PLP>
-48.0993

> <Gold.PLP.part.hbond>
-3.0000

> <Gold.PLP.part.metal>
0.0000

> <Gold.PLP.part.buried>
-1.5794

> <Gold.PLP.part.nonpolar>
-44.0781

> <Gold.PLP.part.repulsive>
0.0273

> <Gold.PLP.ligand.clash>
0.0000

> <Gold.PLP.ligand.torsion>
0.7734

> <Gold.PLP.Chemscore.Hbond>
1.8160

> <Gold.PLP.Chemscore.CHOScore>
0.0000

> <Gold.PLP.Chemscore.Metal>
0.0000

> <Gold.Chemscore.Hbonds>
donor molecule, donor type, donor heavy atom, donor atom, acceptor molecule, acceptor atom, score
      L1  H     1    37       P1   582  0.82
      L1  H    17    38       P1   470  1.00

> <Gold.PLP.Chemscore.Internal.Correction>
0.0617

