#       Name:                plp ligand
#       Creating user name   aseyller
#       Creation time:       Fri Apr 21 14:35:31 2023


#       File generated by GOLD software.
#

@<TRIPOS>MOLECULE
plp ligand
    38    39     1
SMALL
USER_CHARGES


@<TRIPOS>ATOM
      1 N1          -5.4830  -0.3936  -0.7420 DONACC         1 <1>                0.0000
      2 C2          -4.6833  -0.6244   0.4685 NONPOLAR       1 <1>                0.0000
      3 C3          -3.2754  -0.1378   0.2408 NONPOLAR       1 <1>                0.0000
      4 C4          -2.9281   1.1721   0.5450 NONPOLAR       1 <1>                0.0000
      5 C5          -1.6252   1.5784   0.3215 NONPOLAR       1 <1>                0.0000
      6 C6          -0.7116   0.6664  -0.1976 NONPOLAR       1 <1>                0.0000
      7 N7          -1.0817  -0.5742  -0.4751 ACCEPTOR       1 <1>                0.0000
      8 C8          -2.3164  -0.9910  -0.2667 NONPOLAR       1 <1>                0.0000
      9 N9           0.6012   1.0612  -0.4272 ACCEPTOR       1 <1>                0.0000
     10 C10          1.1675   1.7194   0.7571 NONPOLAR       1 <1>                0.0000
     11 C11          2.5563   2.2681   0.4221 NONPOLAR       1 <1>                0.0000
     12 C12          3.4603   1.1164  -0.0261 NONPOLAR       1 <1>                0.0000
     13 C13          2.8239   0.4175  -1.2307 NONPOLAR       1 <1>                0.0000
     14 C14          1.4274  -0.0776  -0.8478 NONPOLAR       1 <1>                0.0000
     15 C15          1.5394  -1.0789   0.3036 NONPOLAR       1 <1>                0.0000
     16 C16          2.2750  -2.3307  -0.1790 NONPOLAR       1 <1>                0.0000
     17 O17          2.2755  -3.3128   0.8591 DONACC         1 <1>                0.0000
     18 H18         -5.1246  -0.0817   1.3045                1 <1>                0.0000
     19 H19         -4.6671  -1.6904   0.6954                1 <1>                0.0000
     20 H20         -3.6592   1.8580   0.9467                1 <1>                0.0000
     21 H21         -1.3211   2.5900   0.5464                1 <1>                0.0000
     22 H22         -2.5823  -2.0102  -0.5051                1 <1>                0.0000
     23 H23          0.5173   2.5390   1.0629                1 <1>                0.0000
     24 H24          1.2485   0.9976   1.5698                1 <1>                0.0000
     25 H25          2.4743   3.0002  -0.3813                1 <1>                0.0000
     26 H26          2.9829   2.7429   1.3057                1 <1>                0.0000
     27 H27          4.4377   1.5087  -0.3071                1 <1>                0.0000
     28 H28          3.5740   0.4035   0.7905                1 <1>                0.0000
     29 H29          2.7461   1.1205  -2.0601                1 <1>                0.0000
     30 H30          3.4416  -0.4300  -1.5279                1 <1>                0.0000
     31 H31          0.9658  -0.5632  -1.7076                1 <1>                0.0000
     32 H32          2.0933  -0.6264   1.1261                1 <1>                0.0000
     33 H33          0.5412  -1.3530   0.6451                1 <1>                0.0000
     34 H34          1.7711  -2.7319  -1.0584                1 <1>                0.0000
     35 H35          3.3024  -2.0723  -0.4352                1 <1>                0.0000
     36 H36         -5.0588  -0.8336  -1.5448                1 <1>                0.0000
     37 H37         -6.4320  -0.7118  -0.6145                1 <1>                0.0000
     38 H38          2.7260  -4.1350   0.6225                1 <1>                0.0000
@<TRIPOS>BOND
    1    1    2 1     
    2    1   36 1     
    3    1   37 1     
    4    2    3 1     
    5    2   18 1     
    6    2   19 1     
    7    3    4 ar    
    8    3    8 ar    
    9    4    5 ar    
   10    4   20 1     
   11    5    6 ar    
   12    5   21 1     
   13    6    7 ar    
   14    6    9 1     
   15    7    8 ar    
   16    8   22 1     
   17    9   10 1     
   18    9   14 1     
   19   10   11 1     
   20   10   23 1     
   21   10   24 1     
   22   11   12 1     
   23   11   25 1     
   24   11   26 1     
   25   12   13 1     
   26   12   27 1     
   27   12   28 1     
   28   13   14 1     
   29   13   29 1     
   30   13   30 1     
   31   14   15 1     
   32   14   31 1     
   33   15   16 1     
   34   15   32 1     
   35   15   33 1     
   36   16   17 1     
   37   16   34 1     
   38   16   35 1     
   39   17   38 1     
@<TRIPOS>SUBSTRUCTURE
      1 ****           1
@<TRIPOS>SET
DONOR_HYDROGENS      STATIC     ATOMS    <user>   **** ""
3 36 37 38
ATOM$RED        STATIC     ATOMS    COLORGROUP SYSTEM
3 36 37 38
