#       Name:                EN300-153159_i001
#       Creating user name   aseyller
#       Creation time:       Fri Apr 21 16:46:28 2023


#       File generated by GOLD software.
#

@<TRIPOS>MOLECULE
EN300-153159_i001|aminophenols|mol2|120|dock2
    27    27     1
SMALL
USER_CHARGES


@<TRIPOS>ATOM
      1 C1          28.6571  37.7760  36.4878 C.3            1 <1>                0.0000
      2 C2          29.3410  37.3390  37.7849 C.3            1 <1>                0.0000
      3 C3          30.2613  36.1501  37.5007 C.3            1 <1>                0.0000
      4 C4          30.1660  38.5005  38.3428 C.3            1 <1>                0.0000
      5 C5          28.2959  36.9355  38.7927 C.ar           1 <1>                0.0000
      6 C6          26.9536  37.0931  38.4976 C.ar           1 <1>                0.0000
      7 C7          25.9917  36.7239  39.4188 C.ar           1 <1>                0.0000
      8 C8          26.3662  36.1952  40.6402 C.ar           1 <1>                0.0000
      9 C9          27.7100  36.0344  40.9430 C.ar           1 <1>                0.0000
     10 N10         28.0916  35.4995  42.1789 N.pl3          1 <1>                0.0000
     11 C11         28.6791  36.4019  40.0115 C.ar           1 <1>                0.0000
     12 O12         29.9985  36.2465  40.3030 O.3            1 <1>                0.0000
     13 H13         28.0695  36.9484  36.0903 H              1 <1>                0.0000
     14 H14         28.0016  38.6229  36.6902 H              1 <1>                0.0000
     15 H15         29.4132  38.0677  35.7589 H              1 <1>                0.0000
     16 H16         31.0173  36.4419  36.7718 H              1 <1>                0.0000
     17 H17         30.7485  35.8388  38.4248 H              1 <1>                0.0000
     18 H18         29.6736  35.3227  37.1032 H              1 <1>                0.0000
     19 H19         29.5104  39.3475  38.5453 H              1 <1>                0.0000
     20 H20         30.6532  38.1892  39.2668 H              1 <1>                0.0000
     21 H21         30.9220  38.7923  37.6138 H              1 <1>                0.0000
     22 H22         26.6565  37.5059  37.5448 H              1 <1>                0.0000
     23 H23         24.9449  36.8491  39.1842 H              1 <1>                0.0000
     24 H24         25.6124  35.9080  41.3584 H              1 <1>                0.0000
     25 H25         27.4159  35.2408  42.8249 H              1 <1>                0.0000
     26 H26         29.0319  35.3875  42.3892 H              1 <1>                0.0000
     27 H27         30.1656  35.7615  41.1227 H              1 <1>                0.0000
@<TRIPOS>BOND
    1    1    2 1     
    2    1   13 1     
    3    1   14 1     
    4    1   15 1     
    5    2    3 1     
    6    2    4 1     
    7    2    5 1     
    8    3   16 1     
    9    3   17 1     
   10    3   18 1     
   11    4   19 1     
   12    4   20 1     
   13    4   21 1     
   14    5    6 ar    
   15    5   11 ar    
   16    6    7 ar    
   17    6   22 1     
   18    7    8 ar    
   19    7   23 1     
   20    8    9 ar    
   21    8   24 1     
   22    9   10 1     
   23    9   11 ar    
   24   10   25 1     
   25   10   26 1     
   26   11   12 1     
   27   12   27 1     
@<TRIPOS>SUBSTRUCTURE
      1 ****           1
@<TRIPOS>SET
DONOR_HYDROGENS      STATIC     ATOMS    <user>   **** ""
3 25 26 27
ATOM$RED        STATIC     ATOMS    COLORGROUP SYSTEM
3 25 26 27
@<TRIPOS>COMMENT
> <Gold.Version>
2022.2.0

> <Gold.Id.Protein>
1qkm|1qkm_protein|mol2

> <Gold.Protein.RotatedTorsions>
[  496  491  490  487 ] final -129.48 input  -89.99 | X-H torsion

> <Gold.Protein.ActiveResidues>
 MET295  LEU298  THR299  LEU301  ALA302  GLU305  TRP335  MET336  LEU339  MET340 
 GLY342  LEU343  ARG346  PHE356  ILE373  ILE376  PHE377  LEU380  LYS471  GLY472 
 MET473  HIS475  LEU476  LEU477  ASN478  MET479  VAL484  VAL487 

> <Gold.Protein.RotatedAtoms>
   37.1009   34.2282   40.7520 H   0  0  0  0  0  0  0  0  0  0  0  0  # atno 496  bound_to 491 

> <Gold.Score>
     Score     S(PLP)   S(hbond)     S(cho)   S(metal)  DE(clash)   DE(tors)     intcor
     41.20     -36.11       1.70       0.00       0.00       7.23       0.07       7.36

> <Gold.PLP.Fitness>
41.2026

> <Gold.PLP.PLP>
-36.1106

> <Gold.PLP.part.hbond>
-2.0000

> <Gold.PLP.part.metal>
0.0000

> <Gold.PLP.part.buried>
-3.4173

> <Gold.PLP.part.nonpolar>
-31.3885

> <Gold.PLP.part.repulsive>
0.0856

> <Gold.PLP.ligand.clash>
7.2343

> <Gold.PLP.ligand.torsion>
0.0707

> <Gold.PLP.Chemscore.Hbond>
1.7040

> <Gold.PLP.Chemscore.CHOScore>
0.0000

> <Gold.PLP.Chemscore.Metal>
0.0000

> <Gold.Chemscore.Hbonds>
donor molecule, donor type, donor heavy atom, donor atom, acceptor molecule, acceptor atom, score
      L1  H    10    25       P1   582  1.00
      L1  H    12    27       P1   470  0.70

> <Gold.PLP.Chemscore.Internal.Correction>
7.3558

