#       Name:                EN300-153159_i001
#       Creating user name   aseyller
#       Creation time:       Fri Apr 21 16:46:35 2023


#       File generated by GOLD software.
#

@<TRIPOS>MOLECULE
EN300-153159_i001|aminophenols|mol2|120|dock16
    27    27     1
SMALL
USER_CHARGES


@<TRIPOS>ATOM
      1 C1          26.7465  35.3104  38.7031 C.3            1 <1>                0.0000
      2 C2          27.0953  36.7206  39.1835 C.3            1 <1>                0.0000
      3 C3          25.9128  37.6557  38.9215 C.3            1 <1>                0.0000
      4 C4          27.3975  36.6884  40.6831 C.3            1 <1>                0.0000
      5 C5          28.3057  37.2203  38.4378 C.ar           1 <1>                0.0000
      6 C6          28.1956  38.3090  37.5915 C.ar           1 <1>                0.0000
      7 C7          29.3033  38.7709  36.9059 C.ar           1 <1>                0.0000
      8 C8          30.5272  38.1470  37.0626 C.ar           1 <1>                0.0000
      9 C9          30.6450  37.0550  37.9093 C.ar           1 <1>                0.0000
     10 N10         31.8829  36.4216  38.0694 N.pl3          1 <1>                0.0000
     11 C11         29.5288  36.5932  38.6042 C.ar           1 <1>                0.0000
     12 O12         29.6385  35.5227  39.4360 O.3            1 <1>                0.0000
     13 H13         26.5312  35.3334  37.6348 H              1 <1>                0.0000
     14 H14         27.5887  34.6443  38.8898 H              1 <1>                0.0000
     15 H15         25.8709  34.9491  39.2425 H              1 <1>                0.0000
     16 H16         25.0373  37.2942  39.4608 H              1 <1>                0.0000
     17 H17         26.1614  38.6603  39.2637 H              1 <1>                0.0000
     18 H18         25.6976  37.6786  37.8533 H              1 <1>                0.0000
     19 H19         28.2397  36.0223  40.8698 H              1 <1>                0.0000
     20 H20         27.6459  37.6930  41.0253 H              1 <1>                0.0000
     21 H21         26.5219  36.3269  41.2224 H              1 <1>                0.0000
     22 H22         27.2415  38.7992  37.4659 H              1 <1>                0.0000
     23 H23         29.2126  39.6209  36.2460 H              1 <1>                0.0000
     24 H24         31.3911  38.5097  36.5253 H              1 <1>                0.0000
     25 H25         32.6597  36.7463  37.5879 H              1 <1>                0.0000
     26 H26         31.9638  35.6580  38.6621 H              1 <1>                0.0000
     27 H27         29.6931  34.6727  38.9780 H              1 <1>                0.0000
@<TRIPOS>BOND
    1    1    2 1     
    2    1   13 1     
    3    1   14 1     
    4    1   15 1     
    5    2    3 1     
    6    2    4 1     
    7    2    5 1     
    8    3   16 1     
    9    3   17 1     
   10    3   18 1     
   11    4   19 1     
   12    4   20 1     
   13    4   21 1     
   14    5    6 ar    
   15    5   11 ar    
   16    6    7 ar    
   17    6   22 1     
   18    7    8 ar    
   19    7   23 1     
   20    8    9 ar    
   21    8   24 1     
   22    9   10 1     
   23    9   11 ar    
   24   10   25 1     
   25   10   26 1     
   26   11   12 1     
   27   12   27 1     
@<TRIPOS>SUBSTRUCTURE
      1 ****           1
@<TRIPOS>SET
DONOR_HYDROGENS      STATIC     ATOMS    <user>   **** ""
3 25 26 27
ATOM$RED        STATIC     ATOMS    COLORGROUP SYSTEM
3 25 26 27
@<TRIPOS>COMMENT
> <Gold.Version>
2022.2.0

> <Gold.Id.Protein>
1qkm|1qkm_protein|mol2

> <Gold.Protein.RotatedTorsions>
[  496  491  490  487 ] final    5.01 input  -89.99 | X-H torsion

> <Gold.Protein.ActiveResidues>
 MET295  LEU298  THR299  LEU301  ALA302  GLU305  TRP335  MET336  LEU339  MET340 
 GLY342  LEU343  ARG346  PHE356  ILE373  ILE376  PHE377  LEU380  LYS471  GLY472 
 MET473  HIS475  LEU476  LEU477  ASN478  MET479  VAL484  VAL487 

> <Gold.Protein.RotatedAtoms>
   36.2645   34.1410   42.2747 H   0  0  0  0  0  0  0  0  0  0  0  0  # atno 496  bound_to 491 

> <Gold.Score>
     Score     S(PLP)   S(hbond)     S(cho)   S(metal)  DE(clash)   DE(tors)     intcor
     35.33     -35.35       0.00       0.00       0.00       7.24       0.07       7.36

> <Gold.PLP.Fitness>
35.3304

> <Gold.PLP.PLP>
-35.3548

> <Gold.PLP.part.hbond>
0.0000

> <Gold.PLP.part.metal>
0.0000

> <Gold.PLP.part.buried>
-2.3949

> <Gold.PLP.part.nonpolar>
-32.8747

> <Gold.PLP.part.repulsive>
0.0297

> <Gold.PLP.ligand.clash>
7.2383

> <Gold.PLP.ligand.torsion>
0.0707

> <Gold.PLP.Chemscore.Hbond>
0.0000

> <Gold.PLP.Chemscore.CHOScore>
0.0000

> <Gold.PLP.Chemscore.Metal>
0.0000

> <Gold.PLP.Chemscore.Internal.Correction>
7.3554

