#       Name:                EN300-153159_i001
#       Creating user name   aseyller
#       Creation time:       Fri Apr 21 16:46:30 2023


#       File generated by GOLD software.
#

@<TRIPOS>MOLECULE
EN300-153159_i001|aminophenols|mol2|120|dock7
    27    27     1
SMALL
USER_CHARGES


@<TRIPOS>ATOM
      1 C1          30.6703  37.4248  35.0510 C.3            1 <1>                0.0000
      2 C2          31.9598  37.1934  35.8413 C.3            1 <1>                0.0000
      3 C3          33.0503  36.6798  34.8989 C.3            1 <1>                0.0000
      4 C4          32.4126  38.5101  36.4756 C.3            1 <1>                0.0000
      5 C5          31.7100  36.1745  36.9231 C.ar           1 <1>                0.0000
      6 C6          32.3534  34.9506  36.8821 C.ar           1 <1>                0.0000
      7 C7          32.1276  34.0133  37.8724 C.ar           1 <1>                0.0000
      8 C8          31.2572  34.2943  38.9093 C.ar           1 <1>                0.0000
      9 C9          30.6085  35.5192  38.9570 C.ar           1 <1>                0.0000
     10 N10         29.7269  35.8059  40.0056 N.pl3          1 <1>                0.0000
     11 C11         30.8409  36.4657  37.9608 C.ar           1 <1>                0.0000
     12 O12         30.2076  37.6686  38.0025 O.3            1 <1>                0.0000
     13 H13         30.3478  36.4868  34.5991 H              1 <1>                0.0000
     14 H14         29.8935  37.7908  35.7223 H              1 <1>                0.0000
     15 H15         30.8511  38.1618  34.2685 H              1 <1>                0.0000
     16 H16         33.2310  37.4167  34.1164 H              1 <1>                0.0000
     17 H17         33.9690  36.5148  35.4620 H              1 <1>                0.0000
     18 H18         32.7278  35.7418  34.4471 H              1 <1>                0.0000
     19 H19         31.6357  38.8760  37.1469 H              1 <1>                0.0000
     20 H20         33.3312  38.3452  37.0386 H              1 <1>                0.0000
     21 H21         32.5932  39.2471  35.6930 H              1 <1>                0.0000
     22 H22         33.0339  34.7267  36.0738 H              1 <1>                0.0000
     23 H23         32.6318  33.0590  37.8361 H              1 <1>                0.0000
     24 H24         31.0821  33.5599  39.6817 H              1 <1>                0.0000
     25 H25         29.5688  35.1476  40.7001 H              1 <1>                0.0000
     26 H26         29.2739  36.6631  40.0376 H              1 <1>                0.0000
     27 H27         30.5445  38.3127  37.3647 H              1 <1>                0.0000
@<TRIPOS>BOND
    1    1    2 1     
    2    1   13 1     
    3    1   14 1     
    4    1   15 1     
    5    2    3 1     
    6    2    4 1     
    7    2    5 1     
    8    3   16 1     
    9    3   17 1     
   10    3   18 1     
   11    4   19 1     
   12    4   20 1     
   13    4   21 1     
   14    5    6 ar    
   15    5   11 ar    
   16    6    7 ar    
   17    6   22 1     
   18    7    8 ar    
   19    7   23 1     
   20    8    9 ar    
   21    8   24 1     
   22    9   10 1     
   23    9   11 ar    
   24   10   25 1     
   25   10   26 1     
   26   11   12 1     
   27   12   27 1     
@<TRIPOS>SUBSTRUCTURE
      1 ****           1
@<TRIPOS>SET
DONOR_HYDROGENS      STATIC     ATOMS    <user>   **** ""
3 25 26 27
ATOM$RED        STATIC     ATOMS    COLORGROUP SYSTEM
3 25 26 27
@<TRIPOS>COMMENT
> <Gold.Version>
2022.2.0

> <Gold.Id.Protein>
1qkm|1qkm_protein|mol2

> <Gold.Protein.RotatedTorsions>
[  496  491  490  487 ] final -136.59 input  -89.99 | X-H torsion

> <Gold.Protein.ActiveResidues>
 MET295  LEU298  THR299  LEU301  ALA302  GLU305  TRP335  MET336  LEU339  MET340 
 GLY342  LEU343  ARG346  PHE356  ILE373  ILE376  PHE377  LEU380  LYS471  GLY472 
 MET473  HIS475  LEU476  LEU477  ASN478  MET479  VAL484  VAL487 

> <Gold.Protein.RotatedAtoms>
   37.1515   34.1250   40.7299 H   0  0  0  0  0  0  0  0  0  0  0  0  # atno 496  bound_to 491 

> <Gold.Score>
     Score     S(PLP)   S(hbond)     S(cho)   S(metal)  DE(clash)   DE(tors)     intcor
     38.93     -38.94       0.00       0.00       0.00       7.21       0.08       7.36

> <Gold.PLP.Fitness>
38.9280

> <Gold.PLP.PLP>
-38.9366

> <Gold.PLP.part.hbond>
-1.0000

> <Gold.PLP.part.metal>
0.0000

> <Gold.PLP.part.buried>
-3.2825

> <Gold.PLP.part.nonpolar>
-34.9505

> <Gold.PLP.part.repulsive>
0.0444

> <Gold.PLP.ligand.clash>
7.2052

> <Gold.PLP.ligand.torsion>
0.0795

> <Gold.PLP.Chemscore.Hbond>
0.0000

> <Gold.PLP.Chemscore.CHOScore>
0.0000

> <Gold.PLP.Chemscore.Metal>
0.0000

> <Gold.PLP.Chemscore.Internal.Correction>
7.3558

