#       Name:                EN300-153159_i001
#       Creating user name   aseyller
#       Creation time:       Fri Apr 21 16:46:29 2023


#       File generated by GOLD software.
#

@<TRIPOS>MOLECULE
EN300-153159_i001|aminophenols|mol2|120|dock4
    27    27     1
SMALL
USER_CHARGES


@<TRIPOS>ATOM
      1 C1          32.5033  37.1281  35.5312 C.3            1 <1>                0.0000
      2 C2          32.4215  36.2988  36.8144 C.3            1 <1>                0.0000
      3 C3          32.3951  34.8108  36.4591 C.3            1 <1>                0.0000
      4 C4          33.6413  36.5924  37.6901 C.3            1 <1>                0.0000
      5 C5          31.1656  36.6582  37.5656 C.ar           1 <1>                0.0000
      6 C6          30.3092  37.6201  37.0607 C.ar           1 <1>                0.0000
      7 C7          29.1561  37.9525  37.7462 C.ar           1 <1>                0.0000
      8 C8          28.8526  37.3252  38.9404 C.ar           1 <1>                0.0000
      9 C9          29.7064  36.3599  39.4527 C.ar           1 <1>                0.0000
     10 N10         29.4014  35.7236  40.6615 N.pl3          1 <1>                0.0000
     11 C11         30.8662  36.0216  38.7582 C.ar           1 <1>                0.0000
     12 O12         31.7074  35.0757  39.2559 O.3            1 <1>                0.0000
     13 H13         31.6343  36.9188  34.9073 H              1 <1>                0.0000
     14 H14         32.5222  38.1881  35.7842 H              1 <1>                0.0000
     15 H15         33.4117  36.8680  34.9878 H              1 <1>                0.0000
     16 H16         33.3034  34.5507  35.9157 H              1 <1>                0.0000
     17 H17         32.3367  34.2200  37.3733 H              1 <1>                0.0000
     18 H18         31.5261  34.6016  35.8353 H              1 <1>                0.0000
     19 H19         33.6602  37.6525  37.9431 H              1 <1>                0.0000
     20 H20         33.5830  36.0016  38.6042 H              1 <1>                0.0000
     21 H21         34.5497  36.3324  37.1466 H              1 <1>                0.0000
     22 H22         30.5425  38.1129  36.1284 H              1 <1>                0.0000
     23 H23         28.4906  38.7044  37.3484 H              1 <1>                0.0000
     24 H24         27.9510  37.5872  39.4743 H              1 <1>                0.0000
     25 H25         28.5920  35.9575  41.1420 H              1 <1>                0.0000
     26 H26         29.9996  35.0486  41.0186 H              1 <1>                0.0000
     27 H27         31.5226  34.8280  40.1722 H              1 <1>                0.0000
@<TRIPOS>BOND
    1    1    2 1     
    2    1   13 1     
    3    1   14 1     
    4    1   15 1     
    5    2    3 1     
    6    2    4 1     
    7    2    5 1     
    8    3   16 1     
    9    3   17 1     
   10    3   18 1     
   11    4   19 1     
   12    4   20 1     
   13    4   21 1     
   14    5    6 ar    
   15    5   11 ar    
   16    6    7 ar    
   17    6   22 1     
   18    7    8 ar    
   19    7   23 1     
   20    8    9 ar    
   21    8   24 1     
   22    9   10 1     
   23    9   11 ar    
   24   10   25 1     
   25   10   26 1     
   26   11   12 1     
   27   12   27 1     
@<TRIPOS>SUBSTRUCTURE
      1 ****           1
@<TRIPOS>SET
DONOR_HYDROGENS      STATIC     ATOMS    <user>   **** ""
3 25 26 27
ATOM$RED        STATIC     ATOMS    COLORGROUP SYSTEM
3 25 26 27
@<TRIPOS>COMMENT
> <Gold.Version>
2022.2.0

> <Gold.Id.Protein>
1qkm|1qkm_protein|mol2

> <Gold.Protein.RotatedTorsions>
[  496  491  490  487 ] final  134.30 input  -89.99 | X-H torsion

> <Gold.Protein.ActiveResidues>
 MET295  LEU298  THR299  LEU301  ALA302  GLU305  TRP335  MET336  LEU339  MET340 
 GLY342  LEU343  ARG346  PHE356  ILE373  ILE376  PHE377  LEU380  LYS471  GLY472 
 MET473  HIS475  LEU476  LEU477  ASN478  MET479  VAL484  VAL487 

> <Gold.Protein.RotatedAtoms>
   37.1808   32.9913   41.4119 H   0  0  0  0  0  0  0  0  0  0  0  0  # atno 496  bound_to 491 

> <Gold.Score>
     Score     S(PLP)   S(hbond)     S(cho)   S(metal)  DE(clash)   DE(tors)     intcor
     38.42     -34.21       1.44       0.00       0.00       7.45       0.00       7.36

> <Gold.PLP.Fitness>
38.4225

> <Gold.PLP.PLP>
-34.2081

> <Gold.PLP.part.hbond>
-2.0000

> <Gold.PLP.part.metal>
0.0000

> <Gold.PLP.part.buried>
-1.4729

> <Gold.PLP.part.nonpolar>
-30.4154

> <Gold.PLP.part.repulsive>
0.0662

> <Gold.PLP.ligand.clash>
7.4516

> <Gold.PLP.ligand.torsion>
0.0010

> <Gold.PLP.Chemscore.Hbond>
1.4374

> <Gold.PLP.Chemscore.CHOScore>
0.0000

> <Gold.PLP.Chemscore.Metal>
0.0000

> <Gold.Chemscore.Hbonds>
donor molecule, donor type, donor heavy atom, donor atom, acceptor molecule, acceptor atom, score
      L1  H    10    26       P1   470  0.56
      L1  H    12    27       P1   470  0.88

> <Gold.PLP.Chemscore.Internal.Correction>
7.3558

