#       Name:                EN300-153159_i001
#       Creating user name   aseyller
#       Creation time:       Fri Apr 21 16:46:33 2023


#       File generated by GOLD software.
#

@<TRIPOS>MOLECULE
EN300-153159_i001|aminophenols|mol2|120|dock13
    27    27     1
SMALL
USER_CHARGES


@<TRIPOS>ATOM
      1 C1          29.9027  39.0807  37.5880 C.3            1 <1>                0.0000
      2 C2          30.0189  37.5551  37.5852 C.3            1 <1>                0.0000
      3 C3          29.6485  37.0180  36.2012 C.3            1 <1>                0.0000
      4 C4          31.4564  37.1524  37.9206 C.3            1 <1>                0.0000
      5 C5          29.0823  36.9780  38.6151 C.ar           1 <1>                0.0000
      6 C6          29.5740  36.1569  39.6139 C.ar           1 <1>                0.0000
      7 C7          28.7187  35.6259  40.5608 C.ar           1 <1>                0.0000
      8 C8          27.3669  35.9128  40.5145 C.ar           1 <1>                0.0000
      9 C9          26.8668  36.7352  39.5160 C.ar           1 <1>                0.0000
     10 N10         25.4987  37.0269  39.4670 N.pl3          1 <1>                0.0000
     11 C11         27.7308  37.2744  38.5648 C.ar           1 <1>                0.0000
     12 O12         27.2459  38.0816  37.5834 O.3            1 <1>                0.0000
     13 H13         28.8786  39.3675  37.3491 H              1 <1>                0.0000
     14 H14         30.1666  39.4634  38.5739 H              1 <1>                0.0000
     15 H15         30.5801  39.4980  36.8430 H              1 <1>                0.0000
     16 H16         30.3259  37.4353  35.4563 H              1 <1>                0.0000
     17 H17         29.7312  35.9311  36.1993 H              1 <1>                0.0000
     18 H18         28.6245  37.3048  35.9624 H              1 <1>                0.0000
     19 H19         31.7203  37.5351  38.9065 H              1 <1>                0.0000
     20 H20         31.5392  36.0656  37.9186 H              1 <1>                0.0000
     21 H21         32.1338  37.5698  37.1756 H              1 <1>                0.0000
     22 H22         30.6292  35.9299  39.6537 H              1 <1>                0.0000
     23 H23         29.1069  34.9850  41.3385 H              1 <1>                0.0000
     24 H24         26.7006  35.4961  41.2554 H              1 <1>                0.0000
     25 H25         24.8991  36.6538  40.1318 H              1 <1>                0.0000
     26 H26         25.1504  37.6023  38.7681 H              1 <1>                0.0000
     27 H27         27.7129  38.0000  36.7405 H              1 <1>                0.0000
@<TRIPOS>BOND
    1    1    2 1     
    2    1   13 1     
    3    1   14 1     
    4    1   15 1     
    5    2    3 1     
    6    2    4 1     
    7    2    5 1     
    8    3   16 1     
    9    3   17 1     
   10    3   18 1     
   11    4   19 1     
   12    4   20 1     
   13    4   21 1     
   14    5    6 ar    
   15    5   11 ar    
   16    6    7 ar    
   17    6   22 1     
   18    7    8 ar    
   19    7   23 1     
   20    8    9 ar    
   21    8   24 1     
   22    9   10 1     
   23    9   11 ar    
   24   10   25 1     
   25   10   26 1     
   26   11   12 1     
   27   12   27 1     
@<TRIPOS>SUBSTRUCTURE
      1 ****           1
@<TRIPOS>SET
DONOR_HYDROGENS      STATIC     ATOMS    <user>   **** ""
3 25 26 27
ATOM$RED        STATIC     ATOMS    COLORGROUP SYSTEM
3 25 26 27
@<TRIPOS>COMMENT
> <Gold.Version>
2022.2.0

> <Gold.Id.Protein>
1qkm|1qkm_protein|mol2

> <Gold.Protein.RotatedTorsions>
[  496  491  490  487 ] final  -57.44 input  -89.99 | X-H torsion

> <Gold.Protein.ActiveResidues>
 MET295  LEU298  THR299  LEU301  ALA302  GLU305  TRP335  MET336  LEU339  MET340 
 GLY342  LEU343  ARG346  PHE356  ILE373  ILE376  PHE377  LEU380  LYS471  GLY472 
 MET473  HIS475  LEU476  LEU477  ASN478  MET479  VAL484  VAL487 

> <Gold.Protein.RotatedAtoms>
   36.4775   34.7275   41.5218 H   0  0  0  0  0  0  0  0  0  0  0  0  # atno 496  bound_to 491 

> <Gold.Score>
     Score     S(PLP)   S(hbond)     S(cho)   S(metal)  DE(clash)   DE(tors)     intcor
     37.09     -37.15       0.00       0.00       0.00       7.33       0.04       7.36

> <Gold.PLP.Fitness>
37.0939

> <Gold.PLP.PLP>
-37.1542

> <Gold.PLP.part.hbond>
-0.5050

> <Gold.PLP.part.metal>
0.0000

> <Gold.PLP.part.buried>
-3.5810

> <Gold.PLP.part.nonpolar>
-33.1220

> <Gold.PLP.part.repulsive>
0.0896

> <Gold.PLP.ligand.clash>
7.3349

> <Gold.PLP.ligand.torsion>
0.0404

> <Gold.PLP.Chemscore.Hbond>
0.0000

> <Gold.PLP.Chemscore.CHOScore>
0.0000

> <Gold.PLP.Chemscore.Metal>
0.0000

> <Gold.PLP.Chemscore.Internal.Correction>
7.3554

