#       Name:                EN300-153159_i001
#       Creating user name   aseyller
#       Creation time:       Fri Apr 21 16:46:37 2023


#       File generated by GOLD software.
#

@<TRIPOS>MOLECULE
EN300-153159_i001|aminophenols|mol2|120|dock20
    27    27     1
SMALL
USER_CHARGES


@<TRIPOS>ATOM
      1 C1          27.7295  36.1198  37.1385 C.3            1 <1>                0.0000
      2 C2          28.0646  37.3145  38.0338 C.3            1 <1>                0.0000
      3 C3          29.5415  37.6780  37.8676 C.3            1 <1>                0.0000
      4 C4          27.1971  38.5100  37.6346 C.3            1 <1>                0.0000
      5 C5          27.7944  36.9558  39.4722 C.ar           1 <1>                0.0000
      6 C6          28.8346  36.9213  40.3834 C.ar           1 <1>                0.0000
      7 C7          28.5912  36.5932  41.7037 C.ar           1 <1>                0.0000
      8 C8          27.3064  36.2977  42.1206 C.ar           1 <1>                0.0000
      9 C9          26.2586  36.3301  41.2127 C.ar           1 <1>                0.0000
     10 N10         24.9572  36.0312  41.6323 N.pl3          1 <1>                0.0000
     11 C11         26.5041  36.6662  39.8827 C.ar           1 <1>                0.0000
     12 O12         25.4803  36.6996  38.9879 O.3            1 <1>                0.0000
     13 H13         28.3476  35.2681  37.4229 H              1 <1>                0.0000
     14 H14         26.6774  35.8609  37.2569 H              1 <1>                0.0000
     15 H15         27.9251  36.3793  36.0981 H              1 <1>                0.0000
     16 H16         29.7370  37.9374  36.8272 H              1 <1>                0.0000
     17 H17         29.7802  38.5291  38.5054 H              1 <1>                0.0000
     18 H18         30.1594  36.8264  38.1519 H              1 <1>                0.0000
     19 H19         26.1450  38.2511  37.7530 H              1 <1>                0.0000
     20 H20         27.4358  39.3611  38.2724 H              1 <1>                0.0000
     21 H21         27.3926  38.7694  36.5941 H              1 <1>                0.0000
     22 H22         29.8398  37.1512  40.0621 H              1 <1>                0.0000
     23 H23         29.4065  36.5673  42.4115 H              1 <1>                0.0000
     24 H24         27.1191  36.0412  43.1529 H              1 <1>                0.0000
     25 H25         24.7872  35.8009  42.5590 H              1 <1>                0.0000
     26 H26         24.2252  36.0544  40.9961 H              1 <1>                0.0000
     27 H27         24.6089  36.8131  39.3914 H              1 <1>                0.0000
@<TRIPOS>BOND
    1    1    2 1     
    2    1   13 1     
    3    1   14 1     
    4    1   15 1     
    5    2    3 1     
    6    2    4 1     
    7    2    5 1     
    8    3   16 1     
    9    3   17 1     
   10    3   18 1     
   11    4   19 1     
   12    4   20 1     
   13    4   21 1     
   14    5    6 ar    
   15    5   11 ar    
   16    6    7 ar    
   17    6   22 1     
   18    7    8 ar    
   19    7   23 1     
   20    8    9 ar    
   21    8   24 1     
   22    9   10 1     
   23    9   11 ar    
   24   10   25 1     
   25   10   26 1     
   26   11   12 1     
   27   12   27 1     
@<TRIPOS>SUBSTRUCTURE
      1 ****           1
@<TRIPOS>SET
DONOR_HYDROGENS      STATIC     ATOMS    <user>   **** ""
3 25 26 27
ATOM$RED        STATIC     ATOMS    COLORGROUP SYSTEM
3 25 26 27
@<TRIPOS>COMMENT
> <Gold.Version>
2022.2.0

> <Gold.Id.Protein>
1qkm|1qkm_protein|mol2

> <Gold.Protein.RotatedTorsions>
[  496  491  490  487 ] final  -54.32 input  -89.99 | X-H torsion

> <Gold.Protein.ActiveResidues>
 MET295  LEU298  THR299  LEU301  ALA302  GLU305  TRP335  MET336  LEU339  MET340 
 GLY342  LEU343  ARG346  PHE356  ILE373  ILE376  PHE377  LEU380  LYS471  GLY472 
 MET473  HIS475  LEU476  LEU477  ASN478  MET479  VAL484  VAL487 

> <Gold.Protein.RotatedAtoms>
   36.4546   34.7195   41.5671 H   0  0  0  0  0  0  0  0  0  0  0  0  # atno 496  bound_to 491 

> <Gold.Score>
     Score     S(PLP)   S(hbond)     S(cho)   S(metal)  DE(clash)   DE(tors)     intcor
     36.40     -32.15       1.44       0.00       0.00       7.33       0.04       7.36

> <Gold.PLP.Fitness>
36.4028

> <Gold.PLP.PLP>
-32.1487

> <Gold.PLP.part.hbond>
-2.8167

> <Gold.PLP.part.metal>
0.0000

> <Gold.PLP.part.buried>
1.4400

> <Gold.PLP.part.nonpolar>
-31.8756

> <Gold.PLP.part.repulsive>
0.3566

> <Gold.PLP.ligand.clash>
7.3329

> <Gold.PLP.ligand.torsion>
0.0404

> <Gold.PLP.Chemscore.Hbond>
1.4375

> <Gold.PLP.Chemscore.CHOScore>
0.0000

> <Gold.PLP.Chemscore.Metal>
0.0000

> <Gold.Chemscore.Hbonds>
donor molecule, donor type, donor heavy atom, donor atom, acceptor molecule, acceptor atom, score
      L1  H    10    25       P1   582  0.38
      L1  H    10    26       P1  1131  0.88
      L1  H    12    27       P1  1131  0.18

> <Gold.PLP.Chemscore.Internal.Correction>
7.3554

