#       Name:                EN300-153159_i001
#       Creating user name   aseyller
#       Creation time:       Fri Apr 21 16:46:34 2023


#       File generated by GOLD software.
#

@<TRIPOS>MOLECULE
EN300-153159_i001|aminophenols|mol2|120|dock14
    27    27     1
SMALL
USER_CHARGES


@<TRIPOS>ATOM
      1 C1          27.9670  36.7731  38.8137 C.3            1 <1>                0.0000
      2 C2          28.9705  36.1314  39.7741 C.3            1 <1>                0.0000
      3 C3          29.4011  37.1587  40.8231 C.3            1 <1>                0.0000
      4 C4          28.3175  34.9353  40.4697 C.3            1 <1>                0.0000
      5 C5          30.1778  35.6657  39.0018 C.ar           1 <1>                0.0000
      6 C6          30.5888  34.3478  39.0899 C.ar           1 <1>                0.0000
      7 C7          31.6953  33.9164  38.3830 C.ar           1 <1>                0.0000
      8 C8          32.3971  34.8000  37.5840 C.ar           1 <1>                0.0000
      9 C9          31.9909  36.1227  37.4908 C.ar           1 <1>                0.0000
     10 N10         32.6997  37.0192  36.6828 N.pl3          1 <1>                0.0000
     11 C11         30.8720  36.5556  38.1998 C.ar           1 <1>                0.0000
     12 O12         30.4690  37.8517  38.1123 O.3            1 <1>                0.0000
     13 H13         28.4322  37.6252  38.3182 H              1 <1>                0.0000
     14 H14         27.6601  36.0413  38.0665 H              1 <1>                0.0000
     15 H15         27.0938  37.1100  39.3724 H              1 <1>                0.0000
     16 H16         28.5279  37.4955  41.3816 H              1 <1>                0.0000
     17 H17         30.1161  36.7015  41.5072 H              1 <1>                0.0000
     18 H18         29.8663  38.0107  40.3275 H              1 <1>                0.0000
     19 H19         28.0106  34.2034  39.7225 H              1 <1>                0.0000
     20 H20         29.0323  34.4781  41.1539 H              1 <1>                0.0000
     21 H21         27.4442  35.2722  41.0283 H              1 <1>                0.0000
     22 H22         30.0438  33.6542  39.7130 H              1 <1>                0.0000
     23 H23         32.0128  32.8866  38.4551 H              1 <1>                0.0000
     24 H24         33.2616  34.4603  37.0329 H              1 <1>                0.0000
     25 H25         33.4762  36.7156  36.1870 H              1 <1>                0.0000
     26 H26         32.4144  37.9441  36.6185 H              1 <1>                0.0000
     27 H27         29.6261  37.9714  37.6536 H              1 <1>                0.0000
@<TRIPOS>BOND
    1    1    2 1     
    2    1   13 1     
    3    1   14 1     
    4    1   15 1     
    5    2    3 1     
    6    2    4 1     
    7    2    5 1     
    8    3   16 1     
    9    3   17 1     
   10    3   18 1     
   11    4   19 1     
   12    4   20 1     
   13    4   21 1     
   14    5    6 ar    
   15    5   11 ar    
   16    6    7 ar    
   17    6   22 1     
   18    7    8 ar    
   19    7   23 1     
   20    8    9 ar    
   21    8   24 1     
   22    9   10 1     
   23    9   11 ar    
   24   10   25 1     
   25   10   26 1     
   26   11   12 1     
   27   12   27 1     
@<TRIPOS>SUBSTRUCTURE
      1 ****           1
@<TRIPOS>SET
DONOR_HYDROGENS      STATIC     ATOMS    <user>   **** ""
3 25 26 27
ATOM$RED        STATIC     ATOMS    COLORGROUP SYSTEM
3 25 26 27
@<TRIPOS>COMMENT
> <Gold.Version>
2022.2.0

> <Gold.Id.Protein>
1qkm|1qkm_protein|mol2

> <Gold.Protein.RotatedTorsions>
[  496  491  490  487 ] final   18.88 input  -89.99 | X-H torsion

> <Gold.Protein.ActiveResidues>
 MET295  LEU298  THR299  LEU301  ALA302  GLU305  TRP335  MET336  LEU339  MET340 
 GLY342  LEU343  ARG346  PHE356  ILE373  ILE376  PHE377  LEU380  LYS471  GLY472 
 MET473  HIS475  LEU476  LEU477  ASN478  MET479  VAL484  VAL487 

> <Gold.Protein.RotatedAtoms>
   36.2984   33.9295   42.3521 H   0  0  0  0  0  0  0  0  0  0  0  0  # atno 496  bound_to 491 

> <Gold.Score>
     Score     S(PLP)   S(hbond)     S(cho)   S(metal)  DE(clash)   DE(tors)     intcor
     36.19     -36.20       0.00       0.00       0.00       7.22       0.08       7.36

> <Gold.PLP.Fitness>
36.1866

> <Gold.PLP.PLP>
-36.2043

> <Gold.PLP.part.hbond>
0.0000

> <Gold.PLP.part.metal>
0.0000

> <Gold.PLP.part.buried>
-2.3573

> <Gold.PLP.part.nonpolar>
-34.1681

> <Gold.PLP.part.repulsive>
0.0000

> <Gold.PLP.ligand.clash>
7.2201

> <Gold.PLP.ligand.torsion>
0.0766

> <Gold.PLP.Chemscore.Hbond>
0.0000

> <Gold.PLP.Chemscore.CHOScore>
0.0000

> <Gold.PLP.Chemscore.Metal>
0.0000

> <Gold.PLP.Chemscore.Internal.Correction>
7.3554

