#       Name:                EN300-153159_i001
#       Creating user name   aseyller
#       Creation time:       Fri Apr 21 16:46:32 2023


#       File generated by GOLD software.
#

@<TRIPOS>MOLECULE
EN300-153159_i001|aminophenols|mol2|120|dock11
    27    27     1
SMALL
USER_CHARGES


@<TRIPOS>ATOM
      1 C1          31.0279  39.8078  36.2446 C.3            1 <1>                0.0000
      2 C2          31.2264  38.3597  35.7921 C.3            1 <1>                0.0000
      3 C3          30.2293  38.0321  34.6788 C.3            1 <1>                0.0000
      4 C4          32.6528  38.1801  35.2684 C.3            1 <1>                0.0000
      5 C5          30.9992  37.4332  36.9587 C.ar           1 <1>                0.0000
      6 C6          31.9778  36.5253  37.3214 C.ar           1 <1>                0.0000
      7 C7          31.7737  35.6740  38.3909 C.ar           1 <1>                0.0000
      8 C8          30.5901  35.7256  39.1038 C.ar           1 <1>                0.0000
      9 C9          29.6045  36.6332  38.7459 C.ar           1 <1>                0.0000
     10 N10         28.4055  36.6872  39.4660 N.pl3          1 <1>                0.0000
     11 C11         29.8133  37.4948  37.6707 C.ar           1 <1>                0.0000
     12 O12         28.8502  38.3870  37.3152 O.3            1 <1>                0.0000
     13 H13         30.0117  39.9358  36.6177 H              1 <1>                0.0000
     14 H14         31.7382  40.0413  37.0377 H              1 <1>                0.0000
     15 H15         31.1922  40.4779  35.4008 H              1 <1>                0.0000
     16 H16         30.3936  38.7022  33.8350 H              1 <1>                0.0000
     17 H17         30.3707  37.0004  34.3565 H              1 <1>                0.0000
     18 H18         29.2132  38.1600  35.0519 H              1 <1>                0.0000
     19 H19         33.3631  38.4136  36.0615 H              1 <1>                0.0000
     20 H20         32.7942  37.1485  34.9460 H              1 <1>                0.0000
     21 H21         32.8171  38.8503  34.4246 H              1 <1>                0.0000
     22 H22         32.9037  36.4814  36.7671 H              1 <1>                0.0000
     23 H23         32.5404  34.9665  38.6702 H              1 <1>                0.0000
     24 H24         30.4331  35.0589  39.9389 H              1 <1>                0.0000
     25 H25         28.2630  36.0894  40.2164 H              1 <1>                0.0000
     26 H26         27.7170  37.3227  39.2145 H              1 <1>                0.0000
     27 H27         27.9873  38.2150  37.7164 H              1 <1>                0.0000
@<TRIPOS>BOND
    1    1    2 1     
    2    1   13 1     
    3    1   14 1     
    4    1   15 1     
    5    2    3 1     
    6    2    4 1     
    7    2    5 1     
    8    3   16 1     
    9    3   17 1     
   10    3   18 1     
   11    4   19 1     
   12    4   20 1     
   13    4   21 1     
   14    5    6 ar    
   15    5   11 ar    
   16    6    7 ar    
   17    6   22 1     
   18    7    8 ar    
   19    7   23 1     
   20    8    9 ar    
   21    8   24 1     
   22    9   10 1     
   23    9   11 ar    
   24   10   25 1     
   25   10   26 1     
   26   11   12 1     
   27   12   27 1     
@<TRIPOS>SUBSTRUCTURE
      1 ****           1
@<TRIPOS>SET
DONOR_HYDROGENS      STATIC     ATOMS    <user>   **** ""
3 25 26 27
ATOM$RED        STATIC     ATOMS    COLORGROUP SYSTEM
3 25 26 27
@<TRIPOS>COMMENT
> <Gold.Version>
2022.2.0

> <Gold.Id.Protein>
1qkm|1qkm_protein|mol2

> <Gold.Protein.RotatedTorsions>
[  496  491  490  487 ] final  -84.34 input  -89.99 | X-H torsion

> <Gold.Protein.ActiveResidues>
 MET295  LEU298  THR299  LEU301  ALA302  GLU305  TRP335  MET336  LEU339  MET340 
 GLY342  LEU343  ARG346  PHE356  ILE373  ILE376  PHE377  LEU380  LYS471  GLY472 
 MET473  HIS475  LEU476  LEU477  ASN478  MET479  VAL484  VAL487 

> <Gold.Protein.RotatedAtoms>
   36.7053   34.6864   41.1491 H   0  0  0  0  0  0  0  0  0  0  0  0  # atno 496  bound_to 491 

> <Gold.Score>
     Score     S(PLP)   S(hbond)     S(cho)   S(metal)  DE(clash)   DE(tors)     intcor
     34.99     -35.00       0.00       0.00       0.00       7.21       0.08       7.36

> <Gold.PLP.Fitness>
34.9862

> <Gold.PLP.PLP>
-35.0015

> <Gold.PLP.part.hbond>
0.0000

> <Gold.PLP.part.metal>
0.0000

> <Gold.PLP.part.buried>
-2.2951

> <Gold.PLP.part.nonpolar>
-33.0094

> <Gold.PLP.part.repulsive>
0.0000

> <Gold.PLP.ligand.clash>
7.2119

> <Gold.PLP.ligand.torsion>
0.0795

> <Gold.PLP.Chemscore.Hbond>
0.0000

> <Gold.PLP.Chemscore.CHOScore>
0.0000

> <Gold.PLP.Chemscore.Metal>
0.0000

> <Gold.PLP.Chemscore.Internal.Correction>
7.3558

