#       Name:                EN300-153159_i001
#       Creating user name   aseyller
#       Creation time:       Fri Apr 21 16:46:32 2023


#       File generated by GOLD software.
#

@<TRIPOS>MOLECULE
EN300-153159_i001|aminophenols|mol2|120|dock10
    27    27     1
SMALL
USER_CHARGES


@<TRIPOS>ATOM
      1 C1          31.9910  35.9420  35.6857 C.3            1 <1>                0.0000
      2 C2          31.4673  37.3489  35.9814 C.3            1 <1>                0.0000
      3 C3          32.6000  38.2052  36.5514 C.3            1 <1>                0.0000
      4 C4          30.9498  37.9826  34.6886 C.3            1 <1>                0.0000
      5 C5          30.3459  37.2670  36.9847 C.ar           1 <1>                0.0000
      6 C6          29.1160  37.8296  36.6944 C.ar           1 <1>                0.0000
      7 C7          28.0845  37.7564  37.6114 C.ar           1 <1>                0.0000
      8 C8          28.2769  37.1203  38.8239 C.ar           1 <1>                0.0000
      9 C9          29.5072  36.5539  39.1219 C.ar           1 <1>                0.0000
     10 N10         29.7044  35.9096  40.3487 N.pl3          1 <1>                0.0000
     11 C11         30.5451  36.6236  38.1944 C.ar           1 <1>                0.0000
     12 O12         31.7538  36.0700  38.4812 O.3            1 <1>                0.0000
     13 H13         32.3597  35.4905  36.6068 H              1 <1>                0.0000
     14 H14         31.1841  35.3319  35.2796 H              1 <1>                0.0000
     15 H15         32.8021  36.0013  34.9601 H              1 <1>                0.0000
     16 H16         33.4111  38.2645  35.8258 H              1 <1>                0.0000
     17 H17         32.2269  39.2075  36.7621 H              1 <1>                0.0000
     18 H18         32.9686  37.7538  37.4724 H              1 <1>                0.0000
     19 H19         30.1430  37.3726  34.2825 H              1 <1>                0.0000
     20 H20         30.5768  38.9849  34.8992 H              1 <1>                0.0000
     21 H21         31.7610  38.0419  33.9629 H              1 <1>                0.0000
     22 H22         28.9614  38.3277  35.7486 H              1 <1>                0.0000
     23 H23         27.1261  38.1974  37.3806 H              1 <1>                0.0000
     24 H24         27.4693  37.0649  39.5389 H              1 <1>                0.0000
     25 H25         28.9801  35.8588  40.9918 H              1 <1>                0.0000
     26 H26         30.5655  35.5139  40.5557 H              1 <1>                0.0000
     27 H27         32.3751  36.0763  37.7402 H              1 <1>                0.0000
@<TRIPOS>BOND
    1    1    2 1     
    2    1   13 1     
    3    1   14 1     
    4    1   15 1     
    5    2    3 1     
    6    2    4 1     
    7    2    5 1     
    8    3   16 1     
    9    3   17 1     
   10    3   18 1     
   11    4   19 1     
   12    4   20 1     
   13    4   21 1     
   14    5    6 ar    
   15    5   11 ar    
   16    6    7 ar    
   17    6   22 1     
   18    7    8 ar    
   19    7   23 1     
   20    8    9 ar    
   21    8   24 1     
   22    9   10 1     
   23    9   11 ar    
   24   10   25 1     
   25   10   26 1     
   26   11   12 1     
   27   12   27 1     
@<TRIPOS>SUBSTRUCTURE
      1 ****           1
@<TRIPOS>SET
DONOR_HYDROGENS      STATIC     ATOMS    <user>   **** ""
3 25 26 27
ATOM$RED        STATIC     ATOMS    COLORGROUP SYSTEM
3 25 26 27
@<TRIPOS>COMMENT
> <Gold.Version>
2022.2.0

> <Gold.Id.Protein>
1qkm|1qkm_protein|mol2

> <Gold.Protein.RotatedTorsions>
[  496  491  490  487 ] final -120.76 input  -89.99 | X-H torsion

> <Gold.Protein.ActiveResidues>
 MET295  LEU298  THR299  LEU301  ALA302  GLU305  TRP335  MET336  LEU339  MET340 
 GLY342  LEU343  ARG346  PHE356  ILE373  ILE376  PHE377  LEU380  LYS471  GLY472 
 MET473  HIS475  LEU476  LEU477  ASN478  MET479  VAL484  VAL487 

> <Gold.Protein.RotatedAtoms>
   37.0323   34.3463   40.7957 H   0  0  0  0  0  0  0  0  0  0  0  0  # atno 496  bound_to 491 

> <Gold.Score>
     Score     S(PLP)   S(hbond)     S(cho)   S(metal)  DE(clash)   DE(tors)     intcor
     35.57     -32.99       0.86       0.00       0.00       7.19       0.09       7.36

> <Gold.PLP.Fitness>
35.5717

> <Gold.PLP.PLP>
-32.9882

> <Gold.PLP.part.hbond>
-1.0000

> <Gold.PLP.part.metal>
0.0000

> <Gold.PLP.part.buried>
-1.7426

> <Gold.PLP.part.nonpolar>
-30.0438

> <Gold.PLP.part.repulsive>
0.0595

> <Gold.PLP.ligand.clash>
7.1928

> <Gold.PLP.ligand.torsion>
0.0857

> <Gold.PLP.Chemscore.Hbond>
0.8640

> <Gold.PLP.Chemscore.CHOScore>
0.0000

> <Gold.PLP.Chemscore.Metal>
0.0000

> <Gold.Chemscore.Hbonds>
donor molecule, donor type, donor heavy atom, donor atom, acceptor molecule, acceptor atom, score
      L1  H    10    26       P1   470  0.86

> <Gold.PLP.Chemscore.Internal.Correction>
7.3558

