#       Name:                EN300-153159_i001
#       Creating user name   aseyller
#       Creation time:       Fri Apr 21 16:46:36 2023


#       File generated by GOLD software.
#

@<TRIPOS>MOLECULE
EN300-153159_i001|aminophenols|mol2|120|dock18
    27    27     1
SMALL
USER_CHARGES


@<TRIPOS>ATOM
      1 C1          29.7832  38.5160  34.9457 C.3            1 <1>                0.0000
      2 C2          29.8885  38.8508  36.4349 C.3            1 <1>                0.0000
      3 C3          30.7237  40.1202  36.6145 C.3            1 <1>                0.0000
      4 C4          28.4876  39.0769  37.0072 C.3            1 <1>                0.0000
      5 C5          30.5493  37.7078  37.1613 C.ar           1 <1>                0.0000
      6 C6          29.9194  37.1196  38.2433 C.ar           1 <1>                0.0000
      7 C7          30.5217  36.0708  38.9121 C.ar           1 <1>                0.0000
      8 C8          31.7572  35.6040  38.5030 C.ar           1 <1>                0.0000
      9 C9          32.3948  36.1889  37.4191 C.ar           1 <1>                0.0000
     10 N10         33.6456  35.7183  37.0031 N.pl3          1 <1>                0.0000
     11 C11         31.7843  37.2429  36.7421 C.ar           1 <1>                0.0000
     12 O12         32.4049  37.8203  35.6784 O.3            1 <1>                0.0000
     13 H13         30.7812  38.3550  34.5381 H              1 <1>                0.0000
     14 H14         29.1881  37.6118  34.8178 H              1 <1>                0.0000
     15 H15         29.3052  39.3429  34.4204 H              1 <1>                0.0000
     16 H16         30.2457  40.9470  36.0891 H              1 <1>                0.0000
     17 H17         30.7988  40.3587  37.6754 H              1 <1>                0.0000
     18 H18         31.7216  39.9591  36.2068 H              1 <1>                0.0000
     19 H19         27.8926  38.1727  36.8792 H              1 <1>                0.0000
     20 H20         28.5626  39.3155  38.0681 H              1 <1>                0.0000
     21 H21         28.0096  39.9038  36.4817 H              1 <1>                0.0000
     22 H22         28.9544  37.4812  38.5665 H              1 <1>                0.0000
     23 H23         30.0264  35.6148  39.7566 H              1 <1>                0.0000
     24 H24         32.2259  34.7845  39.0277 H              1 <1>                0.0000
     25 H25         34.0677  34.9822  37.4731 H              1 <1>                0.0000
     26 H26         34.0903  36.1283  36.2448 H              1 <1>                0.0000
     27 H27         32.0639  37.5327  34.8204 H              1 <1>                0.0000
@<TRIPOS>BOND
    1    1    2 1     
    2    1   13 1     
    3    1   14 1     
    4    1   15 1     
    5    2    3 1     
    6    2    4 1     
    7    2    5 1     
    8    3   16 1     
    9    3   17 1     
   10    3   18 1     
   11    4   19 1     
   12    4   20 1     
   13    4   21 1     
   14    5    6 ar    
   15    5   11 ar    
   16    6    7 ar    
   17    6   22 1     
   18    7    8 ar    
   19    7   23 1     
   20    8    9 ar    
   21    8   24 1     
   22    9   10 1     
   23    9   11 ar    
   24   10   25 1     
   25   10   26 1     
   26   11   12 1     
   27   12   27 1     
@<TRIPOS>SUBSTRUCTURE
      1 ****           1
@<TRIPOS>SET
DONOR_HYDROGENS      STATIC     ATOMS    <user>   **** ""
3 25 26 27
ATOM$RED        STATIC     ATOMS    COLORGROUP SYSTEM
3 25 26 27
@<TRIPOS>COMMENT
> <Gold.Version>
2022.2.0

> <Gold.Id.Protein>
1qkm|1qkm_protein|mol2

> <Gold.Protein.RotatedTorsions>
[  496  491  490  487 ] final  105.11 input  -89.99 | X-H torsion

> <Gold.Protein.ActiveResidues>
 MET295  LEU298  THR299  LEU301  ALA302  GLU305  TRP335  MET336  LEU339  MET340 
 GLY342  LEU343  ARG346  PHE356  ILE373  ILE376  PHE377  LEU380  LYS471  GLY472 
 MET473  HIS475  LEU476  LEU477  ASN478  MET479  VAL484  VAL487 

> <Gold.Protein.RotatedAtoms>
   36.9570   32.9522   41.8295 H   0  0  0  0  0  0  0  0  0  0  0  0  # atno 496  bound_to 491 

> <Gold.Score>
     Score     S(PLP)   S(hbond)     S(cho)   S(metal)  DE(clash)   DE(tors)     intcor
     34.95     -34.96       0.00       0.00       0.00       7.20       0.08       7.36

> <Gold.PLP.Fitness>
34.9465

> <Gold.PLP.PLP>
-34.9559

> <Gold.PLP.part.hbond>
0.0000

> <Gold.PLP.part.metal>
0.0000

> <Gold.PLP.part.buried>
-1.9803

> <Gold.PLP.part.nonpolar>
-33.5597

> <Gold.PLP.part.repulsive>
0.0117

> <Gold.PLP.ligand.clash>
7.1996

> <Gold.PLP.ligand.torsion>
0.0826

> <Gold.PLP.Chemscore.Hbond>
0.0000

> <Gold.PLP.Chemscore.CHOScore>
0.0000

> <Gold.PLP.Chemscore.Metal>
0.0000

> <Gold.PLP.Chemscore.Internal.Correction>
7.3554

