#       Name:                EN300-153159_i001
#       Creating user name   aseyller
#       Creation time:       Fri Apr 21 16:46:34 2023


#       File generated by GOLD software.
#

@<TRIPOS>MOLECULE
EN300-153159_i001|aminophenols|mol2|120|dock15
    27    27     1
SMALL
USER_CHARGES


@<TRIPOS>ATOM
      1 C1          28.7816  36.7113  37.1079 C.3            1 <1>                0.0000
      2 C2          29.9973  36.7939  38.0332 C.3            1 <1>                0.0000
      3 C3          30.0357  38.1689  38.7033 C.3            1 <1>                0.0000
      4 C4          29.8971  35.7068  39.1052 C.3            1 <1>                0.0000
      5 C5          31.2555  36.5918  37.2289 C.ar           1 <1>                0.0000
      6 C6          32.1453  35.5914  37.5767 C.ar           1 <1>                0.0000
      7 C7          33.3002  35.4022  36.8415 C.ar           1 <1>                0.0000
      8 C8          33.5722  36.2122  35.7544 C.ar           1 <1>                0.0000
      9 C9          32.6848  37.2173  35.3999 C.ar           1 <1>                0.0000
     10 N10         32.9579  38.0386  34.3000 N.pl3          1 <1>                0.0000
     11 C11         31.5179  37.4039  36.1386 C.ar           1 <1>                0.0000
     12 O12         30.6440  38.3880  35.7955 O.3            1 <1>                0.0000
     13 H13         28.8530  37.4858  36.3442 H              1 <1>                0.0000
     14 H14         28.7542  35.7318  36.6306 H              1 <1>                0.0000
     15 H15         27.8716  36.8575  37.6897 H              1 <1>                0.0000
     16 H16         29.1256  38.3151  39.2850 H              1 <1>                0.0000
     17 H17         30.9018  38.2278  39.3625 H              1 <1>                0.0000
     18 H18         30.1071  38.9433  37.9396 H              1 <1>                0.0000
     19 H19         29.8697  34.7273  38.6279 H              1 <1>                0.0000
     20 H20         30.7632  35.7657  39.7644 H              1 <1>                0.0000
     21 H21         28.9870  35.8530  39.6870 H              1 <1>                0.0000
     22 H22         31.9370  34.9565  38.4252 H              1 <1>                0.0000
     23 H23         33.9922  34.6202  37.1169 H              1 <1>                0.0000
     24 H24         34.4757  36.0626  35.1819 H              1 <1>                0.0000
     25 H25         33.7687  37.9053  33.7846 H              1 <1>                0.0000
     26 H26         32.3363  38.7412  34.0531 H              1 <1>                0.0000
     27 H27         30.7145  38.6730  34.8741 H              1 <1>                0.0000
@<TRIPOS>BOND
    1    1    2 1     
    2    1   13 1     
    3    1   14 1     
    4    1   15 1     
    5    2    3 1     
    6    2    4 1     
    7    2    5 1     
    8    3   16 1     
    9    3   17 1     
   10    3   18 1     
   11    4   19 1     
   12    4   20 1     
   13    4   21 1     
   14    5    6 ar    
   15    5   11 ar    
   16    6    7 ar    
   17    6   22 1     
   18    7    8 ar    
   19    7   23 1     
   20    8    9 ar    
   21    8   24 1     
   22    9   10 1     
   23    9   11 ar    
   24   10   25 1     
   25   10   26 1     
   26   11   12 1     
   27   12   27 1     
@<TRIPOS>SUBSTRUCTURE
      1 ****           1
@<TRIPOS>SET
DONOR_HYDROGENS      STATIC     ATOMS    <user>   **** ""
3 25 26 27
ATOM$RED        STATIC     ATOMS    COLORGROUP SYSTEM
3 25 26 27
@<TRIPOS>COMMENT
> <Gold.Version>
2022.2.0

> <Gold.Id.Protein>
1qkm|1qkm_protein|mol2

> <Gold.Protein.RotatedTorsions>
[  496  491  490  487 ] final  100.15 input  -89.99 | X-H torsion

> <Gold.Protein.ActiveResidues>
 MET295  LEU298  THR299  LEU301  ALA302  GLU305  TRP335  MET336  LEU339  MET340 
 GLY342  LEU343  ARG346  PHE356  ILE373  ILE376  PHE377  LEU380  LYS471  GLY472 
 MET473  HIS475  LEU476  LEU477  ASN478  MET479  VAL484  VAL487 

> <Gold.Protein.RotatedAtoms>
   36.9130   32.9684   41.8962 H   0  0  0  0  0  0  0  0  0  0  0  0  # atno 496  bound_to 491 

> <Gold.Score>
     Score     S(PLP)   S(hbond)     S(cho)   S(metal)  DE(clash)   DE(tors)     intcor
     35.27     -32.31       1.00       0.00       0.00       7.30       0.05       7.36

> <Gold.PLP.Fitness>
35.2696

> <Gold.PLP.PLP>
-32.3136

> <Gold.PLP.part.hbond>
-1.0000

> <Gold.PLP.part.metal>
0.0000

> <Gold.PLP.part.buried>
-3.1980

> <Gold.PLP.part.nonpolar>
-28.1468

> <Gold.PLP.part.repulsive>
0.0500

> <Gold.PLP.ligand.clash>
7.2952

> <Gold.PLP.ligand.torsion>
0.0521

> <Gold.PLP.Chemscore.Hbond>
1.0000

> <Gold.PLP.Chemscore.CHOScore>
0.0000

> <Gold.PLP.Chemscore.Metal>
0.0000

> <Gold.Chemscore.Hbonds>
donor molecule, donor type, donor heavy atom, donor atom, acceptor molecule, acceptor atom, score
      L1  H    10    25       P1  3229  1.00

> <Gold.PLP.Chemscore.Internal.Correction>
7.3554

