#       Name:                EN300-153159_i001
#       Creating user name   aseyller
#       Creation time:       Fri Apr 21 16:46:31 2023


#       File generated by GOLD software.
#

@<TRIPOS>MOLECULE
EN300-153159_i001|aminophenols|mol2|120|dock8
    27    27     1
SMALL
USER_CHARGES


@<TRIPOS>ATOM
      1 C1          27.8261  35.0204  39.1010 C.3            1 <1>                0.0000
      2 C2          27.8352  36.4997  39.4917 C.3            1 <1>                0.0000
      3 C3          26.3958  37.0061  39.6053 C.3            1 <1>                0.0000
      4 C4          28.5424  36.6672  40.8381 C.3            1 <1>                0.0000
      5 C5          28.5652  37.2930  38.4387 C.ar           1 <1>                0.0000
      6 C6          27.8862  38.2375  37.6901 C.ar           1 <1>                0.0000
      7 C7          28.5519  38.9676  36.7236 C.ar           1 <1>                0.0000
      8 C8          29.9001  38.7574  36.5001 C.ar           1 <1>                0.0000
      9 C9          30.5873  37.8121  37.2467 C.ar           1 <1>                0.0000
     10 N10         31.9520  37.5975  37.0222 N.pl3          1 <1>                0.0000
     11 C11         29.9164  37.0802  38.2247 C.ar           1 <1>                0.0000
     12 O12         30.5853  36.1518  38.9600 O.3            1 <1>                0.0000
     13 H13         27.3222  34.9011  38.1418 H              1 <1>                0.0000
     14 H14         28.8514  34.6597  39.0202 H              1 <1>                0.0000
     15 H15         27.2980  34.4468  39.8626 H              1 <1>                0.0000
     16 H16         25.8678  36.4323  40.3668 H              1 <1>                0.0000
     17 H17         26.4023  38.0600  39.8836 H              1 <1>                0.0000
     18 H18         25.8920  36.8868  38.6461 H              1 <1>                0.0000
     19 H19         29.5678  36.3065  40.7573 H              1 <1>                0.0000
     20 H20         28.5489  37.7211  41.1165 H              1 <1>                0.0000
     21 H21         28.0144  36.0934  41.5997 H              1 <1>                0.0000
     22 H22         26.8330  38.4047  37.8612 H              1 <1>                0.0000
     23 H23         28.0177  39.7037  36.1413 H              1 <1>                0.0000
     24 H24         30.4178  39.3290  35.7439 H              1 <1>                0.0000
     25 H25         32.4185  38.1102  36.3437 H              1 <1>                0.0000
     26 H26         32.4314  36.9360  37.5453 H              1 <1>                0.0000
     27 H27         31.5122  36.3732  39.1239 H              1 <1>                0.0000
@<TRIPOS>BOND
    1    1    2 1     
    2    1   13 1     
    3    1   14 1     
    4    1   15 1     
    5    2    3 1     
    6    2    4 1     
    7    2    5 1     
    8    3   16 1     
    9    3   17 1     
   10    3   18 1     
   11    4   19 1     
   12    4   20 1     
   13    4   21 1     
   14    5    6 ar    
   15    5   11 ar    
   16    6    7 ar    
   17    6   22 1     
   18    7    8 ar    
   19    7   23 1     
   20    8    9 ar    
   21    8   24 1     
   22    9   10 1     
   23    9   11 ar    
   24   10   25 1     
   25   10   26 1     
   26   11   12 1     
   27   12   27 1     
@<TRIPOS>SUBSTRUCTURE
      1 ****           1
@<TRIPOS>SET
DONOR_HYDROGENS      STATIC     ATOMS    <user>   **** ""
3 25 26 27
ATOM$RED        STATIC     ATOMS    COLORGROUP SYSTEM
3 25 26 27
@<TRIPOS>COMMENT
> <Gold.Version>
2022.2.0

> <Gold.Id.Protein>
1qkm|1qkm_protein|mol2

> <Gold.Protein.RotatedTorsions>
[  496  491  490  487 ] final  164.57 input  -89.99 | X-H torsion

> <Gold.Protein.ActiveResidues>
 MET295  LEU298  THR299  LEU301  ALA302  GLU305  TRP335  MET336  LEU339  MET340 
 GLY342  LEU343  ARG346  PHE356  ILE373  ILE376  PHE377  LEU380  LYS471  GLY472 
 MET473  HIS475  LEU476  LEU477  ASN478  MET479  VAL484  VAL487 

> <Gold.Protein.RotatedAtoms>
   37.3072   33.2582   41.0177 H   0  0  0  0  0  0  0  0  0  0  0  0  # atno 496  bound_to 491 

> <Gold.Score>
     Score     S(PLP)   S(hbond)     S(cho)   S(metal)  DE(clash)   DE(tors)     intcor
     36.19     -36.22       0.00       0.00       0.00       7.26       0.06       7.36

> <Gold.PLP.Fitness>
36.1910

> <Gold.PLP.PLP>
-36.2247

> <Gold.PLP.part.hbond>
0.0000

> <Gold.PLP.part.metal>
0.0000

> <Gold.PLP.part.buried>
-2.3812

> <Gold.PLP.part.nonpolar>
-34.3168

> <Gold.PLP.part.repulsive>
0.0000

> <Gold.PLP.ligand.clash>
7.2646

> <Gold.PLP.ligand.torsion>
0.0624

> <Gold.PLP.Chemscore.Hbond>
0.0000

> <Gold.PLP.Chemscore.CHOScore>
0.0000

> <Gold.PLP.Chemscore.Metal>
0.0000

> <Gold.PLP.Chemscore.Internal.Correction>
7.3558

