#       Name:                EN300-153159_i001
#       Creating user name   aseyller
#       Creation time:       Fri Apr 21 16:46:30 2023


#       File generated by GOLD software.
#

@<TRIPOS>MOLECULE
EN300-153159_i001|aminophenols|mol2|120|dock6
    27    27     1
SMALL
USER_CHARGES


@<TRIPOS>ATOM
      1 C1          27.9594  38.7961  36.1827 C.3            1 <1>                0.0000
      2 C2          28.9781  38.0952  37.0839 C.3            1 <1>                0.0000
      3 C3          29.6980  37.0047  36.2879 C.3            1 <1>                0.0000
      4 C4          29.9994  39.1161  37.5894 C.3            1 <1>                0.0000
      5 C5          28.2664  37.4733  38.2576 C.ar           1 <1>                0.0000
      6 C6          26.8858  37.5187  38.3324 C.ar           1 <1>                0.0000
      7 C7          26.2290  36.9493  39.4068 C.ar           1 <1>                0.0000
      8 C8          26.9487  36.3312  40.4127 C.ar           1 <1>                0.0000
      9 C9          28.3329  36.2818  40.3446 C.ar           1 <1>                0.0000
     10 N10         29.0637  35.6568  41.3617 N.pl3          1 <1>                0.0000
     11 C11         28.9941  36.8516  39.2582 C.ar           1 <1>                0.0000
     12 O12         30.3515  36.8062  39.1861 O.3            1 <1>                0.0000
     13 H13         27.2318  38.0687  35.8226 H              1 <1>                0.0000
     14 H14         27.4466  39.5729  36.7498 H              1 <1>                0.0000
     15 H15         28.4743  39.2458  35.3338 H              1 <1>                0.0000
     16 H16         30.2128  37.4545  35.4389 H              1 <1>                0.0000
     17 H17         30.4237  36.5053  36.9300 H              1 <1>                0.0000
     18 H18         28.9704  36.2774  35.9279 H              1 <1>                0.0000
     19 H19         29.4866  39.8930  38.1564 H              1 <1>                0.0000
     20 H20         30.7251  38.6168  38.2313 H              1 <1>                0.0000
     21 H21         30.5142  39.5659  36.7403 H              1 <1>                0.0000
     22 H22         26.3197  38.0008  37.5490 H              1 <1>                0.0000
     23 H23         25.1511  36.9875  39.4611 H              1 <1>                0.0000
     24 H24         26.4329  35.8873  41.2515 H              1 <1>                0.0000
     25 H25         28.6020  35.2575  42.1154 H              1 <1>                0.0000
     26 H26         30.0319  35.6230  41.3126 H              1 <1>                0.0000
     27 H27         30.7141  37.1672  38.3655 H              1 <1>                0.0000
@<TRIPOS>BOND
    1    1    2 1     
    2    1   13 1     
    3    1   14 1     
    4    1   15 1     
    5    2    3 1     
    6    2    4 1     
    7    2    5 1     
    8    3   16 1     
    9    3   17 1     
   10    3   18 1     
   11    4   19 1     
   12    4   20 1     
   13    4   21 1     
   14    5    6 ar    
   15    5   11 ar    
   16    6    7 ar    
   17    6   22 1     
   18    7    8 ar    
   19    7   23 1     
   20    8    9 ar    
   21    8   24 1     
   22    9   10 1     
   23    9   11 ar    
   24   10   25 1     
   25   10   26 1     
   26   11   12 1     
   27   12   27 1     
@<TRIPOS>SUBSTRUCTURE
      1 ****           1
@<TRIPOS>SET
DONOR_HYDROGENS      STATIC     ATOMS    <user>   **** ""
3 25 26 27
ATOM$RED        STATIC     ATOMS    COLORGROUP SYSTEM
3 25 26 27
@<TRIPOS>COMMENT
> <Gold.Version>
2022.2.0

> <Gold.Id.Protein>
1qkm|1qkm_protein|mol2

> <Gold.Protein.RotatedTorsions>
[  496  491  490  487 ] final  -82.88 input  -89.99 | X-H torsion

> <Gold.Protein.ActiveResidues>
 MET295  LEU298  THR299  LEU301  ALA302  GLU305  TRP335  MET336  LEU339  MET340 
 GLY342  LEU343  ARG346  PHE356  ILE373  ILE376  PHE377  LEU380  LYS471  GLY472 
 MET473  HIS475  LEU476  LEU477  ASN478  MET479  VAL484  VAL487 

> <Gold.Protein.RotatedAtoms>
   36.6920   34.6936   41.1677 H   0  0  0  0  0  0  0  0  0  0  0  0  # atno 496  bound_to 491 

> <Gold.Score>
     Score     S(PLP)   S(hbond)     S(cho)   S(metal)  DE(clash)   DE(tors)     intcor
     37.13     -34.18       1.00       0.00       0.00       7.29       0.05       7.36

> <Gold.PLP.Fitness>
37.1344

> <Gold.PLP.PLP>
-34.1758

> <Gold.PLP.part.hbond>
-1.0000

> <Gold.PLP.part.metal>
0.0000

> <Gold.PLP.part.buried>
-2.0560

> <Gold.PLP.part.nonpolar>
-31.6107

> <Gold.PLP.part.repulsive>
0.0818

> <Gold.PLP.ligand.clash>
7.2919

> <Gold.PLP.ligand.torsion>
0.0526

> <Gold.PLP.Chemscore.Hbond>
1.0000

> <Gold.PLP.Chemscore.CHOScore>
0.0000

> <Gold.PLP.Chemscore.Metal>
0.0000

> <Gold.Chemscore.Hbonds>
donor molecule, donor type, donor heavy atom, donor atom, acceptor molecule, acceptor atom, score
      L1  H    10    26       P1   470  1.00

> <Gold.PLP.Chemscore.Internal.Correction>
7.3558

