#       Name:                EN300-153159_i001
#       Creating user name   aseyller
#       Creation time:       Fri Apr 21 16:46:33 2023


#       File generated by GOLD software.
#

@<TRIPOS>MOLECULE
EN300-153159_i001|aminophenols|mol2|120|dock12
    27    27     1
SMALL
USER_CHARGES


@<TRIPOS>ATOM
      1 C1          32.4060  35.4955  35.7904 C.3            1 <1>                0.0000
      2 C2          32.1432  35.7837  37.2699 C.3            1 <1>                0.0000
      3 C3          31.8008  34.4782  37.9907 C.3            1 <1>                0.0000
      4 C4          33.3937  36.4010  37.8993 C.3            1 <1>                0.0000
      5 C5          30.9898  36.7452  37.3973 C.ar           1 <1>                0.0000
      6 C6          29.9000  36.4174  38.1837 C.ar           1 <1>                0.0000
      7 C7          28.8403  37.2965  38.3037 C.ar           1 <1>                0.0000
      8 C8          28.8641  38.5082  37.6381 C.ar           1 <1>                0.0000
      9 C9          29.9533  38.8435  36.8479 C.ar           1 <1>                0.0000
     10 N10         29.9796  40.0694  36.1730 N.pl3          1 <1>                0.0000
     11 C11         31.0237  37.9588  36.7317 C.ar           1 <1>                0.0000
     12 O12         32.0946  38.2824  35.9581 O.3            1 <1>                0.0000
     13 H13         31.5151  35.0558  35.3420 H              1 <1>                0.0000
     14 H14         32.6500  36.4255  35.2769 H              1 <1>                0.0000
     15 H15         33.2402  34.8000  35.6983 H              1 <1>                0.0000
     16 H16         32.6350  33.7827  37.8986 H              1 <1>                0.0000
     17 H17         31.6135  34.6835  39.0447 H              1 <1>                0.0000
     18 H18         30.9100  34.0385  37.5424 H              1 <1>                0.0000
     19 H19         33.6377  37.3309  37.3858 H              1 <1>                0.0000
     20 H20         33.2065  36.6062  38.9533 H              1 <1>                0.0000
     21 H21         34.2279  35.7054  37.8071 H              1 <1>                0.0000
     22 H22         29.8771  35.4719  38.7052 H              1 <1>                0.0000
     23 H23         27.9914  37.0362  38.9185 H              1 <1>                0.0000
     24 H24         28.0344  39.1931  37.7332 H              1 <1>                0.0000
     25 H25         29.2355  40.6858  36.2576 H              1 <1>                0.0000
     26 H26         30.7422  40.3027  35.6207 H              1 <1>                0.0000
     27 H27         32.1812  37.7424  35.1606 H              1 <1>                0.0000
@<TRIPOS>BOND
    1    1    2 1     
    2    1   13 1     
    3    1   14 1     
    4    1   15 1     
    5    2    3 1     
    6    2    4 1     
    7    2    5 1     
    8    3   16 1     
    9    3   17 1     
   10    3   18 1     
   11    4   19 1     
   12    4   20 1     
   13    4   21 1     
   14    5    6 ar    
   15    5   11 ar    
   16    6    7 ar    
   17    6   22 1     
   18    7    8 ar    
   19    7   23 1     
   20    8    9 ar    
   21    8   24 1     
   22    9   10 1     
   23    9   11 ar    
   24   10   25 1     
   25   10   26 1     
   26   11   12 1     
   27   12   27 1     
@<TRIPOS>SUBSTRUCTURE
      1 ****           1
@<TRIPOS>SET
DONOR_HYDROGENS      STATIC     ATOMS    <user>   **** ""
3 25 26 27
ATOM$RED        STATIC     ATOMS    COLORGROUP SYSTEM
3 25 26 27
@<TRIPOS>COMMENT
> <Gold.Version>
2022.2.0

> <Gold.Id.Protein>
1qkm|1qkm_protein|mol2

> <Gold.Protein.RotatedTorsions>
[  496  491  490  487 ] final -162.90 input  -89.99 | X-H torsion

> <Gold.Protein.ActiveResidues>
 MET295  LEU298  THR299  LEU301  ALA302  GLU305  TRP335  MET336  LEU339  MET340 
 GLY342  LEU343  ARG346  PHE356  ILE373  ILE376  PHE377  LEU380  LYS471  GLY472 
 MET473  HIS475  LEU476  LEU477  ASN478  MET479  VAL484  VAL487 

> <Gold.Protein.RotatedAtoms>
   37.2852   33.7181   40.7587 H   0  0  0  0  0  0  0  0  0  0  0  0  # atno 496  bound_to 491 

> <Gold.Score>
     Score     S(PLP)   S(hbond)     S(cho)   S(metal)  DE(clash)   DE(tors)     intcor
     35.78     -35.78       0.00       0.00       0.00       7.19       0.09       7.36

> <Gold.PLP.Fitness>
35.7787

> <Gold.PLP.PLP>
-35.7812

> <Gold.PLP.part.hbond>
0.0000

> <Gold.PLP.part.metal>
0.0000

> <Gold.PLP.part.buried>
-2.7337

> <Gold.PLP.part.nonpolar>
-32.9386

> <Gold.PLP.part.repulsive>
0.0000

> <Gold.PLP.ligand.clash>
7.1851

> <Gold.PLP.ligand.torsion>
0.0864

> <Gold.PLP.Chemscore.Hbond>
0.0000

> <Gold.PLP.Chemscore.CHOScore>
0.0000

> <Gold.PLP.Chemscore.Metal>
0.0000

> <Gold.PLP.Chemscore.Internal.Correction>
7.3554

