#       Name:                EN300-153159_i001
#       Creating user name   aseyller
#       Creation time:       Fri Apr 21 16:46:28 2023


#       File generated by GOLD software.
#

@<TRIPOS>MOLECULE
EN300-153159_i001|aminophenols|mol2|120|dock1
    27    27     1
SMALL
USER_CHARGES


@<TRIPOS>ATOM
      1 C1          29.7489  36.8538  37.9171 C.3            1 <1>                0.0000
      2 C2          29.1884  36.1018  39.1260 C.3            1 <1>                0.0000
      3 C3          29.2379  34.5962  38.8579 C.3            1 <1>                0.0000
      4 C4          30.0277  36.4273  40.3632 C.3            1 <1>                0.0000
      5 C5          27.7610  36.5233  39.3622 C.ar           1 <1>                0.0000
      6 C6          27.1367  37.3794  38.4730 C.ar           1 <1>                0.0000
      7 C7          25.8275  37.7682  38.6855 C.ar           1 <1>                0.0000
      8 C8          25.1351  37.3033  39.7883 C.ar           1 <1>                0.0000
      9 C9          25.7546  36.4447  40.6842 C.ar           1 <1>                0.0000
     10 N10         25.0558  35.9729  41.8014 N.pl3          1 <1>                0.0000
     11 C11         27.0729  36.0491  40.4662 C.ar           1 <1>                0.0000
     12 O12         27.6855  35.2073  41.3414 O.3            1 <1>                0.0000
     13 H13         29.1509  36.6218  37.0358 H              1 <1>                0.0000
     14 H14         29.7137  37.9263  38.1081 H              1 <1>                0.0000
     15 H15         30.7813  36.5488  37.7463 H              1 <1>                0.0000
     16 H16         30.2703  34.2913  38.6870 H              1 <1>                0.0000
     17 H17         28.8385  34.0605  39.7191 H              1 <1>                0.0000
     18 H18         28.6400  34.3643  37.9766 H              1 <1>                0.0000
     19 H19         29.9925  37.4999  40.5542 H              1 <1>                0.0000
     20 H20         29.6284  35.8916  41.2244 H              1 <1>                0.0000
     21 H21         31.0602  36.1224  40.1923 H              1 <1>                0.0000
     22 H22         27.6738  37.7452  37.6103 H              1 <1>                0.0000
     23 H23         25.3442  38.4370  37.9888 H              1 <1>                0.0000
     24 H24         24.1123  37.6090  39.9523 H              1 <1>                0.0000
     25 H25         24.1371  36.2462  41.9499 H              1 <1>                0.0000
     26 H26         25.4904  35.3724  42.4271 H              1 <1>                0.0000
     27 H27         27.1925  35.0653  42.1611 H              1 <1>                0.0000
@<TRIPOS>BOND
    1    1    2 1     
    2    1   13 1     
    3    1   14 1     
    4    1   15 1     
    5    2    3 1     
    6    2    4 1     
    7    2    5 1     
    8    3   16 1     
    9    3   17 1     
   10    3   18 1     
   11    4   19 1     
   12    4   20 1     
   13    4   21 1     
   14    5    6 ar    
   15    5   11 ar    
   16    6    7 ar    
   17    6   22 1     
   18    7    8 ar    
   19    7   23 1     
   20    8    9 ar    
   21    8   24 1     
   22    9   10 1     
   23    9   11 ar    
   24   10   25 1     
   25   10   26 1     
   26   11   12 1     
   27   12   27 1     
@<TRIPOS>SUBSTRUCTURE
      1 ****           1
@<TRIPOS>SET
DONOR_HYDROGENS      STATIC     ATOMS    <user>   **** ""
3 25 26 27
ATOM$RED        STATIC     ATOMS    COLORGROUP SYSTEM
3 25 26 27
@<TRIPOS>COMMENT
> <Gold.Version>
2022.2.0

> <Gold.Id.Protein>
1qkm|1qkm_protein|mol2

> <Gold.Protein.RotatedTorsions>
[  496  491  490  487 ] final -120.21 input  -89.99 | X-H torsion

> <Gold.Protein.ActiveResidues>
 MET295  LEU298  THR299  LEU301  ALA302  GLU305  TRP335  MET336  LEU339  MET340 
 GLY342  LEU343  ARG346  PHE356  ILE373  ILE376  PHE377  LEU380  LYS471  GLY472 
 MET473  HIS475  LEU476  LEU477  ASN478  MET479  VAL484  VAL487 

> <Gold.Protein.RotatedAtoms>
   37.0278   34.3534   40.7991 H   0  0  0  0  0  0  0  0  0  0  0  0  # atno 496  bound_to 491 

> <Gold.Score>
     Score     S(PLP)   S(hbond)     S(cho)   S(metal)  DE(clash)   DE(tors)     intcor
     41.28     -35.30       2.00       0.00       0.00       7.22       0.07       7.36

> <Gold.PLP.Fitness>
41.2844

> <Gold.PLP.PLP>
-35.3021

> <Gold.PLP.part.hbond>
-2.3737

> <Gold.PLP.part.metal>
0.0000

> <Gold.PLP.part.buried>
0.7728

> <Gold.PLP.part.nonpolar>
-35.3996

> <Gold.PLP.part.repulsive>
0.4281

> <Gold.PLP.ligand.clash>
7.2249

> <Gold.PLP.ligand.torsion>
0.0743

> <Gold.PLP.Chemscore.Hbond>
2.0000

> <Gold.PLP.Chemscore.CHOScore>
0.0000

> <Gold.PLP.Chemscore.Metal>
0.0000

> <Gold.Chemscore.Hbonds>
donor molecule, donor type, donor heavy atom, donor atom, acceptor molecule, acceptor atom, score
      L1  H    10    26       P1   582  1.00
      L1  H    12    27       P1   582  1.00

> <Gold.PLP.Chemscore.Internal.Correction>
7.3558

