#       Name:                EN300-153159_i001
#       Creating user name   aseyller
#       Creation time:       Fri Apr 21 16:46:29 2023


#       File generated by GOLD software.
#

@<TRIPOS>MOLECULE
EN300-153159_i001|aminophenols|mol2|120|dock3
    27    27     1
SMALL
USER_CHARGES


@<TRIPOS>ATOM
      1 C1          28.7071  36.4346  41.0730 C.3            1 <1>                0.0000
      2 C2          28.2569  36.2397  39.6237 C.3            1 <1>                0.0000
      3 C3          28.0960  34.7456  39.3362 C.3            1 <1>                0.0000
      4 C4          26.9183  36.9480  39.4058 C.3            1 <1>                0.0000
      5 C5          29.2903  36.8217  38.6941 C.ar           1 <1>                0.0000
      6 C6          28.9734  37.9114  37.9031 C.ar           1 <1>                0.0000
      7 C7          29.9182  38.4486  37.0494 C.ar           1 <1>                0.0000
      8 C8          31.1854  37.8995  36.9817 C.ar           1 <1>                0.0000
      9 C9          31.5103  36.8069  37.7717 C.ar           1 <1>                0.0000
     10 N10         32.7923  36.2492  37.7048 N.pl3          1 <1>                0.0000
     11 C11         30.5586  36.2692  38.6360 C.ar           1 <1>                0.0000
     12 O12         30.8716  35.1978  39.4132 O.3            1 <1>                0.0000
     13 H13         29.6607  35.9300  41.2282 H              1 <1>                0.0000
     14 H14         28.8216  37.4990  41.2779 H              1 <1>                0.0000
     15 H15         27.9596  36.0136  41.7453 H              1 <1>                0.0000
     16 H16         27.3486  34.3246  40.0086 H              1 <1>                0.0000
     17 H17         27.7754  34.6067  38.3037 H              1 <1>                0.0000
     18 H18         29.0496  34.2410  39.4914 H              1 <1>                0.0000
     19 H19         27.0329  38.0124  39.6107 H              1 <1>                0.0000
     20 H20         26.5976  36.8092  38.3734 H              1 <1>                0.0000
     21 H21         26.1708  36.5270  40.0783 H              1 <1>                0.0000
     22 H22         27.9847  38.3434  37.9526 H              1 <1>                0.0000
     23 H23         29.6662  39.2992  36.4334 H              1 <1>                0.0000
     24 H24         31.9217  38.3210  36.3134 H              1 <1>                0.0000
     25 H25         33.4548  36.6267  37.1053 H              1 <1>                0.0000
     26 H26         33.0181  35.4850  38.2580 H              1 <1>                0.0000
     27 H27         31.0671  35.4229  40.3331 H              1 <1>                0.0000
@<TRIPOS>BOND
    1    1    2 1     
    2    1   13 1     
    3    1   14 1     
    4    1   15 1     
    5    2    3 1     
    6    2    4 1     
    7    2    5 1     
    8    3   16 1     
    9    3   17 1     
   10    3   18 1     
   11    4   19 1     
   12    4   20 1     
   13    4   21 1     
   14    5    6 ar    
   15    5   11 ar    
   16    6    7 ar    
   17    6   22 1     
   18    7    8 ar    
   19    7   23 1     
   20    8    9 ar    
   21    8   24 1     
   22    9   10 1     
   23    9   11 ar    
   24   10   25 1     
   25   10   26 1     
   26   11   12 1     
   27   12   27 1     
@<TRIPOS>SUBSTRUCTURE
      1 ****           1
@<TRIPOS>SET
DONOR_HYDROGENS      STATIC     ATOMS    <user>   **** ""
3 25 26 27
ATOM$RED        STATIC     ATOMS    COLORGROUP SYSTEM
3 25 26 27
@<TRIPOS>COMMENT
> <Gold.Version>
2022.2.0

> <Gold.Id.Protein>
1qkm|1qkm_protein|mol2

> <Gold.Protein.RotatedTorsions>
[  496  491  490  487 ] final  -40.56 input  -89.99 | X-H torsion

> <Gold.Protein.ActiveResidues>
 MET295  LEU298  THR299  LEU301  ALA302  GLU305  TRP335  MET336  LEU339  MET340 
 GLY342  LEU343  ARG346  PHE356  ILE373  ILE376  PHE377  LEU380  LYS471  GLY472 
 MET473  HIS475  LEU476  LEU477  ASN478  MET479  VAL484  VAL487 

> <Gold.Protein.RotatedAtoms>
   36.3664   34.6537   41.7644 H   0  0  0  0  0  0  0  0  0  0  0  0  # atno 496  bound_to 491 

> <Gold.Score>
     Score     S(PLP)   S(hbond)     S(cho)   S(metal)  DE(clash)   DE(tors)     intcor
     40.60     -37.61       1.00       0.00       0.00       7.21       0.08       7.36

> <Gold.PLP.Fitness>
40.5955

> <Gold.PLP.PLP>
-37.6098

> <Gold.PLP.part.hbond>
-1.0000

> <Gold.PLP.part.metal>
0.0000

> <Gold.PLP.part.buried>
-2.9243

> <Gold.PLP.part.nonpolar>
-33.9761

> <Gold.PLP.part.repulsive>
0.0348

> <Gold.PLP.ligand.clash>
7.2096

> <Gold.PLP.ligand.torsion>
0.0802

> <Gold.PLP.Chemscore.Hbond>
1.0000

> <Gold.PLP.Chemscore.CHOScore>
0.0000

> <Gold.PLP.Chemscore.Metal>
0.0000

> <Gold.Chemscore.Hbonds>
donor molecule, donor type, donor heavy atom, donor atom, acceptor molecule, acceptor atom, score
      L1  H    12    27       P1   470  1.00

> <Gold.PLP.Chemscore.Internal.Correction>
7.3558

