#       Name:                EN300-153159_i001
#       Creating user name   aseyller
#       Creation time:       Fri Apr 21 16:46:36 2023


#       File generated by GOLD software.
#

@<TRIPOS>MOLECULE
EN300-153159_i001|aminophenols|mol2|120|dock17
    27    27     1
SMALL
USER_CHARGES


@<TRIPOS>ATOM
      1 C1          32.1346  38.4651  36.4480 C.3            1 <1>                0.0000
      2 C2          30.6128  38.5934  36.5414 C.3            1 <1>                0.0000
      3 C3          30.2461  40.0174  36.9642 C.3            1 <1>                0.0000
      4 C4          29.9908  38.2905  35.1767 C.3            1 <1>                0.0000
      5 C5          30.0878  37.6158  37.5609 C.ar           1 <1>                0.0000
      6 C6          30.9493  36.7184  38.1659 C.ar           1 <1>                0.0000
      7 C7          30.4721  35.8203  39.1018 C.ar           1 <1>                0.0000
      8 C8          29.1310  35.8143  39.4382 C.ar           1 <1>                0.0000
      9 C9          28.2614  36.7111  38.8357 C.ar           1 <1>                0.0000
     10 N10         26.9034  36.7069  39.1744 N.pl3          1 <1>                0.0000
     11 C11         28.7444  37.6198  37.8960 C.ar           1 <1>                0.0000
     12 O12         27.8962  38.5016  37.3019 O.3            1 <1>                0.0000
     13 H13         32.5778  38.6809  37.4202 H              1 <1>                0.0000
     14 H14         32.3959  37.4507  36.1467 H              1 <1>                0.0000
     15 H15         32.5143  39.1723  35.7106 H              1 <1>                0.0000
     16 H16         30.6259  40.7246  36.2268 H              1 <1>                0.0000
     17 H17         29.1620  40.1089  37.0308 H              1 <1>                0.0000
     18 H18         30.6893  40.2332  37.9363 H              1 <1>                0.0000
     19 H19         30.2520  37.2761  34.8754 H              1 <1>                0.0000
     20 H20         28.9067  38.3820  35.2432 H              1 <1>                0.0000
     21 H21         30.3706  38.9977  34.4393 H              1 <1>                0.0000
     22 H22         31.9976  36.7193  37.9060 H              1 <1>                0.0000
     23 H23         31.1483  35.1212  39.5714 H              1 <1>                0.0000
     24 H24         28.7606  35.1111  40.1695 H              1 <1>                0.0000
     25 H25         26.5692  36.0762  39.8312 H              1 <1>                0.0000
     26 H26         26.2963  37.3347  38.7522 H              1 <1>                0.0000
     27 H27         26.9973  38.4834  37.6579 H              1 <1>                0.0000
@<TRIPOS>BOND
    1    1    2 1     
    2    1   13 1     
    3    1   14 1     
    4    1   15 1     
    5    2    3 1     
    6    2    4 1     
    7    2    5 1     
    8    3   16 1     
    9    3   17 1     
   10    3   18 1     
   11    4   19 1     
   12    4   20 1     
   13    4   21 1     
   14    5    6 ar    
   15    5   11 ar    
   16    6    7 ar    
   17    6   22 1     
   18    7    8 ar    
   19    7   23 1     
   20    8    9 ar    
   21    8   24 1     
   22    9   10 1     
   23    9   11 ar    
   24   10   25 1     
   25   10   26 1     
   26   11   12 1     
   27   12   27 1     
@<TRIPOS>SUBSTRUCTURE
      1 ****           1
@<TRIPOS>SET
DONOR_HYDROGENS      STATIC     ATOMS    <user>   **** ""
3 25 26 27
ATOM$RED        STATIC     ATOMS    COLORGROUP SYSTEM
3 25 26 27
@<TRIPOS>COMMENT
> <Gold.Version>
2022.2.0

> <Gold.Id.Protein>
1qkm|1qkm_protein|mol2

> <Gold.Protein.RotatedTorsions>
[  496  491  490  487 ] final  -76.25 input  -89.99 | X-H torsion

> <Gold.Protein.ActiveResidues>
 MET295  LEU298  THR299  LEU301  ALA302  GLU305  TRP335  MET336  LEU339  MET340 
 GLY342  LEU343  ARG346  PHE356  ILE373  ILE376  PHE377  LEU380  LYS471  GLY472 
 MET473  HIS475  LEU476  LEU477  ASN478  MET479  VAL484  VAL487 

> <Gold.Protein.RotatedAtoms>
   36.6325   34.7193   41.2554 H   0  0  0  0  0  0  0  0  0  0  0  0  # atno 496  bound_to 491 

> <Gold.Score>
     Score     S(PLP)   S(hbond)     S(cho)   S(metal)  DE(clash)   DE(tors)     intcor
     35.20     -35.22       0.00       0.00       0.00       7.24       0.07       7.36

> <Gold.PLP.Fitness>
35.2009

> <Gold.PLP.PLP>
-35.2237

> <Gold.PLP.part.hbond>
0.0000

> <Gold.PLP.part.metal>
0.0000

> <Gold.PLP.part.buried>
-2.2792

> <Gold.PLP.part.nonpolar>
-32.8302

> <Gold.PLP.part.repulsive>
0.0214

> <Gold.PLP.ligand.clash>
7.2368

> <Gold.PLP.ligand.torsion>
0.0707

> <Gold.PLP.Chemscore.Hbond>
0.0000

> <Gold.PLP.Chemscore.CHOScore>
0.0000

> <Gold.PLP.Chemscore.Metal>
0.0000

> <Gold.PLP.Chemscore.Internal.Correction>
7.3554

