#       Name:                EN300-153159_i001
#       Creating user name   aseyller
#       Creation time:       Fri Apr 21 16:46:37 2023


#       File generated by GOLD software.
#

@<TRIPOS>MOLECULE
EN300-153159_i001|aminophenols|mol2|120|dock19
    27    27     1
SMALL
USER_CHARGES


@<TRIPOS>ATOM
      1 C1          27.4400  34.7495  40.7395 C.3            1 <1>                0.0000
      2 C2          27.3294  36.2713  40.8537 C.3            1 <1>                0.0000
      3 C3          25.8737  36.6580  41.1232 C.3            1 <1>                0.0000
      4 C4          28.2089  36.7616  42.0056 C.3            1 <1>                0.0000
      5 C5          27.7877  36.9063  39.5662 C.ar           1 <1>                0.0000
      6 C6          26.8886  37.6069  38.7824 C.ar           1 <1>                0.0000
      7 C7          27.3048  38.1912  37.6011 C.ar           1 <1>                0.0000
      8 C8          28.6222  38.0784  37.1967 C.ar           1 <1>                0.0000
      9 C9          29.5291  37.3774  37.9773 C.ar           1 <1>                0.0000
     10 N10         30.8632  37.2617  37.5699 N.pl3          1 <1>                0.0000
     11 C11         29.1098  36.7930  39.1709 C.ar           1 <1>                0.0000
     12 O12         29.9949  36.1044  39.9406 O.3            1 <1>                0.0000
     13 H13         26.8133  34.4002  39.9189 H              1 <1>                0.0000
     14 H14         28.4769  34.4740  40.5476 H              1 <1>                0.0000
     15 H15         27.1084  34.2903  41.6708 H              1 <1>                0.0000
     16 H16         25.5422  36.1987  42.0544 H              1 <1>                0.0000
     17 H17         25.7949  37.7421  41.2044 H              1 <1>                0.0000
     18 H18         25.2471  36.3087  40.3026 H              1 <1>                0.0000
     19 H19         29.2459  36.4861  41.8137 H              1 <1>                0.0000
     20 H20         28.1301  37.8457  42.0870 H              1 <1>                0.0000
     21 H21         27.8774  36.3022  42.9369 H              1 <1>                0.0000
     22 H22         25.8586  37.6973  39.0944 H              1 <1>                0.0000
     23 H23         26.5993  38.7370  36.9922 H              1 <1>                0.0000
     24 H24         28.9446  38.5356  36.2728 H              1 <1>                0.0000
     25 H25         31.1545  37.6719  36.7407 H              1 <1>                0.0000
     26 H26         31.4964  36.7711  38.1170 H              1 <1>                0.0000
     27 H27         30.0770  36.4418  40.8431 H              1 <1>                0.0000
@<TRIPOS>BOND
    1    1    2 1     
    2    1   13 1     
    3    1   14 1     
    4    1   15 1     
    5    2    3 1     
    6    2    4 1     
    7    2    5 1     
    8    3   16 1     
    9    3   17 1     
   10    3   18 1     
   11    4   19 1     
   12    4   20 1     
   13    4   21 1     
   14    5    6 ar    
   15    5   11 ar    
   16    6    7 ar    
   17    6   22 1     
   18    7    8 ar    
   19    7   23 1     
   20    8    9 ar    
   21    8   24 1     
   22    9   10 1     
   23    9   11 ar    
   24   10   25 1     
   25   10   26 1     
   26   11   12 1     
   27   12   27 1     
@<TRIPOS>SUBSTRUCTURE
      1 ****           1
@<TRIPOS>SET
DONOR_HYDROGENS      STATIC     ATOMS    <user>   **** ""
3 25 26 27
ATOM$RED        STATIC     ATOMS    COLORGROUP SYSTEM
3 25 26 27
@<TRIPOS>COMMENT
> <Gold.Version>
2022.2.0

> <Gold.Id.Protein>
1qkm|1qkm_protein|mol2

> <Gold.Protein.RotatedTorsions>
[  496  491  490  487 ] final  166.41 input  -89.99 | X-H torsion

> <Gold.Protein.ActiveResidues>
 MET295  LEU298  THR299  LEU301  ALA302  GLU305  TRP335  MET336  LEU339  MET340 
 GLY342  LEU343  ARG346  PHE356  ILE373  ILE376  PHE377  LEU380  LYS471  GLY472 
 MET473  HIS475  LEU476  LEU477  ASN478  MET479  VAL484  VAL487 

> <Gold.Protein.RotatedAtoms>
   37.3104   33.2805   40.9976 H   0  0  0  0  0  0  0  0  0  0  0  0  # atno 496  bound_to 491 

> <Gold.Score>
     Score     S(PLP)   S(hbond)     S(cho)   S(metal)  DE(clash)   DE(tors)     intcor
     36.66     -36.68       0.00       0.00       0.00       7.20       0.09       7.36

> <Gold.PLP.Fitness>
36.6614

> <Gold.PLP.PLP>
-36.6770

> <Gold.PLP.part.hbond>
-1.0000

> <Gold.PLP.part.metal>
0.0000

> <Gold.PLP.part.buried>
-3.4796

> <Gold.PLP.part.nonpolar>
-32.2533

> <Gold.PLP.part.repulsive>
0.0000

> <Gold.PLP.ligand.clash>
7.1997

> <Gold.PLP.ligand.torsion>
0.0857

> <Gold.PLP.Chemscore.Hbond>
0.0000

> <Gold.PLP.Chemscore.CHOScore>
0.0000

> <Gold.PLP.Chemscore.Metal>
0.0000

> <Gold.PLP.Chemscore.Internal.Correction>
7.3554

