#       Name:                EN300-153159_i001
#       Creating user name   aseyller
#       Creation time:       Fri Apr 21 16:46:30 2023


#       File generated by GOLD software.
#

@<TRIPOS>MOLECULE
EN300-153159_i001|aminophenols|mol2|120|dock5
    27    27     1
SMALL
USER_CHARGES


@<TRIPOS>ATOM
      1 C1          32.0726  38.2405  34.3987 C.3            1 <1>                0.0000
      2 C2          31.0197  38.2022  35.5082 C.3            1 <1>                0.0000
      3 C3          30.9221  39.5800  36.1664 C.3            1 <1>                0.0000
      4 C4          29.6626  37.8252  34.9106 C.3            1 <1>                0.0000
      5 C5          31.4154  37.1790  36.5412 C.ar           1 <1>                0.0000
      6 C6          32.5238  36.3782  36.3320 C.ar           1 <1>                0.0000
      7 C7          32.8905  35.4387  37.2770 C.ar           1 <1>                0.0000
      8 C8          32.1512  35.2944  38.4365 C.ar           1 <1>                0.0000
      9 C9          31.0388  36.0937  38.6531 C.ar           1 <1>                0.0000
     10 N10         30.2888  35.9495  39.8260 N.pl3          1 <1>                0.0000
     11 C11         30.6728  37.0444  37.7021 C.ar           1 <1>                0.0000
     12 O12         29.5828  37.8311  37.9091 O.3            1 <1>                0.0000
     13 H13         33.0394  38.5092  34.8245 H              1 <1>                0.0000
     14 H14         32.1421  37.2591  33.9298 H              1 <1>                0.0000
     15 H15         31.7863  38.9807  33.6516 H              1 <1>                0.0000
     16 H16         30.6359  40.3202  35.4193 H              1 <1>                0.0000
     17 H17         30.1720  39.5527  36.9569 H              1 <1>                0.0000
     18 H18         31.8888  39.8486  36.5921 H              1 <1>                0.0000
     19 H19         29.7321  36.8438  34.4417 H              1 <1>                0.0000
     20 H20         28.9125  37.7980  35.7010 H              1 <1>                0.0000
     21 H21         29.3764  38.5655  34.1634 H              1 <1>                0.0000
     22 H22         33.1040  36.4872  35.4276 H              1 <1>                0.0000
     23 H23         33.7564  34.8154  37.1093 H              1 <1>                0.0000
     24 H24         32.4398  34.5592  39.1732 H              1 <1>                0.0000
     25 H25         30.5467  35.2899  40.4887 H              1 <1>                0.0000
     26 H26         29.5109  36.5093  39.9761 H              1 <1>                0.0000
     27 H27         29.0754  37.6001  38.6993 H              1 <1>                0.0000
@<TRIPOS>BOND
    1    1    2 1     
    2    1   13 1     
    3    1   14 1     
    4    1   15 1     
    5    2    3 1     
    6    2    4 1     
    7    2    5 1     
    8    3   16 1     
    9    3   17 1     
   10    3   18 1     
   11    4   19 1     
   12    4   20 1     
   13    4   21 1     
   14    5    6 ar    
   15    5   11 ar    
   16    6    7 ar    
   17    6   22 1     
   18    7    8 ar    
   19    7   23 1     
   20    8    9 ar    
   21    8   24 1     
   22    9   10 1     
   23    9   11 ar    
   24   10   25 1     
   25   10   26 1     
   26   11   12 1     
   27   12   27 1     
@<TRIPOS>SUBSTRUCTURE
      1 ****           1
@<TRIPOS>SET
DONOR_HYDROGENS      STATIC     ATOMS    <user>   **** ""
3 25 26 27
ATOM$RED        STATIC     ATOMS    COLORGROUP SYSTEM
3 25 26 27
@<TRIPOS>COMMENT
> <Gold.Version>
2022.2.0

> <Gold.Id.Protein>
1qkm|1qkm_protein|mol2

> <Gold.Protein.RotatedTorsions>
[  496  491  490  487 ] final -131.73 input  -89.99 | X-H torsion

> <Gold.Protein.ActiveResidues>
 MET295  LEU298  THR299  LEU301  ALA302  GLU305  TRP335  MET336  LEU339  MET340 
 GLY342  LEU343  ARG346  PHE356  ILE373  ILE376  PHE377  LEU380  LYS471  GLY472 
 MET473  HIS475  LEU476  LEU477  ASN478  MET479  VAL484  VAL487 

> <Gold.Protein.RotatedAtoms>
   37.1175   34.1961   40.7436 H   0  0  0  0  0  0  0  0  0  0  0  0  # atno 496  bound_to 491 

> <Gold.Score>
     Score     S(PLP)   S(hbond)     S(cho)   S(metal)  DE(clash)   DE(tors)     intcor
     38.39     -36.11       0.76       0.00       0.00       7.19       0.09       7.36

> <Gold.PLP.Fitness>
38.3905

> <Gold.PLP.PLP>
-36.1070

> <Gold.PLP.part.hbond>
-1.0000

> <Gold.PLP.part.metal>
0.0000

> <Gold.PLP.part.buried>
-3.0461

> <Gold.PLP.part.nonpolar>
-32.5983

> <Gold.PLP.part.repulsive>
0.0559

> <Gold.PLP.ligand.clash>
7.1941

> <Gold.PLP.ligand.torsion>
0.0857

> <Gold.PLP.Chemscore.Hbond>
0.7644

> <Gold.PLP.Chemscore.CHOScore>
0.0000

> <Gold.PLP.Chemscore.Metal>
0.0000

> <Gold.Chemscore.Hbonds>
donor molecule, donor type, donor heavy atom, donor atom, acceptor molecule, acceptor atom, score
      L1  H    10    25       P1   470  0.76

> <Gold.PLP.Chemscore.Internal.Correction>
7.3558

