#       Name:                EN300-153159_i001
#       Creating user name   aseyller
#       Creation time:       Fri Apr 21 16:46:31 2023


#       File generated by GOLD software.
#

@<TRIPOS>MOLECULE
EN300-153159_i001|aminophenols|mol2|120|dock9
    27    27     1
SMALL
USER_CHARGES


@<TRIPOS>ATOM
      1 C1          28.6036  37.3668  36.9444 C.3            1 <1>                0.0000
      2 C2          29.8414  37.8723  37.6883 C.3            1 <1>                0.0000
      3 C3          29.9597  39.3874  37.5107 C.3            1 <1>                0.0000
      4 C4          29.7123  37.5419  39.1766 C.3            1 <1>                0.0000
      5 C5          31.0710  37.2036  37.1300 C.ar           1 <1>                0.0000
      6 C6          31.8103  36.3436  37.9221 C.ar           1 <1>                0.0000
      7 C7          32.9385  35.7278  37.4141 C.ar           1 <1>                0.0000
      8 C8          33.3340  35.9684  36.1112 C.ar           1 <1>                0.0000
      9 C9          32.5978  36.8294  35.3112 C.ar           1 <1>                0.0000
     10 N10         32.9963  37.0746  33.9921 N.pl3          1 <1>                0.0000
     11 C11         31.4574  37.4457  35.8227 C.ar           1 <1>                0.0000
     12 O12         30.7315  38.2911  35.0427 O.3            1 <1>                0.0000
     13 H13         28.6956  37.6022  35.8841 H              1 <1>                0.0000
     14 H14         28.5193  36.2875  37.0709 H              1 <1>                0.0000
     15 H15         27.7143  37.8506  37.3481 H              1 <1>                0.0000
     16 H16         29.0703  39.8712  37.9144 H              1 <1>                0.0000
     17 H17         30.8415  39.7476  38.0406 H              1 <1>                0.0000
     18 H18         30.0517  39.6228  36.4504 H              1 <1>                0.0000
     19 H19         29.6280  36.4626  39.3032 H              1 <1>                0.0000
     20 H20         30.5940  37.9021  39.7066 H              1 <1>                0.0000
     21 H21         28.8228  38.0256  39.5803 H              1 <1>                0.0000
     22 H22         31.5052  36.1531  38.9405 H              1 <1>                0.0000
     23 H23         33.5128  35.0575  38.0363 H              1 <1>                0.0000
     24 H24         34.2163  35.4862  35.7168 H              1 <1>                0.0000
     25 H25         33.7882  36.6421  33.6362 H              1 <1>                0.0000
     26 H26         32.4803  37.6770  33.4337 H              1 <1>                0.0000
     27 H27         30.5200  37.9357  34.1686 H              1 <1>                0.0000
@<TRIPOS>BOND
    1    1    2 1     
    2    1   13 1     
    3    1   14 1     
    4    1   15 1     
    5    2    3 1     
    6    2    4 1     
    7    2    5 1     
    8    3   16 1     
    9    3   17 1     
   10    3   18 1     
   11    4   19 1     
   12    4   20 1     
   13    4   21 1     
   14    5    6 ar    
   15    5   11 ar    
   16    6    7 ar    
   17    6   22 1     
   18    7    8 ar    
   19    7   23 1     
   20    8    9 ar    
   21    8   24 1     
   22    9   10 1     
   23    9   11 ar    
   24   10   25 1     
   25   10   26 1     
   26   11   12 1     
   27   12   27 1     
@<TRIPOS>SUBSTRUCTURE
      1 ****           1
@<TRIPOS>SET
DONOR_HYDROGENS      STATIC     ATOMS    <user>   **** ""
3 25 26 27
ATOM$RED        STATIC     ATOMS    COLORGROUP SYSTEM
3 25 26 27
@<TRIPOS>COMMENT
> <Gold.Version>
2022.2.0

> <Gold.Id.Protein>
1qkm|1qkm_protein|mol2

> <Gold.Protein.RotatedTorsions>
[  496  491  490  487 ] final   10.08 input  -89.99 | X-H torsion

> <Gold.Protein.ActiveResidues>
 MET295  LEU298  THR299  LEU301  ALA302  GLU305  TRP335  MET336  LEU339  MET340 
 GLY342  LEU343  ARG346  PHE356  ILE373  ILE376  PHE377  LEU380  LYS471  GLY472 
 MET473  HIS475  LEU476  LEU477  ASN478  MET479  VAL484  VAL487 

> <Gold.Protein.RotatedAtoms>
   36.2734   34.0651   42.3082 H   0  0  0  0  0  0  0  0  0  0  0  0  # atno 496  bound_to 491 

> <Gold.Score>
     Score     S(PLP)   S(hbond)     S(cho)   S(metal)  DE(clash)   DE(tors)     intcor
     37.11     -37.11       0.00       0.00       0.00       7.18       0.09       7.36

> <Gold.PLP.Fitness>
37.1073

> <Gold.PLP.PLP>
-37.1081

> <Gold.PLP.part.hbond>
-1.8895

> <Gold.PLP.part.metal>
0.0000

> <Gold.PLP.part.buried>
-3.2570

> <Gold.PLP.part.nonpolar>
-31.9810

> <Gold.PLP.part.repulsive>
0.0836

> <Gold.PLP.ligand.clash>
7.1838

> <Gold.PLP.ligand.torsion>
0.0864

> <Gold.PLP.Chemscore.Hbond>
0.0000

> <Gold.PLP.Chemscore.CHOScore>
0.0000

> <Gold.PLP.Chemscore.Metal>
0.0000

> <Gold.PLP.Chemscore.Internal.Correction>
7.3558

