#       Name:                plp ligand
#       Creating user name   aseyller
#       Creation time:       Fri Apr 21 16:46:28 2023


#       File generated by GOLD software.
#

@<TRIPOS>MOLECULE
plp ligand
    27    27     1
SMALL
USER_CHARGES


@<TRIPOS>ATOM
      1 C1           2.3129   1.1797   0.0195 NONPOLAR       1 <1>                0.0000
      2 C2           1.4257  -0.0668   0.0333 NONPOLAR       1 <1>                0.0000
      3 C3           1.7168  -0.9137  -1.2073 NONPOLAR       1 <1>                0.0000
      4 C4           1.7185  -0.8873   1.2911 NONPOLAR       1 <1>                0.0000
      5 C5          -0.0231   0.3477   0.0299 NONPOLAR       1 <1>                0.0000
      6 C6          -0.3583   1.6897   0.0160 NONPOLAR       1 <1>                0.0000
      7 C7          -1.6858   2.0743   0.0124 NONPOLAR       1 <1>                0.0000
      8 C8          -2.6857   1.1194   0.0227 NONPOLAR       1 <1>                0.0000
      9 C9          -2.3572  -0.2279   0.0367 NONPOLAR       1 <1>                0.0000
     10 N10         -3.3676  -1.1964   0.0473 DONOR          1 <1>                0.0000
     11 C11         -1.0184  -0.6148   0.0350 NONPOLAR       1 <1>                0.0000
     12 O12         -0.6903  -1.9347   0.0487 DONACC         1 <1>                0.0000
     13 H13          2.1043   1.7642  -0.8766                1 <1>                0.0000
     14 H14          2.1056   1.7830   0.9033                1 <1>                0.0000
     15 H15          3.3608   0.8798   0.0219                1 <1>                0.0000
     16 H16          2.7647  -1.2135  -1.2049                1 <1>                0.0000
     17 H17          1.0847  -1.8017  -1.1975                1 <1>                0.0000
     18 H18          1.5082  -0.3292  -2.1033                1 <1>                0.0000
     19 H19          1.5112  -0.2840   2.1749                1 <1>                0.0000
     20 H20          1.0865  -1.7753   1.3009                1 <1>                0.0000
     21 H21          2.7665  -1.1871   1.2935                1 <1>                0.0000
     22 H22          0.4195   2.4390   0.0082                1 <1>                0.0000
     23 H23         -1.9428   3.1232   0.0019                1 <1>                0.0000
     24 H24         -3.7223   1.4227   0.0203                1 <1>                0.0000
     25 H25         -4.2990  -0.9257   0.0449                1 <1>                0.0000
     26 H26         -3.1363  -2.1384   0.0571                1 <1>                0.0000
     27 H27         -0.5994  -2.3265  -0.8307                1 <1>                0.0000
@<TRIPOS>BOND
    1    1    2 1     
    2    1   13 1     
    3    1   14 1     
    4    1   15 1     
    5    2    3 1     
    6    2    4 1     
    7    2    5 1     
    8    3   16 1     
    9    3   17 1     
   10    3   18 1     
   11    4   19 1     
   12    4   20 1     
   13    4   21 1     
   14    5    6 ar    
   15    5   11 ar    
   16    6    7 ar    
   17    6   22 1     
   18    7    8 ar    
   19    7   23 1     
   20    8    9 ar    
   21    8   24 1     
   22    9   10 1     
   23    9   11 ar    
   24   10   25 1     
   25   10   26 1     
   26   11   12 1     
   27   12   27 1     
@<TRIPOS>SUBSTRUCTURE
      1 ****           1
@<TRIPOS>SET
DONOR_HYDROGENS      STATIC     ATOMS    <user>   **** ""
3 25 26 27
ATOM$RED        STATIC     ATOMS    COLORGROUP SYSTEM
3 25 26 27
