#       Name:                EN300-717561_i001
#       Creating user name   aseyller
#       Creation time:       Fri Apr 21 16:35:50 2023


#       File generated by GOLD software.
#

@<TRIPOS>MOLECULE
EN300-717561_i001|aminophenols|mol2|68|dock11
    26    27     1
SMALL
USER_CHARGES


@<TRIPOS>ATOM
      1 N1          29.3991  35.8241  40.9748 N.pl3          1 <1>                0.0000
      2 C2          28.9874  36.4801  39.8091 C.ar           1 <1>                0.0000
      3 C3          29.8893  37.2498  39.0897 C.ar           1 <1>                0.0000
      4 C4          29.4785  37.8982  37.9348 C.ar           1 <1>                0.0000
      5 O5          30.3619  38.6527  37.2284 O.3            1 <1>                0.0000
      6 C6          31.2831  38.0088  36.4648 C.ar           1 <1>                0.0000
      7 C7          31.4633  38.3732  35.1382 C.ar           1 <1>                0.0000
      8 C8          32.4008  37.7173  34.3642 C.ar           1 <1>                0.0000
      9 C9          33.1593  36.6983  34.9105 C.ar           1 <1>                0.0000
     10 C10         32.9813  36.3329  36.2321 C.ar           1 <1>                0.0000
     11 C11         32.0493  36.9894  37.0120 C.ar           1 <1>                0.0000
     12 C12         28.1669  37.7772  37.4994 C.ar           1 <1>                0.0000
     13 C13         27.2661  37.0108  38.2154 C.ar           1 <1>                0.0000
     14 C14         27.6725  36.3564  39.3662 C.ar           1 <1>                0.0000
     15 O15         26.7851  35.6019  40.0699 O.3            1 <1>                0.0000
     16 H16         30.9104  37.3444  39.4287 H              1 <1>                0.0000
     17 H17         30.8709  39.1688  34.7109 H              1 <1>                0.0000
     18 H18         32.5412  38.0003  33.3314 H              1 <1>                0.0000
     19 H19         33.8918  36.1867  34.3037 H              1 <1>                0.0000
     20 H20         33.5746  35.5363  36.6562 H              1 <1>                0.0000
     21 H21         31.9109  36.7039  38.0444 H              1 <1>                0.0000
     22 H22         27.8487  38.2830  36.5998 H              1 <1>                0.0000
     23 H23         26.2454  36.9189  37.8745 H              1 <1>                0.0000
     24 H24         30.3160  35.9076  41.2802 H              1 <1>                0.0000
     25 H25         28.7667  35.2892  41.4795 H              1 <1>                0.0000
     26 H26         26.8828  35.6723  41.0294 H              1 <1>                0.0000
@<TRIPOS>BOND
    1    1    2 1     
    2    1   24 1     
    3    1   25 1     
    4    2    3 ar    
    5    2   14 ar    
    6    3    4 ar    
    7    3   16 1     
    8    4    5 1     
    9    4   12 ar    
   10    5    6 1     
   11    6    7 ar    
   12    6   11 ar    
   13    7    8 ar    
   14    7   17 1     
   15    8    9 ar    
   16    8   18 1     
   17    9   10 ar    
   18    9   19 1     
   19   10   11 ar    
   20   10   20 1     
   21   11   21 1     
   22   12   13 ar    
   23   12   22 1     
   24   13   14 ar    
   25   13   23 1     
   26   14   15 1     
   27   15   26 1     
@<TRIPOS>SUBSTRUCTURE
      1 ****           1
@<TRIPOS>SET
DONOR_HYDROGENS      STATIC     ATOMS    <user>   **** ""
3 24 25 26
ATOM$RED        STATIC     ATOMS    COLORGROUP SYSTEM
3 24 25 26
@<TRIPOS>COMMENT
> <Gold.Version>
2022.2.0

> <Gold.Id.Protein>
1qkm|1qkm_protein|mol2

> <Gold.Protein.RotatedTorsions>
[  496  491  490  487 ] final    4.31 input  -89.99 | X-H torsion

> <Gold.Protein.ActiveResidues>
 MET295  LEU298  THR299  LEU301  ALA302  GLU305  TRP335  MET336  LEU339  MET340 
 GLY342  LEU343  ARG346  PHE356  ILE373  ILE376  PHE377  LEU380  LYS471  GLY472 
 MET473  HIS475  LEU476  LEU477  ASN478  MET479  VAL484  VAL487 

> <Gold.Protein.RotatedAtoms>
   36.2636   34.1513   42.2696 H   0  0  0  0  0  0  0  0  0  0  0  0  # atno 496  bound_to 491 

> <Gold.Score>
     Score     S(PLP)   S(hbond)     S(cho)   S(metal)  DE(clash)   DE(tors)     intcor
     50.99     -48.60       0.99       0.00       0.00       0.00       0.29       0.00

> <Gold.PLP.Fitness>
50.9893

> <Gold.PLP.PLP>
-48.5969

> <Gold.PLP.part.hbond>
-1.0000

> <Gold.PLP.part.metal>
0.0000

> <Gold.PLP.part.buried>
-4.3280

> <Gold.PLP.part.nonpolar>
-44.1416

> <Gold.PLP.part.repulsive>
0.0770

> <Gold.PLP.ligand.clash>
0.0000

> <Gold.PLP.ligand.torsion>
0.2921

> <Gold.PLP.Chemscore.Hbond>
0.9920

> <Gold.PLP.Chemscore.CHOScore>
0.0000

> <Gold.PLP.Chemscore.Metal>
0.0000

> <Gold.Chemscore.Hbonds>
donor molecule, donor type, donor heavy atom, donor atom, acceptor molecule, acceptor atom, score
      L1  H     1    24       P1   470  0.99

> <Gold.PLP.Chemscore.Internal.Correction>
0.0007

