#       Name:                EN300-717561_i001
#       Creating user name   aseyller
#       Creation time:       Fri Apr 21 16:35:46 2023


#       File generated by GOLD software.
#

@<TRIPOS>MOLECULE
EN300-717561_i001|aminophenols|mol2|68|dock7
    26    27     1
SMALL
USER_CHARGES


@<TRIPOS>ATOM
      1 N1          33.5903  35.6610  36.7183 N.pl3          1 <1>                0.0000
      2 C2          32.6368  36.6139  36.3422 C.ar           1 <1>                0.0000
      3 C3          31.6914  37.0499  37.2586 C.ar           1 <1>                0.0000
      4 C4          30.7482  37.9944  36.8830 C.ar           1 <1>                0.0000
      5 O5          29.8212  38.4230  37.7806 O.3            1 <1>                0.0000
      6 C6          28.9916  37.4985  38.3315 C.ar           1 <1>                0.0000
      7 C7          27.6559  37.4534  37.9583 C.ar           1 <1>                0.0000
      8 C8          26.8147  36.5122  38.5196 C.ar           1 <1>                0.0000
      9 C9          27.3028  35.6158  39.4525 C.ar           1 <1>                0.0000
     10 C10         28.6333  35.6591  39.8264 C.ar           1 <1>                0.0000
     11 C11         29.4800  36.5944  39.2639 C.ar           1 <1>                0.0000
     12 C12         30.7499  38.5028  35.5922 C.ar           1 <1>                0.0000
     13 C13         31.6912  38.0692  34.6771 C.ar           1 <1>                0.0000
     14 C14         32.6391  37.1304  35.0485 C.ar           1 <1>                0.0000
     15 O15         33.5654  36.7046  34.1470 O.3            1 <1>                0.0000
     16 H16         31.6896  36.6539  38.2634 H              1 <1>                0.0000
     17 H17         27.2741  38.1535  37.2300 H              1 <1>                0.0000
     18 H18         25.7749  36.4769  38.2299 H              1 <1>                0.0000
     19 H19         26.6434  34.8808  39.8901 H              1 <1>                0.0000
     20 H20         29.0118  34.9582  40.5557 H              1 <1>                0.0000
     21 H21         30.5192  36.6275  39.5560 H              1 <1>                0.0000
     22 H22         30.0145  39.2384  35.3016 H              1 <1>                0.0000
     23 H23         31.6899  38.4661  33.6726 H              1 <1>                0.0000
     24 H24         33.5904  35.3049  37.6206 H              1 <1>                0.0000
     25 H25         34.2486  35.3537  36.0756 H              1 <1>                0.0000
     26 H26         34.1192  37.4115  33.7884 H              1 <1>                0.0000
@<TRIPOS>BOND
    1    1    2 1     
    2    1   24 1     
    3    1   25 1     
    4    2    3 ar    
    5    2   14 ar    
    6    3    4 ar    
    7    3   16 1     
    8    4    5 1     
    9    4   12 ar    
   10    5    6 1     
   11    6    7 ar    
   12    6   11 ar    
   13    7    8 ar    
   14    7   17 1     
   15    8    9 ar    
   16    8   18 1     
   17    9   10 ar    
   18    9   19 1     
   19   10   11 ar    
   20   10   20 1     
   21   11   21 1     
   22   12   13 ar    
   23   12   22 1     
   24   13   14 ar    
   25   13   23 1     
   26   14   15 1     
   27   15   26 1     
@<TRIPOS>SUBSTRUCTURE
      1 ****           1
@<TRIPOS>SET
DONOR_HYDROGENS      STATIC     ATOMS    <user>   **** ""
3 24 25 26
ATOM$RED        STATIC     ATOMS    COLORGROUP SYSTEM
3 24 25 26
@<TRIPOS>COMMENT
> <Gold.Version>
2022.2.0

> <Gold.Id.Protein>
1qkm|1qkm_protein|mol2

> <Gold.Protein.RotatedTorsions>
[  496  491  490  487 ] final  -40.77 input  -89.99 | X-H torsion

> <Gold.Protein.ActiveResidues>
 MET295  LEU298  THR299  LEU301  ALA302  GLU305  TRP335  MET336  LEU339  MET340 
 GLY342  LEU343  ARG346  PHE356  ILE373  ILE376  PHE377  LEU380  LYS471  GLY472 
 MET473  HIS475  LEU476  LEU477  ASN478  MET479  VAL484  VAL487 

> <Gold.Protein.RotatedAtoms>
   36.3675   34.6550   41.7615 H   0  0  0  0  0  0  0  0  0  0  0  0  # atno 496  bound_to 491 

> <Gold.Score>
     Score     S(PLP)   S(hbond)     S(cho)   S(metal)  DE(clash)   DE(tors)     intcor
     53.29     -50.55       1.00       0.00       0.00       0.00       0.13       0.00

> <Gold.PLP.Fitness>
53.2868

> <Gold.PLP.PLP>
-50.5462

> <Gold.PLP.part.hbond>
-2.2956

> <Gold.PLP.part.metal>
0.0000

> <Gold.PLP.part.buried>
-4.8361

> <Gold.PLP.part.nonpolar>
-43.6609

> <Gold.PLP.part.repulsive>
0.0000

> <Gold.PLP.ligand.clash>
0.0000

> <Gold.PLP.ligand.torsion>
0.1301

> <Gold.PLP.Chemscore.Hbond>
1.0000

> <Gold.PLP.Chemscore.CHOScore>
0.0000

> <Gold.PLP.Chemscore.Metal>
0.0000

> <Gold.Chemscore.Hbonds>
donor molecule, donor type, donor heavy atom, donor atom, acceptor molecule, acceptor atom, score
      L1  H    15    26       P1  3229  1.00

> <Gold.PLP.Chemscore.Internal.Correction>
0.0007

