#       Name:                EN300-717561_i001
#       Creating user name   aseyller
#       Creation time:       Fri Apr 21 16:35:56 2023


#       File generated by GOLD software.
#

@<TRIPOS>MOLECULE
EN300-717561_i001|aminophenols|mol2|68|dock18
    26    27     1
SMALL
USER_CHARGES


@<TRIPOS>ATOM
      1 N1          30.8964  38.7629  35.4876 N.pl3          1 <1>                0.0000
      2 C2          31.2062  37.5930  36.1905 C.ar           1 <1>                0.0000
      3 C3          30.7107  37.4004  37.4715 C.ar           1 <1>                0.0000
      4 C4          31.0191  36.2400  38.1653 C.ar           1 <1>                0.0000
      5 O5          30.5336  36.0499  39.4210 O.3            1 <1>                0.0000
      6 C6          29.1945  36.1781  39.6134 C.ar           1 <1>                0.0000
      7 C7          28.7035  36.5483  40.8572 C.ar           1 <1>                0.0000
      8 C8          27.3418  36.6784  41.0501 C.ar           1 <1>                0.0000
      9 C9          26.4685  36.4399  40.0049 C.ar           1 <1>                0.0000
     10 C10         26.9552  36.0704  38.7645 C.ar           1 <1>                0.0000
     11 C11         28.3162  35.9445  38.5648 C.ar           1 <1>                0.0000
     12 C12         31.8223  35.2727  37.5789 C.ar           1 <1>                0.0000
     13 C13         32.3176  35.4630  36.3022 C.ar           1 <1>                0.0000
     14 C14         32.0081  36.6174  35.6026 C.ar           1 <1>                0.0000
     15 O15         32.4957  36.8033  34.3458 O.3            1 <1>                0.0000
     16 H16         30.0858  38.1535  37.9283 H              1 <1>                0.0000
     17 H17         29.3852  36.7343  41.6740 H              1 <1>                0.0000
     18 H18         26.9590  36.9661  42.0181 H              1 <1>                0.0000
     19 H19         25.4042  36.5422  40.1577 H              1 <1>                0.0000
     20 H20         26.2709  35.8842  37.9500 H              1 <1>                0.0000
     21 H21         28.6959  35.6563  37.5957 H              1 <1>                0.0000
     22 H22         32.0613  34.3697  38.1208 H              1 <1>                0.0000
     23 H23         32.9432  34.7086  35.8483 H              1 <1>                0.0000
     24 H24         30.3347  39.4399  35.8963 H              1 <1>                0.0000
     25 H25         31.2467  38.8985  34.5933 H              1 <1>                0.0000
     26 H26         32.0734  36.2505  33.6742 H              1 <1>                0.0000
@<TRIPOS>BOND
    1    1    2 1     
    2    1   24 1     
    3    1   25 1     
    4    2    3 ar    
    5    2   14 ar    
    6    3    4 ar    
    7    3   16 1     
    8    4    5 1     
    9    4   12 ar    
   10    5    6 1     
   11    6    7 ar    
   12    6   11 ar    
   13    7    8 ar    
   14    7   17 1     
   15    8    9 ar    
   16    8   18 1     
   17    9   10 ar    
   18    9   19 1     
   19   10   11 ar    
   20   10   20 1     
   21   11   21 1     
   22   12   13 ar    
   23   12   22 1     
   24   13   14 ar    
   25   13   23 1     
   26   14   15 1     
   27   15   26 1     
@<TRIPOS>SUBSTRUCTURE
      1 ****           1
@<TRIPOS>SET
DONOR_HYDROGENS      STATIC     ATOMS    <user>   **** ""
3 24 25 26
ATOM$RED        STATIC     ATOMS    COLORGROUP SYSTEM
3 24 25 26
@<TRIPOS>COMMENT
> <Gold.Version>
2022.2.0

> <Gold.Id.Protein>
1qkm|1qkm_protein|mol2

> <Gold.Protein.RotatedTorsions>
[  496  491  490  487 ] final  102.29 input  -89.99 | X-H torsion

> <Gold.Protein.ActiveResidues>
 MET295  LEU298  THR299  LEU301  ALA302  GLU305  TRP335  MET336  LEU339  MET340 
 GLY342  LEU343  ARG346  PHE356  ILE373  ILE376  PHE377  LEU380  LYS471  GLY472 
 MET473  HIS475  LEU476  LEU477  ASN478  MET479  VAL484  VAL487 

> <Gold.Protein.RotatedAtoms>
   36.9322   32.9606   41.8677 H   0  0  0  0  0  0  0  0  0  0  0  0  # atno 496  bound_to 491 

> <Gold.Score>
     Score     S(PLP)   S(hbond)     S(cho)   S(metal)  DE(clash)   DE(tors)     intcor
     50.31     -48.21       1.00       0.00       0.00       0.07       0.41       0.00

> <Gold.PLP.Fitness>
50.3100

> <Gold.PLP.PLP>
-48.2060

> <Gold.PLP.part.hbond>
-1.0000

> <Gold.PLP.part.metal>
0.0000

> <Gold.PLP.part.buried>
-4.5189

> <Gold.PLP.part.nonpolar>
-43.4002

> <Gold.PLP.part.repulsive>
0.3578

> <Gold.PLP.ligand.clash>
0.0688

> <Gold.PLP.ligand.torsion>
0.4139

> <Gold.PLP.Chemscore.Hbond>
1.0000

> <Gold.PLP.Chemscore.CHOScore>
0.0000

> <Gold.PLP.Chemscore.Metal>
0.0000

> <Gold.Chemscore.Hbonds>
donor molecule, donor type, donor heavy atom, donor atom, acceptor molecule, acceptor atom, score
      L1  H    15    26       P1  3187  1.00

> <Gold.PLP.Chemscore.Internal.Correction>
0.0007

