#       Name:                EN300-717561_i001
#       Creating user name   aseyller
#       Creation time:       Fri Apr 21 16:35:52 2023


#       File generated by GOLD software.
#

@<TRIPOS>MOLECULE
EN300-717561_i001|aminophenols|mol2|68|dock14
    26    27     1
SMALL
USER_CHARGES


@<TRIPOS>ATOM
      1 N1          27.2962  35.0096  41.8067 N.pl3          1 <1>                0.0000
      2 C2          26.8869  35.8802  40.7903 C.ar           1 <1>                0.0000
      3 C3          27.5511  35.8876  39.5727 C.ar           1 <1>                0.0000
      4 C4          27.1429  36.7511  38.5674 C.ar           1 <1>                0.0000
      5 O5          27.7929  36.7591  37.3732 O.3            1 <1>                0.0000
      6 C6          28.6267  37.7986  37.1077 C.ar           1 <1>                0.0000
      7 C7          28.1533  39.1016  37.1655 C.ar           1 <1>                0.0000
      8 C8          29.0032  40.1566  36.8956 C.ar           1 <1>                0.0000
      9 C9          30.3247  39.9149  36.5680 C.ar           1 <1>                0.0000
     10 C10         30.7989  38.6174  36.5093 C.ar           1 <1>                0.0000
     11 C11         29.9546  37.5591  36.7840 C.ar           1 <1>                0.0000
     12 C12         26.0714  37.6066  38.7790 C.ar           1 <1>                0.0000
     13 C13         25.4083  37.6010  39.9922 C.ar           1 <1>                0.0000
     14 C14         25.8081  36.7367  40.9976 C.ar           1 <1>                0.0000
     15 O15         25.1543  36.7317  42.1911 O.3            1 <1>                0.0000
     16 H16         28.3855  35.2220  39.4080 H              1 <1>                0.0000
     17 H17         27.1211  39.2908  37.4210 H              1 <1>                0.0000
     18 H18         28.6351  41.1709  36.9400 H              1 <1>                0.0000
     19 H19         30.9875  40.7412  36.3574 H              1 <1>                0.0000
     20 H20         31.8313  38.4314  36.2527 H              1 <1>                0.0000
     21 H21         30.3256  36.5459  36.7383 H              1 <1>                0.0000
     22 H22         25.7550  38.2784  37.9949 H              1 <1>                0.0000
     23 H23         24.5749  38.2686  40.1545 H              1 <1>                0.0000
     24 H24         28.0450  34.4107  41.6600 H              1 <1>                0.0000
     25 H25         26.8336  35.0078  42.6593 H              1 <1>                0.0000
     26 H26         25.5254  36.1186  42.8403 H              1 <1>                0.0000
@<TRIPOS>BOND
    1    1    2 1     
    2    1   24 1     
    3    1   25 1     
    4    2    3 ar    
    5    2   14 ar    
    6    3    4 ar    
    7    3   16 1     
    8    4    5 1     
    9    4   12 ar    
   10    5    6 1     
   11    6    7 ar    
   12    6   11 ar    
   13    7    8 ar    
   14    7   17 1     
   15    8    9 ar    
   16    8   18 1     
   17    9   10 ar    
   18    9   19 1     
   19   10   11 ar    
   20   10   20 1     
   21   11   21 1     
   22   12   13 ar    
   23   12   22 1     
   24   13   14 ar    
   25   13   23 1     
   26   14   15 1     
   27   15   26 1     
@<TRIPOS>SUBSTRUCTURE
      1 ****           1
@<TRIPOS>SET
DONOR_HYDROGENS      STATIC     ATOMS    <user>   **** ""
3 24 25 26
ATOM$RED        STATIC     ATOMS    COLORGROUP SYSTEM
3 24 25 26
@<TRIPOS>COMMENT
> <Gold.Version>
2022.2.0

> <Gold.Id.Protein>
1qkm|1qkm_protein|mol2

> <Gold.Protein.RotatedTorsions>
[  496  491  490  487 ] final  -86.59 input  -89.99 | X-H torsion

> <Gold.Protein.ActiveResidues>
 MET295  LEU298  THR299  LEU301  ALA302  GLU305  TRP335  MET336  LEU339  MET340 
 GLY342  LEU343  ARG346  PHE356  ILE373  ILE376  PHE377  LEU380  LYS471  GLY472 
 MET473  HIS475  LEU476  LEU477  ASN478  MET479  VAL484  VAL487 

> <Gold.Protein.RotatedAtoms>
   36.7259   34.6742   41.1208 H   0  0  0  0  0  0  0  0  0  0  0  0  # atno 496  bound_to 491 

> <Gold.Score>
     Score     S(PLP)   S(hbond)     S(cho)   S(metal)  DE(clash)   DE(tors)     intcor
     56.51     -50.38       2.17       0.00       0.00       0.00       0.19       0.00

> <Gold.PLP.Fitness>
56.5135

> <Gold.PLP.PLP>
-50.3832

> <Gold.PLP.part.hbond>
-2.3750

> <Gold.PLP.part.metal>
0.0000

> <Gold.PLP.part.buried>
-4.3266

> <Gold.PLP.part.nonpolar>
-45.0983

> <Gold.PLP.part.repulsive>
0.0627

> <Gold.PLP.ligand.clash>
0.0000

> <Gold.PLP.ligand.torsion>
0.1948

> <Gold.PLP.Chemscore.Hbond>
2.1731

> <Gold.PLP.Chemscore.CHOScore>
0.0000

> <Gold.PLP.Chemscore.Metal>
0.0000

> <Gold.Chemscore.Hbonds>
donor molecule, donor type, donor heavy atom, donor atom, acceptor molecule, acceptor atom, score
      L1  H     1    25       P1   582  0.75
      L1  H    15    26       P1   582  1.00
      P1  H  1258  1270       L1    15  0.43

> <Gold.PLP.Chemscore.Internal.Correction>
0.0007

