#       Name:                EN300-717561_i001
#       Creating user name   aseyller
#       Creation time:       Fri Apr 21 16:35:45 2023


#       File generated by GOLD software.
#

@<TRIPOS>MOLECULE
EN300-717561_i001|aminophenols|mol2|68|dock5
    26    27     1
SMALL
USER_CHARGES


@<TRIPOS>ATOM
      1 N1          25.5415  36.1105  41.4668 N.pl3          1 <1>                0.0000
      2 C2          26.7000  36.3352  40.7145 C.ar           1 <1>                0.0000
      3 C3          26.6185  36.9801  39.4894 C.ar           1 <1>                0.0000
      4 C4          27.7682  37.2018  38.7464 C.ar           1 <1>                0.0000
      5 O5          27.6897  37.8343  37.5455 O.3            1 <1>                0.0000
      6 C6          28.8451  38.2652  36.9747 C.ar           1 <1>                0.0000
      7 C7          29.1738  39.6129  37.0032 C.ar           1 <1>                0.0000
      8 C8          30.3493  40.0483  36.4226 C.ar           1 <1>                0.0000
      9 C9          31.1978  39.1423  35.8133 C.ar           1 <1>                0.0000
     10 C10         30.8722  37.7988  35.7832 C.ar           1 <1>                0.0000
     11 C11         29.7009  37.3574  36.3673 C.ar           1 <1>                0.0000
     12 C12         28.9987  36.7789  39.2280 C.ar           1 <1>                0.0000
     13 C13         29.0820  36.1355  40.4488 C.ar           1 <1>                0.0000
     14 C14         27.9377  35.9167  41.1975 C.ar           1 <1>                0.0000
     15 O15         28.0210  35.2837  42.3993 O.3            1 <1>                0.0000
     16 H16         25.6606  37.3090  39.1142 H              1 <1>                0.0000
     17 H17         28.5113  40.3210  37.4786 H              1 <1>                0.0000
     18 H18         30.6055  41.0972  36.4441 H              1 <1>                0.0000
     19 H19         32.1163  39.4847  35.3600 H              1 <1>                0.0000
     20 H20         31.5365  37.0933  35.3061 H              1 <1>                0.0000
     21 H21         29.4473  36.3079  36.3438 H              1 <1>                0.0000
     22 H22         29.8930  36.9524  38.6479 H              1 <1>                0.0000
     23 H23         30.0411  35.8067  40.8210 H              1 <1>                0.0000
     24 H24         24.6805  36.4059  41.1315 H              1 <1>                0.0000
     25 H25         25.5989  35.6558  42.3217 H              1 <1>                0.0000
     26 H26         27.1634  35.0809  42.7973 H              1 <1>                0.0000
@<TRIPOS>BOND
    1    1    2 1     
    2    1   24 1     
    3    1   25 1     
    4    2    3 ar    
    5    2   14 ar    
    6    3    4 ar    
    7    3   16 1     
    8    4    5 1     
    9    4   12 ar    
   10    5    6 1     
   11    6    7 ar    
   12    6   11 ar    
   13    7    8 ar    
   14    7   17 1     
   15    8    9 ar    
   16    8   18 1     
   17    9   10 ar    
   18    9   19 1     
   19   10   11 ar    
   20   10   20 1     
   21   11   21 1     
   22   12   13 ar    
   23   12   22 1     
   24   13   14 ar    
   25   13   23 1     
   26   14   15 1     
   27   15   26 1     
@<TRIPOS>SUBSTRUCTURE
      1 ****           1
@<TRIPOS>SET
DONOR_HYDROGENS      STATIC     ATOMS    <user>   **** ""
3 24 25 26
ATOM$RED        STATIC     ATOMS    COLORGROUP SYSTEM
3 24 25 26
@<TRIPOS>COMMENT
> <Gold.Version>
2022.2.0

> <Gold.Id.Protein>
1qkm|1qkm_protein|mol2

> <Gold.Protein.RotatedTorsions>
[  496  491  490  487 ] final -167.95 input  -89.99 | X-H torsion

> <Gold.Protein.ActiveResidues>
 MET295  LEU298  THR299  LEU301  ALA302  GLU305  TRP335  MET336  LEU339  MET340 
 GLY342  LEU343  ARG346  PHE356  ILE373  ILE376  PHE377  LEU380  LYS471  GLY472 
 MET473  HIS475  LEU476  LEU477  ASN478  MET479  VAL484  VAL487 

> <Gold.Protein.RotatedAtoms>
   37.2996   33.6403   40.7838 H   0  0  0  0  0  0  0  0  0  0  0  0  # atno 496  bound_to 491 

> <Gold.Score>
     Score     S(PLP)   S(hbond)     S(cho)   S(metal)  DE(clash)   DE(tors)     intcor
     53.40     -49.76       2.00       0.00       0.00       1.67       0.35       0.00

> <Gold.PLP.Fitness>
53.3982

> <Gold.PLP.PLP>
-49.7627

> <Gold.PLP.part.hbond>
-2.2676

> <Gold.PLP.part.metal>
0.0000

> <Gold.PLP.part.buried>
-3.8547

> <Gold.PLP.part.nonpolar>
-43.6731

> <Gold.PLP.part.repulsive>
0.0910

> <Gold.PLP.ligand.clash>
1.6719

> <Gold.PLP.ligand.torsion>
0.3466

> <Gold.PLP.Chemscore.Hbond>
2.0000

> <Gold.PLP.Chemscore.CHOScore>
0.0000

> <Gold.PLP.Chemscore.Metal>
0.0000

> <Gold.Chemscore.Hbonds>
donor molecule, donor type, donor heavy atom, donor atom, acceptor molecule, acceptor atom, score
      L1  H     1    25       P1   582  1.00
      L1  H    15    26       P1   582  1.00

> <Gold.PLP.Chemscore.Internal.Correction>
0.0007

