#       Name:                EN300-717561_i001
#       Creating user name   aseyller
#       Creation time:       Fri Apr 21 16:35:58 2023


#       File generated by GOLD software.
#

@<TRIPOS>MOLECULE
EN300-717561_i001|aminophenols|mol2|68|dock20
    26    27     1
SMALL
USER_CHARGES


@<TRIPOS>ATOM
      1 N1          27.6284  36.0788  42.2589 N.pl3          1 <1>                0.0000
      2 C2          27.7833  36.3468  40.8941 C.ar           1 <1>                0.0000
      3 C3          29.0533  36.4520  40.3466 C.ar           1 <1>                0.0000
      4 C4          29.2037  36.7171  38.9938 C.ar           1 <1>                0.0000
      5 O5          30.4480  36.8201  38.4559 O.3            1 <1>                0.0000
      6 C6          30.5736  37.4386  37.2525 C.ar           1 <1>                0.0000
      7 C7          30.2288  38.7760  37.1193 C.ar           1 <1>                0.0000
      8 C8          30.3579  39.4026  35.8950 C.ar           1 <1>                0.0000
      9 C9          30.8302  38.6982  34.8028 C.ar           1 <1>                0.0000
     10 C10         31.1740  37.3652  34.9329 C.ar           1 <1>                0.0000
     11 C11         31.0523  36.7354  36.1563 C.ar           1 <1>                0.0000
     12 C12         28.0851  36.8770  38.1888 C.ar           1 <1>                0.0000
     13 C13         26.8183  36.7730  38.7327 C.ar           1 <1>                0.0000
     14 C14         26.6624  36.5026  40.0819 C.ar           1 <1>                0.0000
     15 O15         25.4150  36.3999  40.6160 O.3            1 <1>                0.0000
     16 H16         29.9241  36.3279  40.9732 H              1 <1>                0.0000
     17 H17         29.8596  39.3266  37.9719 H              1 <1>                0.0000
     18 H18         30.0893  40.4435  35.7906 H              1 <1>                0.0000
     19 H19         30.9303  39.1899  33.8465 H              1 <1>                0.0000
     20 H20         31.5421  36.8171  34.0781 H              1 <1>                0.0000
     21 H21         31.3214  35.6944  36.2574 H              1 <1>                0.0000
     22 H22         28.2042  37.0835  37.1355 H              1 <1>                0.0000
     23 H23         25.9493  36.8986  38.1038 H              1 <1>                0.0000
     24 H24         28.4095  35.9665  42.8229 H              1 <1>                0.0000
     25 H25         26.7398  36.0093  42.6417 H              1 <1>                0.0000
     26 H26         24.7042  36.4118  39.9605 H              1 <1>                0.0000
@<TRIPOS>BOND
    1    1    2 1     
    2    1   24 1     
    3    1   25 1     
    4    2    3 ar    
    5    2   14 ar    
    6    3    4 ar    
    7    3   16 1     
    8    4    5 1     
    9    4   12 ar    
   10    5    6 1     
   11    6    7 ar    
   12    6   11 ar    
   13    7    8 ar    
   14    7   17 1     
   15    8    9 ar    
   16    8   18 1     
   17    9   10 ar    
   18    9   19 1     
   19   10   11 ar    
   20   10   20 1     
   21   11   21 1     
   22   12   13 ar    
   23   12   22 1     
   24   13   14 ar    
   25   13   23 1     
   26   14   15 1     
   27   15   26 1     
@<TRIPOS>SUBSTRUCTURE
      1 ****           1
@<TRIPOS>SET
DONOR_HYDROGENS      STATIC     ATOMS    <user>   **** ""
3 24 25 26
ATOM$RED        STATIC     ATOMS    COLORGROUP SYSTEM
3 24 25 26
@<TRIPOS>COMMENT
> <Gold.Version>
2022.2.0

> <Gold.Id.Protein>
1qkm|1qkm_protein|mol2

> <Gold.Protein.RotatedTorsions>
[  496  491  490  487 ] final   32.04 input  -89.99 | X-H torsion

> <Gold.Protein.ActiveResidues>
 MET295  LEU298  THR299  LEU301  ALA302  GLU305  TRP335  MET336  LEU339  MET340 
 GLY342  LEU343  ARG346  PHE356  ILE373  ILE376  PHE377  LEU380  LYS471  GLY472 
 MET473  HIS475  LEU476  LEU477  ASN478  MET479  VAL484  VAL487 

> <Gold.Protein.RotatedAtoms>
   36.3570   33.7236   42.3825 H   0  0  0  0  0  0  0  0  0  0  0  0  # atno 496  bound_to 491 

> <Gold.Score>
     Score     S(PLP)   S(hbond)     S(cho)   S(metal)  DE(clash)   DE(tors)     intcor
     48.96     -48.27       0.79       0.00       0.00       1.18       0.25       0.00

> <Gold.PLP.Fitness>
48.9584

> <Gold.PLP.PLP>
-48.2720

> <Gold.PLP.part.hbond>
-1.9791

> <Gold.PLP.part.metal>
0.0000

> <Gold.PLP.part.buried>
-3.7164

> <Gold.PLP.part.nonpolar>
-43.0911

> <Gold.PLP.part.repulsive>
0.0965

> <Gold.PLP.ligand.clash>
1.1759

> <Gold.PLP.ligand.torsion>
0.2541

> <Gold.PLP.Chemscore.Hbond>
0.7900

> <Gold.PLP.Chemscore.CHOScore>
0.0000

> <Gold.PLP.Chemscore.Metal>
0.0000

> <Gold.Chemscore.Hbonds>
donor molecule, donor type, donor heavy atom, donor atom, acceptor molecule, acceptor atom, score
      L1  H     1    25       P1   582  0.53
      L1  H    15    26       P1  1131  0.26

> <Gold.PLP.Chemscore.Internal.Correction>
0.0007

