#       Name:                EN300-717561_i001
#       Creating user name   aseyller
#       Creation time:       Fri Apr 21 16:35:43 2023


#       File generated by GOLD software.
#

@<TRIPOS>MOLECULE
EN300-717561_i001|aminophenols|mol2|68|dock2
    26    27     1
SMALL
USER_CHARGES


@<TRIPOS>ATOM
      1 N1          27.8969  35.4865  42.3213 N.pl3          1 <1>                0.0000
      2 C2          27.6797  35.8919  40.9996 C.ar           1 <1>                0.0000
      3 C3          28.7296  35.8977  40.0933 C.ar           1 <1>                0.0000
      4 C4          28.5112  36.2995  38.7842 C.ar           1 <1>                0.0000
      5 O5          29.5395  36.3052  37.8948 O.3            1 <1>                0.0000
      6 C6          29.7810  37.4515  37.2062 C.ar           1 <1>                0.0000
      7 C7          30.2293  37.3929  35.8944 C.ar           1 <1>                0.0000
      8 C8          30.4737  38.5597  35.1965 C.ar           1 <1>                0.0000
      9 C9          30.2719  39.7853  35.8042 C.ar           1 <1>                0.0000
     10 C10         29.8257  39.8464  37.1116 C.ar           1 <1>                0.0000
     11 C11         29.5744  38.6827  37.8120 C.ar           1 <1>                0.0000
     12 C12         27.2440  36.6952  38.3812 C.ar           1 <1>                0.0000
     13 C13         26.1962  36.6905  39.2832 C.ar           1 <1>                0.0000
     14 C14         26.4075  36.2847  40.5903 C.ar           1 <1>                0.0000
     15 O15         25.3752  36.2801  41.4770 O.3            1 <1>                0.0000
     16 H16         29.7162  35.5901  40.4070 H              1 <1>                0.0000
     17 H17         30.3873  36.4359  35.4194 H              1 <1>                0.0000
     18 H18         30.8230  38.5147  34.1756 H              1 <1>                0.0000
     19 H19         30.4636  40.6964  35.2569 H              1 <1>                0.0000
     20 H20         29.6696  40.8050  37.5840 H              1 <1>                0.0000
     21 H21         29.2255  38.7310  38.8329 H              1 <1>                0.0000
     22 H22         27.0759  37.0077  37.3613 H              1 <1>                0.0000
     23 H23         25.2109  36.9997  38.9669 H              1 <1>                0.0000
     24 H24         28.7823  35.2093  42.6044 H              1 <1>                0.0000
     25 H25         27.1629  35.4865  42.9555 H              1 <1>                0.0000
     26 H26         25.4807  35.6467  42.2001 H              1 <1>                0.0000
@<TRIPOS>BOND
    1    1    2 1     
    2    1   24 1     
    3    1   25 1     
    4    2    3 ar    
    5    2   14 ar    
    6    3    4 ar    
    7    3   16 1     
    8    4    5 1     
    9    4   12 ar    
   10    5    6 1     
   11    6    7 ar    
   12    6   11 ar    
   13    7    8 ar    
   14    7   17 1     
   15    8    9 ar    
   16    8   18 1     
   17    9   10 ar    
   18    9   19 1     
   19   10   11 ar    
   20   10   20 1     
   21   11   21 1     
   22   12   13 ar    
   23   12   22 1     
   24   13   14 ar    
   25   13   23 1     
   26   14   15 1     
   27   15   26 1     
@<TRIPOS>SUBSTRUCTURE
      1 ****           1
@<TRIPOS>SET
DONOR_HYDROGENS      STATIC     ATOMS    <user>   **** ""
3 24 25 26
ATOM$RED        STATIC     ATOMS    COLORGROUP SYSTEM
3 24 25 26
@<TRIPOS>COMMENT
> <Gold.Version>
2022.2.0

> <Gold.Id.Protein>
1qkm|1qkm_protein|mol2

> <Gold.Protein.RotatedTorsions>
[  496  491  490  487 ] final  -64.55 input  -89.99 | X-H torsion

> <Gold.Protein.ActiveResidues>
 MET295  LEU298  THR299  LEU301  ALA302  GLU305  TRP335  MET336  LEU339  MET340 
 GLY342  LEU343  ARG346  PHE356  ILE373  ILE376  PHE377  LEU380  LYS471  GLY472 
 MET473  HIS475  LEU476  LEU477  ASN478  MET479  VAL484  VAL487 

> <Gold.Protein.RotatedAtoms>
   36.5330   34.7357   41.4191 H   0  0  0  0  0  0  0  0  0  0  0  0  # atno 496  bound_to 491 

> <Gold.Score>
     Score     S(PLP)   S(hbond)     S(cho)   S(metal)  DE(clash)   DE(tors)     intcor
     55.88     -50.95       1.91       0.00       0.00       0.00       0.40       0.00

> <Gold.PLP.Fitness>
55.8771

> <Gold.PLP.PLP>
-50.9455

> <Gold.PLP.part.hbond>
-2.0606

> <Gold.PLP.part.metal>
0.0000

> <Gold.PLP.part.buried>
-4.1792

> <Gold.PLP.part.nonpolar>
-44.6349

> <Gold.PLP.part.repulsive>
0.0836

> <Gold.PLP.ligand.clash>
0.0000

> <Gold.PLP.ligand.torsion>
0.4026

> <Gold.PLP.Chemscore.Hbond>
1.9120

> <Gold.PLP.Chemscore.CHOScore>
0.0000

> <Gold.PLP.Chemscore.Metal>
0.0000

> <Gold.Chemscore.Hbonds>
donor molecule, donor type, donor heavy atom, donor atom, acceptor molecule, acceptor atom, score
      L1  H     1    25       P1   582  0.91
      L1  H    15    26       P1   582  1.00

> <Gold.PLP.Chemscore.Internal.Correction>
0.0007

