#       Name:                EN300-717561_i001
#       Creating user name   aseyller
#       Creation time:       Fri Apr 21 16:35:43 2023


#       File generated by GOLD software.
#

@<TRIPOS>MOLECULE
EN300-717561_i001|aminophenols|mol2|68|dock3
    26    27     1
SMALL
USER_CHARGES


@<TRIPOS>ATOM
      1 N1          28.1392  35.5631  42.3915 N.pl3          1 <1>                0.0000
      2 C2          27.9873  36.1433  41.1270 C.ar           1 <1>                0.0000
      3 C3          29.0966  36.6169  40.4423 C.ar           1 <1>                0.0000
      4 C4          28.9430  37.1909  39.1894 C.ar           1 <1>                0.0000
      5 O5          30.0297  37.6551  38.5169 O.3            1 <1>                0.0000
      6 C6          30.8464  36.7475  37.9205 C.ar           1 <1>                0.0000
      7 C7          31.2627  35.6229  38.6186 C.ar           1 <1>                0.0000
      8 C8          32.0927  34.7016  38.0097 C.ar           1 <1>                0.0000
      9 C9          32.5085  34.8994  36.7059 C.ar           1 <1>                0.0000
     10 C10         32.0955  36.0195  36.0083 C.ar           1 <1>                0.0000
     11 C11         31.2610  36.9409  36.6105 C.ar           1 <1>                0.0000
     12 C12         27.6814  37.2915  38.6213 C.ar           1 <1>                0.0000
     13 C13         26.5743  36.8205  39.3025 C.ar           1 <1>                0.0000
     14 C14         26.7226  36.2411  40.5514 C.ar           1 <1>                0.0000
     15 O15         25.6322  35.7773  41.2208 O.3            1 <1>                0.0000
     16 H16         30.0788  36.5390  40.8846 H              1 <1>                0.0000
     17 H17         30.9385  35.4681  39.6370 H              1 <1>                0.0000
     18 H18         32.4173  33.8263  38.5527 H              1 <1>                0.0000
     19 H19         33.1574  34.1779  36.2318 H              1 <1>                0.0000
     20 H20         32.4223  36.1719  34.9903 H              1 <1>                0.0000
     21 H21         30.9383  37.8154  36.0650 H              1 <1>                0.0000
     22 H22         27.5637  37.7389  37.6454 H              1 <1>                0.0000
     23 H23         25.5931  36.9007  38.8581 H              1 <1>                0.0000
     24 H24         29.0207  35.4918  42.7898 H              1 <1>                0.0000
     25 H25         27.3623  35.2357  42.8714 H              1 <1>                0.0000
     26 H26         25.8448  35.2809  42.0229 H              1 <1>                0.0000
@<TRIPOS>BOND
    1    1    2 1     
    2    1   24 1     
    3    1   25 1     
    4    2    3 ar    
    5    2   14 ar    
    6    3    4 ar    
    7    3   16 1     
    8    4    5 1     
    9    4   12 ar    
   10    5    6 1     
   11    6    7 ar    
   12    6   11 ar    
   13    7    8 ar    
   14    7   17 1     
   15    8    9 ar    
   16    8   18 1     
   17    9   10 ar    
   18    9   19 1     
   19   10   11 ar    
   20   10   20 1     
   21   11   21 1     
   22   12   13 ar    
   23   12   22 1     
   24   13   14 ar    
   25   13   23 1     
   26   14   15 1     
   27   15   26 1     
@<TRIPOS>SUBSTRUCTURE
      1 ****           1
@<TRIPOS>SET
DONOR_HYDROGENS      STATIC     ATOMS    <user>   **** ""
3 24 25 26
ATOM$RED        STATIC     ATOMS    COLORGROUP SYSTEM
3 24 25 26
@<TRIPOS>COMMENT
> <Gold.Version>
2022.2.0

> <Gold.Id.Protein>
1qkm|1qkm_protein|mol2

> <Gold.Protein.RotatedTorsions>
[  496  491  490  487 ] final -136.04 input  -89.99 | X-H torsion

> <Gold.Protein.ActiveResidues>
 MET295  LEU298  THR299  LEU301  ALA302  GLU305  TRP335  MET336  LEU339  MET340 
 GLY342  LEU343  ARG346  PHE356  ILE373  ILE376  PHE377  LEU380  LYS471  GLY472 
 MET473  HIS475  LEU476  LEU477  ASN478  MET479  VAL484  VAL487 

> <Gold.Protein.RotatedAtoms>
   37.1478   34.1332   40.7312 H   0  0  0  0  0  0  0  0  0  0  0  0  # atno 496  bound_to 491 

> <Gold.Score>
     Score     S(PLP)   S(hbond)     S(cho)   S(metal)  DE(clash)   DE(tors)     intcor
     54.84     -49.55       2.00       0.00       0.00       0.00       0.36       0.00

> <Gold.PLP.Fitness>
54.8411

> <Gold.PLP.PLP>
-49.5533

> <Gold.PLP.part.hbond>
-2.0000

> <Gold.PLP.part.metal>
0.0000

> <Gold.PLP.part.buried>
-2.8697

> <Gold.PLP.part.nonpolar>
-43.8727

> <Gold.PLP.part.repulsive>
0.1011

> <Gold.PLP.ligand.clash>
0.0000

> <Gold.PLP.ligand.torsion>
0.3564

> <Gold.PLP.Chemscore.Hbond>
2.0000

> <Gold.PLP.Chemscore.CHOScore>
0.0000

> <Gold.PLP.Chemscore.Metal>
0.0000

> <Gold.Chemscore.Hbonds>
donor molecule, donor type, donor heavy atom, donor atom, acceptor molecule, acceptor atom, score
      L1  H     1    25       P1   582  1.00
      L1  H    15    26       P1   582  1.00

> <Gold.PLP.Chemscore.Internal.Correction>
0.0007

