#       Name:                EN300-717561_i001
#       Creating user name   aseyller
#       Creation time:       Fri Apr 21 16:35:53 2023


#       File generated by GOLD software.
#

@<TRIPOS>MOLECULE
EN300-717561_i001|aminophenols|mol2|68|dock15
    26    27     1
SMALL
USER_CHARGES


@<TRIPOS>ATOM
      1 N1          26.4548  36.8663  42.3965 N.pl3          1 <1>                0.0000
      2 C2          27.0248  36.6108  41.1442 C.ar           1 <1>                0.0000
      3 C3          28.3326  36.1577  41.0556 C.ar           1 <1>                0.0000
      4 C4          28.8945  35.9050  39.8133 C.ar           1 <1>                0.0000
      5 O5          30.1764  35.4604  39.7251 O.3            1 <1>                0.0000
      6 C6          30.8946  35.7991  38.6225 C.ar           1 <1>                0.0000
      7 C7          31.5814  34.8236  37.9139 C.ar           1 <1>                0.0000
      8 C8          32.3105  35.1705  36.7930 C.ar           1 <1>                0.0000
      9 C9          32.3562  36.4885  36.3771 C.ar           1 <1>                0.0000
     10 C10         31.6730  37.4625  37.0818 C.ar           1 <1>                0.0000
     11 C11         30.9378  37.1201  38.1999 C.ar           1 <1>                0.0000
     12 C12         28.1495  36.1050  38.6602 C.ar           1 <1>                0.0000
     13 C13         26.8457  36.5569  38.7464 C.ar           1 <1>                0.0000
     14 C14         26.2777  36.8054  39.9846 C.ar           1 <1>                0.0000
     15 O15         24.9942  37.2498  40.0682 O.3            1 <1>                0.0000
     16 H16         28.9129  36.0024  41.9531 H              1 <1>                0.0000
     17 H17         31.5463  33.7942  38.2385 H              1 <1>                0.0000
     18 H18         32.8456  34.4118  36.2413 H              1 <1>                0.0000
     19 H19         32.9268  36.7576  35.5005 H              1 <1>                0.0000
     20 H20         31.7109  38.4912  36.7551 H              1 <1>                0.0000
     21 H21         30.4041  37.8811  38.7497 H              1 <1>                0.0000
     22 H22         28.5888  35.9076  37.6936 H              1 <1>                0.0000
     23 H23         26.2682  36.7125  37.8470 H              1 <1>                0.0000
     24 H24         26.9744  36.7266  43.2035 H              1 <1>                0.0000
     25 H25         25.5413  37.1869  42.4574 H              1 <1>                0.0000
     26 H26         24.3322  36.5451  40.0533 H              1 <1>                0.0000
@<TRIPOS>BOND
    1    1    2 1     
    2    1   24 1     
    3    1   25 1     
    4    2    3 ar    
    5    2   14 ar    
    6    3    4 ar    
    7    3   16 1     
    8    4    5 1     
    9    4   12 ar    
   10    5    6 1     
   11    6    7 ar    
   12    6   11 ar    
   13    7    8 ar    
   14    7   17 1     
   15    8    9 ar    
   16    8   18 1     
   17    9   10 ar    
   18    9   19 1     
   19   10   11 ar    
   20   10   20 1     
   21   11   21 1     
   22   12   13 ar    
   23   12   22 1     
   24   13   14 ar    
   25   13   23 1     
   26   14   15 1     
   27   15   26 1     
@<TRIPOS>SUBSTRUCTURE
      1 ****           1
@<TRIPOS>SET
DONOR_HYDROGENS      STATIC     ATOMS    <user>   **** ""
3 24 25 26
ATOM$RED        STATIC     ATOMS    COLORGROUP SYSTEM
3 24 25 26
@<TRIPOS>COMMENT
> <Gold.Version>
2022.2.0

> <Gold.Id.Protein>
1qkm|1qkm_protein|mol2

> <Gold.Protein.RotatedTorsions>
[  496  491  490  487 ] final -111.26 input  -89.99 | X-H torsion

> <Gold.Protein.ActiveResidues>
 MET295  LEU298  THR299  LEU301  ALA302  GLU305  TRP335  MET336  LEU339  MET340 
 GLY342  LEU343  ARG346  PHE356  ILE373  ILE376  PHE377  LEU380  LYS471  GLY472 
 MET473  HIS475  LEU476  LEU477  ASN478  MET479  VAL484  VAL487 

> <Gold.Protein.RotatedAtoms>
   36.9513   34.4614   40.8632 H   0  0  0  0  0  0  0  0  0  0  0  0  # atno 496  bound_to 491 

> <Gold.Score>
     Score     S(PLP)   S(hbond)     S(cho)   S(metal)  DE(clash)   DE(tors)     intcor
     50.49     -48.44       1.00       0.00       0.00       0.00       0.48       0.00

> <Gold.PLP.Fitness>
50.4857

> <Gold.PLP.PLP>
-48.4402

> <Gold.PLP.part.hbond>
-2.0000

> <Gold.PLP.part.metal>
0.0000

> <Gold.PLP.part.buried>
-3.3291

> <Gold.PLP.part.nonpolar>
-44.7721

> <Gold.PLP.part.repulsive>
1.6847

> <Gold.PLP.ligand.clash>
0.0000

> <Gold.PLP.ligand.torsion>
0.4776

> <Gold.PLP.Chemscore.Hbond>
1.0000

> <Gold.PLP.Chemscore.CHOScore>
0.0000

> <Gold.PLP.Chemscore.Metal>
0.0000

> <Gold.Chemscore.Hbonds>
donor molecule, donor type, donor heavy atom, donor atom, acceptor molecule, acceptor atom, score
      L1  H    15    26       P1  1131  1.00

> <Gold.PLP.Chemscore.Internal.Correction>
0.0007

