#       Name:                EN300-717561_i001
#       Creating user name   aseyller
#       Creation time:       Fri Apr 21 16:35:44 2023


#       File generated by GOLD software.
#

@<TRIPOS>MOLECULE
EN300-717561_i001|aminophenols|mol2|68|dock4
    26    27     1
SMALL
USER_CHARGES


@<TRIPOS>ATOM
      1 N1          25.2125  37.2806  39.3880 N.pl3          1 <1>                0.0000
      2 C2          26.5050  36.9494  39.8102 C.ar           1 <1>                0.0000
      3 C3          27.5318  36.8407  38.8842 C.ar           1 <1>                0.0000
      4 C4          28.8116  36.5128  39.3056 C.ar           1 <1>                0.0000
      5 O5          29.8191  36.4064  38.3989 O.3            1 <1>                0.0000
      6 C6          29.9570  37.3973  37.4794 C.ar           1 <1>                0.0000
      7 C7          29.9693  38.7243  37.8844 C.ar           1 <1>                0.0000
      8 C8          30.1101  39.7298  36.9476 C.ar           1 <1>                0.0000
      9 C9          30.2388  39.4146  35.6074 C.ar           1 <1>                0.0000
     10 C10         30.2265  38.0930  35.2012 C.ar           1 <1>                0.0000
     11 C11         30.0917  37.0835  36.1344 C.ar           1 <1>                0.0000
     12 C12         29.0647  36.2936  40.6519 C.ar           1 <1>                0.0000
     13 C13         28.0425  36.4010  41.5765 C.ar           1 <1>                0.0000
     14 C14         26.7638  36.7339  41.1619 C.ar           1 <1>                0.0000
     15 O15         25.7585  36.8399  42.0729 O.3            1 <1>                0.0000
     16 H16         27.3348  37.0109  37.8360 H              1 <1>                0.0000
     17 H17         29.8685  38.9711  38.9309 H              1 <1>                0.0000
     18 H18         30.1193  40.7629  37.2622 H              1 <1>                0.0000
     19 H19         30.3489  40.2022  34.8766 H              1 <1>                0.0000
     20 H20         30.3266  37.8495  34.1538 H              1 <1>                0.0000
     21 H21         30.0825  36.0514  35.8167 H              1 <1>                0.0000
     22 H22         30.0621  36.0383  40.9783 H              1 <1>                0.0000
     23 H23         28.2423  36.2292  42.6240 H              1 <1>                0.0000
     24 H24         25.0341  37.4344  38.4471 H              1 <1>                0.0000
     25 H25         24.4941  37.3526  40.0358 H              1 <1>                0.0000
     26 H26         25.8919  36.3081  42.8695 H              1 <1>                0.0000
@<TRIPOS>BOND
    1    1    2 1     
    2    1   24 1     
    3    1   25 1     
    4    2    3 ar    
    5    2   14 ar    
    6    3    4 ar    
    7    3   16 1     
    8    4    5 1     
    9    4   12 ar    
   10    5    6 1     
   11    6    7 ar    
   12    6   11 ar    
   13    7    8 ar    
   14    7   17 1     
   15    8    9 ar    
   16    8   18 1     
   17    9   10 ar    
   18    9   19 1     
   19   10   11 ar    
   20   10   20 1     
   21   11   21 1     
   22   12   13 ar    
   23   12   22 1     
   24   13   14 ar    
   25   13   23 1     
   26   14   15 1     
   27   15   26 1     
@<TRIPOS>SUBSTRUCTURE
      1 ****           1
@<TRIPOS>SET
DONOR_HYDROGENS      STATIC     ATOMS    <user>   **** ""
3 24 25 26
ATOM$RED        STATIC     ATOMS    COLORGROUP SYSTEM
3 24 25 26
@<TRIPOS>COMMENT
> <Gold.Version>
2022.2.0

> <Gold.Id.Protein>
1qkm|1qkm_protein|mol2

> <Gold.Protein.RotatedTorsions>
[  496  491  490  487 ] final  -45.06 input  -89.99 | X-H torsion

> <Gold.Protein.ActiveResidues>
 MET295  LEU298  THR299  LEU301  ALA302  GLU305  TRP335  MET336  LEU339  MET340 
 GLY342  LEU343  ARG346  PHE356  ILE373  ILE376  PHE377  LEU380  LYS471  GLY472 
 MET473  HIS475  LEU476  LEU477  ASN478  MET479  VAL484  VAL487 

> <Gold.Protein.RotatedAtoms>
   36.3928   34.6806   41.7006 H   0  0  0  0  0  0  0  0  0  0  0  0  # atno 496  bound_to 491 

> <Gold.Score>
     Score     S(PLP)   S(hbond)     S(cho)   S(metal)  DE(clash)   DE(tors)     intcor
     53.13     -50.63       1.00       0.00       0.00       0.00       0.25       0.00

> <Gold.PLP.Fitness>
53.1348

> <Gold.PLP.PLP>
-50.6326

> <Gold.PLP.part.hbond>
-2.9974

> <Gold.PLP.part.metal>
0.0000

> <Gold.PLP.part.buried>
-4.2154

> <Gold.PLP.part.nonpolar>
-44.1498

> <Gold.PLP.part.repulsive>
0.1479

> <Gold.PLP.ligand.clash>
0.0000

> <Gold.PLP.ligand.torsion>
0.2516

> <Gold.PLP.Chemscore.Hbond>
1.0016

> <Gold.PLP.Chemscore.CHOScore>
0.0000

> <Gold.PLP.Chemscore.Metal>
0.0000

> <Gold.Chemscore.Hbonds>
donor molecule, donor type, donor heavy atom, donor atom, acceptor molecule, acceptor atom, score
      L1  H    15    26       P1   582  1.00

> <Gold.PLP.Chemscore.Internal.Correction>
0.0007

