#       Name:                EN300-717561_i001
#       Creating user name   aseyller
#       Creation time:       Fri Apr 21 16:35:51 2023


#       File generated by GOLD software.
#

@<TRIPOS>MOLECULE
EN300-717561_i001|aminophenols|mol2|68|dock13
    26    27     1
SMALL
USER_CHARGES


@<TRIPOS>ATOM
      1 N1          31.6537  38.6934  34.1449 N.pl3          1 <1>                0.0000
      2 C2          31.5668  37.9464  35.3252 C.ar           1 <1>                0.0000
      3 C3          30.8185  38.4191  36.3930 C.ar           1 <1>                0.0000
      4 C4          30.7339  37.6765  37.5610 C.ar           1 <1>                0.0000
      5 O5          30.0003  38.1386  38.6083 O.3            1 <1>                0.0000
      6 C6          29.1620  37.2702  39.2323 C.ar           1 <1>                0.0000
      7 C7          28.1133  36.6917  38.5317 C.ar           1 <1>                0.0000
      8 C8          27.2627  35.8088  39.1684 C.ar           1 <1>                0.0000
      9 C9          27.4558  35.5015  40.5027 C.ar           1 <1>                0.0000
     10 C10         28.4998  36.0769  41.2032 C.ar           1 <1>                0.0000
     11 C11         29.3567  36.9559  40.5698 C.ar           1 <1>                0.0000
     12 C12         31.3970  36.4620  37.6615 C.ar           1 <1>                0.0000
     13 C13         32.1438  35.9893  36.5983 C.ar           1 <1>                0.0000
     14 C14         32.2270  36.7241  35.4275 C.ar           1 <1>                0.0000
     15 O15         32.9620  36.2575  34.3816 O.3            1 <1>                0.0000
     16 H16         30.3026  39.3647  36.3150 H              1 <1>                0.0000
     17 H17         27.9618  36.9317  37.4897 H              1 <1>                0.0000
     18 H18         26.4460  35.3586  38.6237 H              1 <1>                0.0000
     19 H19         26.7897  34.8110  40.9986 H              1 <1>                0.0000
     20 H20         28.6481  35.8356  42.2454 H              1 <1>                0.0000
     21 H21         30.1722  37.4048  41.1173 H              1 <1>                0.0000
     22 H22         31.3300  35.8851  38.5719 H              1 <1>                0.0000
     23 H23         32.6596  35.0438  36.6796 H              1 <1>                0.0000
     24 H24         31.1903  39.5426  34.0731 H              1 <1>                0.0000
     25 H25         32.1805  38.3640  33.4000 H              1 <1>                0.0000
     26 H26         32.4313  35.9504  33.6338 H              1 <1>                0.0000
@<TRIPOS>BOND
    1    1    2 1     
    2    1   24 1     
    3    1   25 1     
    4    2    3 ar    
    5    2   14 ar    
    6    3    4 ar    
    7    3   16 1     
    8    4    5 1     
    9    4   12 ar    
   10    5    6 1     
   11    6    7 ar    
   12    6   11 ar    
   13    7    8 ar    
   14    7   17 1     
   15    8    9 ar    
   16    8   18 1     
   17    9   10 ar    
   18    9   19 1     
   19   10   11 ar    
   20   10   20 1     
   21   11   21 1     
   22   12   13 ar    
   23   12   22 1     
   24   13   14 ar    
   25   13   23 1     
   26   14   15 1     
   27   15   26 1     
@<TRIPOS>SUBSTRUCTURE
      1 ****           1
@<TRIPOS>SET
DONOR_HYDROGENS      STATIC     ATOMS    <user>   **** ""
3 24 25 26
ATOM$RED        STATIC     ATOMS    COLORGROUP SYSTEM
3 24 25 26
@<TRIPOS>COMMENT
> <Gold.Version>
2022.2.0

> <Gold.Id.Protein>
1qkm|1qkm_protein|mol2

> <Gold.Protein.RotatedTorsions>
[  496  491  490  487 ] final   19.18 input  -89.99 | X-H torsion

> <Gold.Protein.ActiveResidues>
 MET295  LEU298  THR299  LEU301  ALA302  GLU305  TRP335  MET336  LEU339  MET340 
 GLY342  LEU343  ARG346  PHE356  ILE373  ILE376  PHE377  LEU380  LYS471  GLY472 
 MET473  HIS475  LEU476  LEU477  ASN478  MET479  VAL484  VAL487 

> <Gold.Protein.RotatedAtoms>
   36.2994   33.9248   42.3533 H   0  0  0  0  0  0  0  0  0  0  0  0  # atno 496  bound_to 491 

> <Gold.Score>
     Score     S(PLP)   S(hbond)     S(cho)   S(metal)  DE(clash)   DE(tors)     intcor
     48.74     -46.09       1.00       0.00       0.00       0.00       0.17       0.00

> <Gold.PLP.Fitness>
48.7404

> <Gold.PLP.PLP>
-46.0876

> <Gold.PLP.part.hbond>
-1.0000

> <Gold.PLP.part.metal>
0.0000

> <Gold.PLP.part.buried>
-2.6482

> <Gold.PLP.part.nonpolar>
-41.8410

> <Gold.PLP.part.repulsive>
0.0000

> <Gold.PLP.ligand.clash>
0.0000

> <Gold.PLP.ligand.torsion>
0.1740

> <Gold.PLP.Chemscore.Hbond>
1.0000

> <Gold.PLP.Chemscore.CHOScore>
0.0000

> <Gold.PLP.Chemscore.Metal>
0.0000

> <Gold.Chemscore.Hbonds>
donor molecule, donor type, donor heavy atom, donor atom, acceptor molecule, acceptor atom, score
      L1  H    15    26       P1  3187  1.00

> <Gold.PLP.Chemscore.Internal.Correction>
0.0007

