#       Name:                EN300-717561_i001
#       Creating user name   aseyller
#       Creation time:       Fri Apr 21 16:35:48 2023


#       File generated by GOLD software.
#

@<TRIPOS>MOLECULE
EN300-717561_i001|aminophenols|mol2|68|dock9
    26    27     1
SMALL
USER_CHARGES


@<TRIPOS>ATOM
      1 N1          31.4838  38.7882  34.5273 N.pl3          1 <1>                0.0000
      2 C2          31.6335  37.7877  35.4944 C.ar           1 <1>                0.0000
      3 C3          31.0218  37.9207  36.7320 C.ar           1 <1>                0.0000
      4 C4          31.1717  36.9275  37.6880 C.ar           1 <1>                0.0000
      5 O5          30.5722  37.0565  38.9015 O.3            1 <1>                0.0000
      6 C6          29.2304  36.8550  38.9747 C.ar           1 <1>                0.0000
      7 C7          28.7076  35.9975  39.9322 C.ar           1 <1>                0.0000
      8 C8          27.3431  35.7947  40.0047 C.ar           1 <1>                0.0000
      9 C9          26.4985  36.4454  39.1243 C.ar           1 <1>                0.0000
     10 C10         27.0169  37.3001  38.1689 C.ar           1 <1>                0.0000
     11 C11         28.3801  37.5108  38.0958 C.ar           1 <1>                0.0000
     12 C12         31.9326  35.8021  37.4070 C.ar           1 <1>                0.0000
     13 C13         32.5436  35.6678  36.1741 C.ar           1 <1>                0.0000
     14 C14         32.3925  36.6539  35.2136 C.ar           1 <1>                0.0000
     15 O15         32.9940  36.5204  34.0002 O.3            1 <1>                0.0000
     16 H16         30.4298  38.7970  36.9510 H              1 <1>                0.0000
     17 H17         29.3669  35.4888  40.6198 H              1 <1>                0.0000
     18 H18         26.9357  35.1271  40.7495 H              1 <1>                0.0000
     19 H19         25.4320  36.2855  39.1827 H              1 <1>                0.0000
     20 H20         26.3550  37.8066  37.4821 H              1 <1>                0.0000
     21 H21         28.7845  38.1788  37.3497 H              1 <1>                0.0000
     22 H22         32.0483  35.0296  38.1529 H              1 <1>                0.0000
     23 H23         33.1361  34.7909  35.9583 H              1 <1>                0.0000
     24 H24         30.9518  39.5755  34.7223 H              1 <1>                0.0000
     25 H25         31.9152  38.6962  33.6634 H              1 <1>                0.0000
     26 H26         32.4322  36.1157  33.3252 H              1 <1>                0.0000
@<TRIPOS>BOND
    1    1    2 1     
    2    1   24 1     
    3    1   25 1     
    4    2    3 ar    
    5    2   14 ar    
    6    3    4 ar    
    7    3   16 1     
    8    4    5 1     
    9    4   12 ar    
   10    5    6 1     
   11    6    7 ar    
   12    6   11 ar    
   13    7    8 ar    
   14    7   17 1     
   15    8    9 ar    
   16    8   18 1     
   17    9   10 ar    
   18    9   19 1     
   19   10   11 ar    
   20   10   20 1     
   21   11   21 1     
   22   12   13 ar    
   23   12   22 1     
   24   13   14 ar    
   25   13   23 1     
   26   14   15 1     
   27   15   26 1     
@<TRIPOS>SUBSTRUCTURE
      1 ****           1
@<TRIPOS>SET
DONOR_HYDROGENS      STATIC     ATOMS    <user>   **** ""
3 24 25 26
ATOM$RED        STATIC     ATOMS    COLORGROUP SYSTEM
3 24 25 26
@<TRIPOS>COMMENT
> <Gold.Version>
2022.2.0

> <Gold.Id.Protein>
1qkm|1qkm_protein|mol2

> <Gold.Protein.RotatedTorsions>
[  496  491  490  487 ] final  100.29 input  -89.99 | X-H torsion

> <Gold.Protein.ActiveResidues>
 MET295  LEU298  THR299  LEU301  ALA302  GLU305  TRP335  MET336  LEU339  MET340 
 GLY342  LEU343  ARG346  PHE356  ILE373  ILE376  PHE377  LEU380  LYS471  GLY472 
 MET473  HIS475  LEU476  LEU477  ASN478  MET479  VAL484  VAL487 

> <Gold.Protein.RotatedAtoms>
   36.9143   32.9679   41.8943 H   0  0  0  0  0  0  0  0  0  0  0  0  # atno 496  bound_to 491 

> <Gold.Score>
     Score     S(PLP)   S(hbond)     S(cho)   S(metal)  DE(clash)   DE(tors)     intcor
     50.89     -48.43       1.00       0.00       0.00       0.00       0.27       0.00

> <Gold.PLP.Fitness>
50.8888

> <Gold.PLP.PLP>
-48.4316

> <Gold.PLP.part.hbond>
-1.4212

> <Gold.PLP.part.metal>
0.0000

> <Gold.PLP.part.buried>
-3.3379

> <Gold.PLP.part.nonpolar>
-43.4586

> <Gold.PLP.part.repulsive>
0.0566

> <Gold.PLP.ligand.clash>
0.0000

> <Gold.PLP.ligand.torsion>
0.2717

> <Gold.PLP.Chemscore.Hbond>
1.0000

> <Gold.PLP.Chemscore.CHOScore>
0.0000

> <Gold.PLP.Chemscore.Metal>
0.0000

> <Gold.Chemscore.Hbonds>
donor molecule, donor type, donor heavy atom, donor atom, acceptor molecule, acceptor atom, score
      L1  H    15    26       P1  3187  1.00

> <Gold.PLP.Chemscore.Internal.Correction>
0.0007

