#       Name:                EN300-717561_i001
#       Creating user name   aseyller
#       Creation time:       Fri Apr 21 16:35:50 2023


#       File generated by GOLD software.
#

@<TRIPOS>MOLECULE
EN300-717561_i001|aminophenols|mol2|68|dock12
    26    27     1
SMALL
USER_CHARGES


@<TRIPOS>ATOM
      1 N1          29.0002  36.0197  41.9432 N.pl3          1 <1>                0.0000
      2 C2          28.1504  36.4241  40.9074 C.ar           1 <1>                0.0000
      3 C3          28.6261  36.4961  39.6066 C.ar           1 <1>                0.0000
      4 C4          27.7816  36.8967  38.5824 C.ar           1 <1>                0.0000
      5 O5          28.2466  36.9672  37.3067 O.3            1 <1>                0.0000
      6 C6          29.4782  37.5050  37.1055 C.ar           1 <1>                0.0000
      7 C7          29.6007  38.8105  36.6517 C.ar           1 <1>                0.0000
      8 C8          30.8539  39.3550  36.4484 C.ar           1 <1>                0.0000
      9 C9          31.9856  38.6002  36.6968 C.ar           1 <1>                0.0000
     10 C10         31.8661  37.2988  37.1486 C.ar           1 <1>                0.0000
     11 C11         30.6154  36.7515  37.3591 C.ar           1 <1>                0.0000
     12 C12         26.4622  37.2251  38.8583 C.ar           1 <1>                0.0000
     13 C13         25.9862  37.1544  40.1544 C.ar           1 <1>                0.0000
     14 C14         26.8237  36.7494  41.1802 C.ar           1 <1>                0.0000
     15 O15         26.3538  36.6797  42.4555 O.3            1 <1>                0.0000
     16 H16         29.6533  36.2408  39.3918 H              1 <1>                0.0000
     17 H17         28.7172  39.4004  36.4573 H              1 <1>                0.0000
     18 H18         30.9499  40.3709  36.0948 H              1 <1>                0.0000
     19 H19         32.9644  39.0277  36.5372 H              1 <1>                0.0000
     20 H20         32.7516  36.7112  37.3413 H              1 <1>                0.0000
     21 H21         30.5227  35.7352  37.7123 H              1 <1>                0.0000
     22 H22         25.8060  37.5369  38.0593 H              1 <1>                0.0000
     23 H23         24.9588  37.4114  40.3664 H              1 <1>                0.0000
     24 H24         29.9228  35.7894  41.7517 H              1 <1>                0.0000
     25 H25         28.6677  35.9734  42.8533 H              1 <1>                0.0000
     26 H26         26.3183  35.7820  42.8131 H              1 <1>                0.0000
@<TRIPOS>BOND
    1    1    2 1     
    2    1   24 1     
    3    1   25 1     
    4    2    3 ar    
    5    2   14 ar    
    6    3    4 ar    
    7    3   16 1     
    8    4    5 1     
    9    4   12 ar    
   10    5    6 1     
   11    6    7 ar    
   12    6   11 ar    
   13    7    8 ar    
   14    7   17 1     
   15    8    9 ar    
   16    8   18 1     
   17    9   10 ar    
   18    9   19 1     
   19   10   11 ar    
   20   10   20 1     
   21   11   21 1     
   22   12   13 ar    
   23   12   22 1     
   24   13   14 ar    
   25   13   23 1     
   26   14   15 1     
   27   15   26 1     
@<TRIPOS>SUBSTRUCTURE
      1 ****           1
@<TRIPOS>SET
DONOR_HYDROGENS      STATIC     ATOMS    <user>   **** ""
3 24 25 26
ATOM$RED        STATIC     ATOMS    COLORGROUP SYSTEM
3 24 25 26
@<TRIPOS>COMMENT
> <Gold.Version>
2022.2.0

> <Gold.Id.Protein>
1qkm|1qkm_protein|mol2

> <Gold.Protein.RotatedTorsions>
[  496  491  490  487 ] final   78.38 input  -89.99 | X-H torsion

> <Gold.Protein.ActiveResidues>
 MET295  LEU298  THR299  LEU301  ALA302  GLU305  TRP335  MET336  LEU339  MET340 
 GLY342  LEU343  ARG346  PHE356  ILE373  ILE376  PHE377  LEU380  LYS471  GLY472 
 MET473  HIS475  LEU476  LEU477  ASN478  MET479  VAL484  VAL487 

> <Gold.Protein.RotatedAtoms>
   36.7130   33.1144   42.1524 H   0  0  0  0  0  0  0  0  0  0  0  0  # atno 496  bound_to 491 

> <Gold.Score>
     Score     S(PLP)   S(hbond)     S(cho)   S(metal)  DE(clash)   DE(tors)     intcor
     50.87     -45.84       2.00       0.00       0.00       0.00       0.49       0.00

> <Gold.PLP.Fitness>
50.8661

> <Gold.PLP.PLP>
-45.8370

> <Gold.PLP.part.hbond>
-1.9619

> <Gold.PLP.part.metal>
0.0000

> <Gold.PLP.part.buried>
-4.6871

> <Gold.PLP.part.nonpolar>
-40.4262

> <Gold.PLP.part.repulsive>
0.0822

> <Gold.PLP.ligand.clash>
0.0000

> <Gold.PLP.ligand.torsion>
0.4858

> <Gold.PLP.Chemscore.Hbond>
2.0000

> <Gold.PLP.Chemscore.CHOScore>
0.0000

> <Gold.PLP.Chemscore.Metal>
0.0000

> <Gold.Chemscore.Hbonds>
donor molecule, donor type, donor heavy atom, donor atom, acceptor molecule, acceptor atom, score
      L1  H     1    24       P1   470  1.00
      L1  H    15    26       P1   582  1.00

> <Gold.PLP.Chemscore.Internal.Correction>
0.0007

