#       Name:                EN300-717561_i001
#       Creating user name   aseyller
#       Creation time:       Fri Apr 21 16:35:55 2023


#       File generated by GOLD software.
#

@<TRIPOS>MOLECULE
EN300-717561_i001|aminophenols|mol2|68|dock17
    26    27     1
SMALL
USER_CHARGES


@<TRIPOS>ATOM
      1 N1          29.0407  36.3269  42.0291 N.pl3          1 <1>                0.0000
      2 C2          28.5120  36.5435  40.7516 C.ar           1 <1>                0.0000
      3 C3          29.3541  36.5953  39.6508 C.ar           1 <1>                0.0000
      4 C4          28.8272  36.8096  38.3862 C.ar           1 <1>                0.0000
      5 O5          29.6516  36.8601  37.3062 O.3            1 <1>                0.0000
      6 C6          30.8153  36.1605  37.3587 C.ar           1 <1>                0.0000
      7 C7          30.8044  34.8194  37.7149 C.ar           1 <1>                0.0000
      8 C8          31.9888  34.1103  37.7671 C.ar           1 <1>                0.0000
      9 C9          33.1844  34.7359  37.4649 C.ar           1 <1>                0.0000
     10 C10         33.1979  36.0722  37.1101 C.ar           1 <1>                0.0000
     11 C11         32.0158  36.7844  37.0507 C.ar           1 <1>                0.0000
     12 C12         27.4592  36.9722  38.2220 C.ar           1 <1>                0.0000
     13 C13         26.6181  36.9214  39.3181 C.ar           1 <1>                0.0000
     14 C14         27.1384  36.7018  40.5826 C.ar           1 <1>                0.0000
     15 O15         26.3094  36.6515  41.6606 O.3            1 <1>                0.0000
     16 H16         30.4191  36.4692  39.7784 H              1 <1>                0.0000
     17 H17         29.8709  34.3305  37.9514 H              1 <1>                0.0000
     18 H18         31.9810  33.0666  38.0447 H              1 <1>                0.0000
     19 H19         34.1092  34.1796  37.5063 H              1 <1>                0.0000
     20 H20         34.1332  36.5585  36.8751 H              1 <1>                0.0000
     21 H21         32.0270  37.8280  36.7732 H              1 <1>                0.0000
     22 H22         27.0506  37.1390  37.2363 H              1 <1>                0.0000
     23 H23         25.5536  37.0489  39.1875 H              1 <1>                0.0000
     24 H24         29.9970  36.2128  42.1453 H              1 <1>                0.0000
     25 H25         28.4515  36.2948  42.7989 H              1 <1>                0.0000
     26 H26         26.4081  35.8522  42.1958 H              1 <1>                0.0000
@<TRIPOS>BOND
    1    1    2 1     
    2    1   24 1     
    3    1   25 1     
    4    2    3 ar    
    5    2   14 ar    
    6    3    4 ar    
    7    3   16 1     
    8    4    5 1     
    9    4   12 ar    
   10    5    6 1     
   11    6    7 ar    
   12    6   11 ar    
   13    7    8 ar    
   14    7   17 1     
   15    8    9 ar    
   16    8   18 1     
   17    9   10 ar    
   18    9   19 1     
   19   10   11 ar    
   20   10   20 1     
   21   11   21 1     
   22   12   13 ar    
   23   12   22 1     
   24   13   14 ar    
   25   13   23 1     
   26   14   15 1     
   27   15   26 1     
@<TRIPOS>SUBSTRUCTURE
      1 ****           1
@<TRIPOS>SET
DONOR_HYDROGENS      STATIC     ATOMS    <user>   **** ""
3 24 25 26
ATOM$RED        STATIC     ATOMS    COLORGROUP SYSTEM
3 24 25 26
@<TRIPOS>COMMENT
> <Gold.Version>
2022.2.0

> <Gold.Id.Protein>
1qkm|1qkm_protein|mol2

> <Gold.Protein.RotatedTorsions>
[  496  491  490  487 ] final  139.08 input  -89.99 | X-H torsion

> <Gold.Protein.ActiveResidues>
 MET295  LEU298  THR299  LEU301  ALA302  GLU305  TRP335  MET336  LEU339  MET340 
 GLY342  LEU343  ARG346  PHE356  ILE373  ILE376  PHE377  LEU380  LYS471  GLY472 
 MET473  HIS475  LEU476  LEU477  ASN478  MET479  VAL484  VAL487 

> <Gold.Protein.RotatedAtoms>
   37.2091   33.0192   41.3442 H   0  0  0  0  0  0  0  0  0  0  0  0  # atno 496  bound_to 491 

> <Gold.Score>
     Score     S(PLP)   S(hbond)     S(cho)   S(metal)  DE(clash)   DE(tors)     intcor
     48.96     -44.79       1.69       0.00       0.00       0.00       0.45       0.00

> <Gold.PLP.Fitness>
48.9592

> <Gold.PLP.PLP>
-44.7858

> <Gold.PLP.part.hbond>
-2.0000

> <Gold.PLP.part.metal>
0.0000

> <Gold.PLP.part.buried>
-4.3555

> <Gold.PLP.part.nonpolar>
-40.4663

> <Gold.PLP.part.repulsive>
0.0705

> <Gold.PLP.ligand.clash>
0.0000

> <Gold.PLP.ligand.torsion>
0.4486

> <Gold.PLP.Chemscore.Hbond>
1.6900

> <Gold.PLP.Chemscore.CHOScore>
0.0000

> <Gold.PLP.Chemscore.Metal>
0.0000

> <Gold.Chemscore.Hbonds>
donor molecule, donor type, donor heavy atom, donor atom, acceptor molecule, acceptor atom, score
      L1  H     1    24       P1   470  0.81
      L1  H    15    26       P1   582  0.88

> <Gold.PLP.Chemscore.Internal.Correction>
0.0007

