#       Name:                EN300-717561_i001
#       Creating user name   aseyller
#       Creation time:       Fri Apr 21 16:35:54 2023


#       File generated by GOLD software.
#

@<TRIPOS>MOLECULE
EN300-717561_i001|aminophenols|mol2|68|dock16
    26    27     1
SMALL
USER_CHARGES


@<TRIPOS>ATOM
      1 N1          24.9562  36.8057  40.6850 N.pl3          1 <1>                0.0000
      2 C2          26.3221  36.7887  40.3806 C.ar           1 <1>                0.0000
      3 C3          26.7406  36.8639  39.0605 C.ar           1 <1>                0.0000
      4 C4          28.0947  36.8473  38.7620 C.ar           1 <1>                0.0000
      5 O5          28.5062  36.9213  37.4683 O.3            1 <1>                0.0000
      6 C6          29.1848  38.0318  37.0774 C.ar           1 <1>                0.0000
      7 C7          30.5331  37.9469  36.7612 C.ar           1 <1>                0.0000
      8 C8          31.2205  39.0772  36.3635 C.ar           1 <1>                0.0000
      9 C9          30.5660  40.2924  36.2805 C.ar           1 <1>                0.0000
     10 C10         29.2225  40.3798  36.5955 C.ar           1 <1>                0.0000
     11 C11         28.5291  39.2514  36.9881 C.ar           1 <1>                0.0000
     12 C12         29.0299  36.7556  39.7827 C.ar           1 <1>                0.0000
     13 C13         28.6147  36.6801  41.0993 C.ar           1 <1>                0.0000
     14 C14         27.2639  36.7021  41.4034 C.ar           1 <1>                0.0000
     15 O15         26.8564  36.6283  42.6997 O.3            1 <1>                0.0000
     16 H16         26.0127  36.9348  38.2658 H              1 <1>                0.0000
     17 H17         31.0449  36.9981  36.8262 H              1 <1>                0.0000
     18 H18         32.2701  39.0118  36.1177 H              1 <1>                0.0000
     19 H19         31.1053  41.1749  35.9694 H              1 <1>                0.0000
     20 H20         28.7138  41.3302  36.5304 H              1 <1>                0.0000
     21 H21         27.4796  39.3201  37.2337 H              1 <1>                0.0000
     22 H22         30.0840  36.7428  39.5483 H              1 <1>                0.0000
     23 H23         29.3449  36.6081  41.8919 H              1 <1>                0.0000
     24 H24         24.3012  36.8701  39.9724 H              1 <1>                0.0000
     25 H25         24.6643  36.7491  41.6083 H              1 <1>                0.0000
     26 H26         26.5167  35.7601  42.9564 H              1 <1>                0.0000
@<TRIPOS>BOND
    1    1    2 1     
    2    1   24 1     
    3    1   25 1     
    4    2    3 ar    
    5    2   14 ar    
    6    3    4 ar    
    7    3   16 1     
    8    4    5 1     
    9    4   12 ar    
   10    5    6 1     
   11    6    7 ar    
   12    6   11 ar    
   13    7    8 ar    
   14    7   17 1     
   15    8    9 ar    
   16    8   18 1     
   17    9   10 ar    
   18    9   19 1     
   19   10   11 ar    
   20   10   20 1     
   21   11   21 1     
   22   12   13 ar    
   23   12   22 1     
   24   13   14 ar    
   25   13   23 1     
   26   14   15 1     
   27   15   26 1     
@<TRIPOS>SUBSTRUCTURE
      1 ****           1
@<TRIPOS>SET
DONOR_HYDROGENS      STATIC     ATOMS    <user>   **** ""
3 24 25 26
ATOM$RED        STATIC     ATOMS    COLORGROUP SYSTEM
3 24 25 26
@<TRIPOS>COMMENT
> <Gold.Version>
2022.2.0

> <Gold.Id.Protein>
1qkm|1qkm_protein|mol2

> <Gold.Protein.RotatedTorsions>
[  496  491  490  487 ] final  -64.83 input  -89.99 | X-H torsion

> <Gold.Protein.ActiveResidues>
 MET295  LEU298  THR299  LEU301  ALA302  GLU305  TRP335  MET336  LEU339  MET340 
 GLY342  LEU343  ARG346  PHE356  ILE373  ILE376  PHE377  LEU380  LYS471  GLY472 
 MET473  HIS475  LEU476  LEU477  ASN478  MET479  VAL484  VAL487 

> <Gold.Protein.RotatedAtoms>
   36.5353   34.7358   41.4151 H   0  0  0  0  0  0  0  0  0  0  0  0  # atno 496  bound_to 491 

> <Gold.Score>
     Score     S(PLP)   S(hbond)     S(cho)   S(metal)  DE(clash)   DE(tors)     intcor
     53.05     -48.55       1.58       0.00       0.00       0.00       0.12       0.00

> <Gold.PLP.Fitness>
53.0547

> <Gold.PLP.PLP>
-48.5537

> <Gold.PLP.part.hbond>
-1.7819

> <Gold.PLP.part.metal>
0.0000

> <Gold.PLP.part.buried>
-1.6883

> <Gold.PLP.part.nonpolar>
-46.0028

> <Gold.PLP.part.repulsive>
0.1762

> <Gold.PLP.ligand.clash>
0.0000

> <Gold.PLP.ligand.torsion>
0.1247

> <Gold.PLP.Chemscore.Hbond>
1.5833

> <Gold.PLP.Chemscore.CHOScore>
0.0000

> <Gold.PLP.Chemscore.Metal>
0.0000

> <Gold.Chemscore.Hbonds>
donor molecule, donor type, donor heavy atom, donor atom, acceptor molecule, acceptor atom, score
      L1  H     1    24       P1  1131  0.59
      L1  H    15    26       P1   582  0.99

> <Gold.PLP.Chemscore.Internal.Correction>
0.0007

