#       Name:                EN300-717561_i001
#       Creating user name   aseyller
#       Creation time:       Fri Apr 21 16:35:42 2023


#       File generated by GOLD software.
#

@<TRIPOS>MOLECULE
EN300-717561_i001|aminophenols|mol2|68|dock1
    26    27     1
SMALL
USER_CHARGES


@<TRIPOS>ATOM
      1 N1          29.1121  36.2332  41.9461 N.pl3          1 <1>                0.0000
      2 C2          28.2188  36.5174  40.9070 C.ar           1 <1>                0.0000
      3 C3          28.6793  36.6164  39.6025 C.ar           1 <1>                0.0000
      4 C4          27.7917  36.8977  38.5750 C.ar           1 <1>                0.0000
      5 O5          28.2418  36.9945  37.2957 O.3            1 <1>                0.0000
      6 C6          29.0474  38.0424  36.9806 C.ar           1 <1>                0.0000
      7 C7          28.5447  39.3356  36.9990 C.ar           1 <1>                0.0000
      8 C8          29.3659  40.3992  36.6786 C.ar           1 <1>                0.0000
      9 C9          30.6878  40.1759  36.3397 C.ar           1 <1>                0.0000
     10 C10         31.1911  38.8882  36.3202 C.ar           1 <1>                0.0000
     11 C11         30.3757  37.8217  36.6453 C.ar           1 <1>                0.0000
     12 C12         26.4444  37.0800  38.8513 C.ar           1 <1>                0.0000
     13 C13         25.9834  36.9822  40.1511 C.ar           1 <1>                0.0000
     14 C14         26.8645  36.6957  41.1803 C.ar           1 <1>                0.0000
     15 O15         26.4095  36.5992  42.4592 O.3            1 <1>                0.0000
     16 H16         29.7282  36.4749  39.3873 H              1 <1>                0.0000
     17 H17         27.5122  39.5104  37.2632 H              1 <1>                0.0000
     18 H18         28.9750  41.4059  36.6923 H              1 <1>                0.0000
     19 H19         31.3281  41.0089  36.0895 H              1 <1>                0.0000
     20 H20         32.2237  38.7166  36.0546 H              1 <1>                0.0000
     21 H21         30.7694  36.8161  36.6303 H              1 <1>                0.0000
     22 H22         25.7546  37.2990  38.0498 H              1 <1>                0.0000
     23 H23         24.9341  37.1253  40.3635 H              1 <1>                0.0000
     24 H24         30.0543  36.1052  41.7543 H              1 <1>                0.0000
     25 H25         28.7898  36.1680  42.8587 H              1 <1>                0.0000
     26 H26         26.5436  35.7294  42.8598 H              1 <1>                0.0000
@<TRIPOS>BOND
    1    1    2 1     
    2    1   24 1     
    3    1   25 1     
    4    2    3 ar    
    5    2   14 ar    
    6    3    4 ar    
    7    3   16 1     
    8    4    5 1     
    9    4   12 ar    
   10    5    6 1     
   11    6    7 ar    
   12    6   11 ar    
   13    7    8 ar    
   14    7   17 1     
   15    8    9 ar    
   16    8   18 1     
   17    9   10 ar    
   18    9   19 1     
   19   10   11 ar    
   20   10   20 1     
   21   11   21 1     
   22   12   13 ar    
   23   12   22 1     
   24   13   14 ar    
   25   13   23 1     
   26   14   15 1     
   27   15   26 1     
@<TRIPOS>SUBSTRUCTURE
      1 ****           1
@<TRIPOS>SET
DONOR_HYDROGENS      STATIC     ATOMS    <user>   **** ""
3 24 25 26
ATOM$RED        STATIC     ATOMS    COLORGROUP SYSTEM
3 24 25 26
@<TRIPOS>COMMENT
> <Gold.Version>
2022.2.0

> <Gold.Id.Protein>
1qkm|1qkm_protein|mol2

> <Gold.Protein.RotatedTorsions>
[  496  491  490  487 ] final  -61.89 input  -89.99 | X-H torsion

> <Gold.Protein.ActiveResidues>
 MET295  LEU298  THR299  LEU301  ALA302  GLU305  TRP335  MET336  LEU339  MET340 
 GLY342  LEU343  ARG346  PHE356  ILE373  ILE376  PHE377  LEU380  LYS471  GLY472 
 MET473  HIS475  LEU476  LEU477  ASN478  MET479  VAL484  VAL487 

> <Gold.Protein.RotatedAtoms>
   36.5117   34.7342   41.4574 H   0  0  0  0  0  0  0  0  0  0  0  0  # atno 496  bound_to 491 

> <Gold.Score>
     Score     S(PLP)   S(hbond)     S(cho)   S(metal)  DE(clash)   DE(tors)     intcor
     57.27     -51.52       1.99       0.00       0.00       0.00       0.11       0.00

> <Gold.PLP.Fitness>
57.2736

> <Gold.PLP.PLP>
-51.5234

> <Gold.PLP.part.hbond>
-1.7557

> <Gold.PLP.part.metal>
0.0000

> <Gold.PLP.part.buried>
-4.5491

> <Gold.PLP.part.nonpolar>
-46.2882

> <Gold.PLP.part.repulsive>
0.0743

> <Gold.PLP.ligand.clash>
0.0000

> <Gold.PLP.ligand.torsion>
0.1126

> <Gold.PLP.Chemscore.Hbond>
1.9913

> <Gold.PLP.Chemscore.CHOScore>
0.0000

> <Gold.PLP.Chemscore.Metal>
0.0000

> <Gold.Chemscore.Hbonds>
donor molecule, donor type, donor heavy atom, donor atom, acceptor molecule, acceptor atom, score
      L1  H     1    24       P1   470  0.99
      L1  H    15    26       P1   582  1.00

> <Gold.PLP.Chemscore.Internal.Correction>
0.0016

