#       Name:                EN300-717561_i001
#       Creating user name   aseyller
#       Creation time:       Fri Apr 21 16:35:57 2023


#       File generated by GOLD software.
#

@<TRIPOS>MOLECULE
EN300-717561_i001|aminophenols|mol2|68|dock19
    26    27     1
SMALL
USER_CHARGES


@<TRIPOS>ATOM
      1 N1          27.6241  35.2123  41.9970 N.pl3          1 <1>                0.0000
      2 C2          27.1390  35.9885  40.9384 C.ar           1 <1>                0.0000
      3 C3          27.8210  36.0210  39.7312 C.ar           1 <1>                0.0000
      4 C4          27.3376  36.7906  38.6840 C.ar           1 <1>                0.0000
      5 O5          28.0050  36.8229  37.4999 O.3            1 <1>                0.0000
      6 C6          29.3548  36.9764  37.5325 C.ar           1 <1>                0.0000
      7 C7          30.1684  35.9033  37.8667 C.ar           1 <1>                0.0000
      8 C8          31.5403  36.0620  37.8986 C.ar           1 <1>                0.0000
      9 C9          32.1028  37.2889  37.5979 C.ar           1 <1>                0.0000
     10 C10         31.2941  38.3600  37.2650 C.ar           1 <1>                0.0000
     11 C11         29.9220  38.2052  37.2260 C.ar           1 <1>                0.0000
     12 C12         26.1730  37.5275  38.8434 C.ar           1 <1>                0.0000
     13 C13         25.4918  37.4969  40.0461 C.ar           1 <1>                0.0000
     14 C14         25.9670  36.7254  41.0934 C.ar           1 <1>                0.0000
     15 O15         25.2955  36.6957  42.2766 O.3            1 <1>                0.0000
     16 H16         28.7279  35.4477  39.6071 H              1 <1>                0.0000
     17 H17         29.7296  34.9450  38.1019 H              1 <1>                0.0000
     18 H18         32.1741  35.2272  38.1590 H              1 <1>                0.0000
     19 H19         33.1756  37.4108  37.6234 H              1 <1>                0.0000
     20 H20         31.7359  39.3173  37.0312 H              1 <1>                0.0000
     21 H21         29.2909  39.0419  36.9656 H              1 <1>                0.0000
     22 H22         25.7980  38.1264  38.0267 H              1 <1>                0.0000
     23 H23         24.5858  38.0721  40.1677 H              1 <1>                0.0000
     24 H24         28.4381  34.6964  41.8869 H              1 <1>                0.0000
     25 H25         27.1487  35.1934  42.8423 H              1 <1>                0.0000
     26 H26         25.6406  36.0503  42.9086 H              1 <1>                0.0000
@<TRIPOS>BOND
    1    1    2 1     
    2    1   24 1     
    3    1   25 1     
    4    2    3 ar    
    5    2   14 ar    
    6    3    4 ar    
    7    3   16 1     
    8    4    5 1     
    9    4   12 ar    
   10    5    6 1     
   11    6    7 ar    
   12    6   11 ar    
   13    7    8 ar    
   14    7   17 1     
   15    8    9 ar    
   16    8   18 1     
   17    9   10 ar    
   18    9   19 1     
   19   10   11 ar    
   20   10   20 1     
   21   11   21 1     
   22   12   13 ar    
   23   12   22 1     
   24   13   14 ar    
   25   13   23 1     
   26   14   15 1     
   27   15   26 1     
@<TRIPOS>SUBSTRUCTURE
      1 ****           1
@<TRIPOS>SET
DONOR_HYDROGENS      STATIC     ATOMS    <user>   **** ""
3 24 25 26
ATOM$RED        STATIC     ATOMS    COLORGROUP SYSTEM
3 24 25 26
@<TRIPOS>COMMENT
> <Gold.Version>
2022.2.0

> <Gold.Id.Protein>
1qkm|1qkm_protein|mol2

> <Gold.Protein.RotatedTorsions>
[  496  491  490  487 ] final   20.58 input  -89.99 | X-H torsion

> <Gold.Protein.ActiveResidues>
 MET295  LEU298  THR299  LEU301  ALA302  GLU305  TRP335  MET336  LEU339  MET340 
 GLY342  LEU343  ARG346  PHE356  ILE373  ILE376  PHE377  LEU380  LYS471  GLY472 
 MET473  HIS475  LEU476  LEU477  ASN478  MET479  VAL484  VAL487 

> <Gold.Protein.RotatedAtoms>
   36.3045   33.9029   42.3584 H   0  0  0  0  0  0  0  0  0  0  0  0  # atno 496  bound_to 491 

> <Gold.Score>
     Score     S(PLP)   S(hbond)     S(cho)   S(metal)  DE(clash)   DE(tors)     intcor
     53.87     -47.42       2.42       0.00       0.00       0.00       0.40       0.00

> <Gold.PLP.Fitness>
53.8736

> <Gold.PLP.PLP>
-47.4154

> <Gold.PLP.part.hbond>
-2.7272

> <Gold.PLP.part.metal>
0.0000

> <Gold.PLP.part.buried>
-5.2729

> <Gold.PLP.part.nonpolar>
-39.9292

> <Gold.PLP.part.repulsive>
0.0746

> <Gold.PLP.ligand.clash>
0.0000

> <Gold.PLP.ligand.torsion>
0.3953

> <Gold.PLP.Chemscore.Hbond>
2.4160

> <Gold.PLP.Chemscore.CHOScore>
0.0000

> <Gold.PLP.Chemscore.Metal>
0.0000

> <Gold.Chemscore.Hbonds>
donor molecule, donor type, donor heavy atom, donor atom, acceptor molecule, acceptor atom, score
      L1  H     1    25       P1   582  1.00
      L1  H    15    26       P1   582  1.00
      P1  H  1258  1270       L1    15  0.42

> <Gold.PLP.Chemscore.Internal.Correction>
0.0007

