#       Name:                EN300-717561_i001
#       Creating user name   aseyller
#       Creation time:       Fri Apr 21 16:35:47 2023


#       File generated by GOLD software.
#

@<TRIPOS>MOLECULE
EN300-717561_i001|aminophenols|mol2|68|dock8
    26    27     1
SMALL
USER_CHARGES


@<TRIPOS>ATOM
      1 N1          29.2143  35.8700  41.9917 N.pl3          1 <1>                0.0000
      2 C2          28.7921  36.3086  40.7316 C.ar           1 <1>                0.0000
      3 C3          29.6748  36.9785  39.8975 C.ar           1 <1>                0.0000
      4 C4          29.2536  37.4116  38.6493 C.ar           1 <1>                0.0000
      5 O5          30.1181  38.0680  37.8306 O.3            1 <1>                0.0000
      6 C6          31.0730  37.3393  37.1952 C.ar           1 <1>                0.0000
      7 C7          31.8663  36.4564  37.9139 C.ar           1 <1>                0.0000
      8 C8          32.8360  35.7165  37.2655 C.ar           1 <1>                0.0000
      9 C9          33.0164  35.8552  35.9016 C.ar           1 <1>                0.0000
     10 C10         32.2275  36.7347  35.1832 C.ar           1 <1>                0.0000
     11 C11         31.2525  37.4727  35.8258 C.ar           1 <1>                0.0000
     12 C12         27.9508  37.1752  38.2352 C.ar           1 <1>                0.0000
     13 C13         27.0693  36.5079  39.0653 C.ar           1 <1>                0.0000
     14 C14         27.4862  36.0682  40.3105 C.ar           1 <1>                0.0000
     15 O15         26.6178  35.4111  41.1265 O.3            1 <1>                0.0000
     16 H16         30.6889  37.1631  40.2200 H              1 <1>                0.0000
     17 H17         31.7260  36.3480  38.9792 H              1 <1>                0.0000
     18 H18         33.4541  35.0294  37.8244 H              1 <1>                0.0000
     19 H19         33.7751  35.2757  35.3965 H              1 <1>                0.0000
     20 H20         32.3708  36.8415  34.1182 H              1 <1>                0.0000
     21 H21         30.6363  38.1592  35.2642 H              1 <1>                0.0000
     22 H22         27.6246  37.5132  37.2627 H              1 <1>                0.0000
     23 H23         26.0554  36.3258  38.7406 H              1 <1>                0.0000
     24 H24         30.1250  36.0343  42.2824 H              1 <1>                0.0000
     25 H25         28.5952  35.4050  42.5760 H              1 <1>                0.0000
     26 H26         26.8206  35.4977  42.0680 H              1 <1>                0.0000
@<TRIPOS>BOND
    1    1    2 1     
    2    1   24 1     
    3    1   25 1     
    4    2    3 ar    
    5    2   14 ar    
    6    3    4 ar    
    7    3   16 1     
    8    4    5 1     
    9    4   12 ar    
   10    5    6 1     
   11    6    7 ar    
   12    6   11 ar    
   13    7    8 ar    
   14    7   17 1     
   15    8    9 ar    
   16    8   18 1     
   17    9   10 ar    
   18    9   19 1     
   19   10   11 ar    
   20   10   20 1     
   21   11   21 1     
   22   12   13 ar    
   23   12   22 1     
   24   13   14 ar    
   25   13   23 1     
   26   14   15 1     
   27   15   26 1     
@<TRIPOS>SUBSTRUCTURE
      1 ****           1
@<TRIPOS>SET
DONOR_HYDROGENS      STATIC     ATOMS    <user>   **** ""
3 24 25 26
ATOM$RED        STATIC     ATOMS    COLORGROUP SYSTEM
3 24 25 26
@<TRIPOS>COMMENT
> <Gold.Version>
2022.2.0

> <Gold.Id.Protein>
1qkm|1qkm_protein|mol2

> <Gold.Protein.RotatedTorsions>
[  496  491  490  487 ] final -104.73 input  -89.99 | X-H torsion

> <Gold.Protein.ActiveResidues>
 MET295  LEU298  THR299  LEU301  ALA302  GLU305  TRP335  MET336  LEU339  MET340 
 GLY342  LEU343  ARG346  PHE356  ILE373  ILE376  PHE377  LEU380  LYS471  GLY472 
 MET473  HIS475  LEU476  LEU477  ASN478  MET479  VAL484  VAL487 

> <Gold.Protein.RotatedAtoms>
   36.8929   34.5309   40.9207 H   0  0  0  0  0  0  0  0  0  0  0  0  # atno 496  bound_to 491 

> <Gold.Score>
     Score     S(PLP)   S(hbond)     S(cho)   S(metal)  DE(clash)   DE(tors)     intcor
     52.46     -49.15       1.29       0.00       0.00       0.00       0.28       0.00

> <Gold.PLP.Fitness>
52.4576

> <Gold.PLP.PLP>
-49.1512

> <Gold.PLP.part.hbond>
-2.0000

> <Gold.PLP.part.metal>
0.0000

> <Gold.PLP.part.buried>
-5.2486

> <Gold.PLP.part.nonpolar>
-42.6249

> <Gold.PLP.part.repulsive>
0.1041

> <Gold.PLP.ligand.clash>
0.0000

> <Gold.PLP.ligand.torsion>
0.2826

> <Gold.PLP.Chemscore.Hbond>
1.2903

> <Gold.PLP.Chemscore.CHOScore>
0.0000

> <Gold.PLP.Chemscore.Metal>
0.0000

> <Gold.Chemscore.Hbonds>
donor molecule, donor type, donor heavy atom, donor atom, acceptor molecule, acceptor atom, score
      L1  H     1    24       P1   470  0.74
      L1  H    15    26       P1   582  0.55

> <Gold.PLP.Chemscore.Internal.Correction>
0.0007

