#       Name:                EN300-717561_i001
#       Creating user name   aseyller
#       Creation time:       Fri Apr 21 16:35:46 2023


#       File generated by GOLD software.
#

@<TRIPOS>MOLECULE
EN300-717561_i001|aminophenols|mol2|68|dock6
    26    27     1
SMALL
USER_CHARGES


@<TRIPOS>ATOM
      1 N1          27.8739  35.5091  42.4085 N.pl3          1 <1>                0.0000
      2 C2          27.4880  36.0444  41.1743 C.ar           1 <1>                0.0000
      3 C3          28.4052  36.1318  40.1376 C.ar           1 <1>                0.0000
      4 C4          28.0197  36.6623  38.9158 C.ar           1 <1>                0.0000
      5 O5          28.9177  36.7481  37.8986 O.3            1 <1>                0.0000
      6 C6          30.0939  36.0799  38.0280 C.ar           1 <1>                0.0000
      7 C7          31.2904  36.7811  38.0705 C.ar           1 <1>                0.0000
      8 C8          32.4847  36.0995  38.2025 C.ar           1 <1>                0.0000
      9 C9          32.4882  34.7197  38.2922 C.ar           1 <1>                0.0000
     10 C10         31.2972  34.0185  38.2497 C.ar           1 <1>                0.0000
     11 C11         30.0999  34.6956  38.1236 C.ar           1 <1>                0.0000
     12 C12         26.7180  37.1050  38.7304 C.ar           1 <1>                0.0000
     13 C13         25.8023  37.0192  39.7627 C.ar           1 <1>                0.0000
     14 C14         26.1804  36.4850  40.9831 C.ar           1 <1>                0.0000
     15 O15         25.2781  36.4005  41.9983 O.3            1 <1>                0.0000
     16 H16         29.4186  35.7876  40.2820 H              1 <1>                0.0000
     17 H17         31.2882  37.8588  38.0000 H              1 <1>                0.0000
     18 H18         33.4164  36.6447  38.2351 H              1 <1>                0.0000
     19 H19         33.4230  34.1886  38.3954 H              1 <1>                0.0000
     20 H20         31.3029  32.9408  38.3194 H              1 <1>                0.0000
     21 H21         29.1699  34.1476  38.0909 H              1 <1>                0.0000
     22 H22         26.4196  37.5179  37.7781 H              1 <1>                0.0000
     23 H23         24.7898  37.3653  39.6157 H              1 <1>                0.0000
     24 H24         28.7836  35.1989  42.5394 H              1 <1>                0.0000
     25 H25         27.2329  35.4520  43.1342 H              1 <1>                0.0000
     26 H26         25.6312  36.0039  42.8064 H              1 <1>                0.0000
@<TRIPOS>BOND
    1    1    2 1     
    2    1   24 1     
    3    1   25 1     
    4    2    3 ar    
    5    2   14 ar    
    6    3    4 ar    
    7    3   16 1     
    8    4    5 1     
    9    4   12 ar    
   10    5    6 1     
   11    6    7 ar    
   12    6   11 ar    
   13    7    8 ar    
   14    7   17 1     
   15    8    9 ar    
   16    8   18 1     
   17    9   10 ar    
   18    9   19 1     
   19   10   11 ar    
   20   10   20 1     
   21   11   21 1     
   22   12   13 ar    
   23   12   22 1     
   24   13   14 ar    
   25   13   23 1     
   26   14   15 1     
   27   15   26 1     
@<TRIPOS>SUBSTRUCTURE
      1 ****           1
@<TRIPOS>SET
DONOR_HYDROGENS      STATIC     ATOMS    <user>   **** ""
3 24 25 26
ATOM$RED        STATIC     ATOMS    COLORGROUP SYSTEM
3 24 25 26
@<TRIPOS>COMMENT
> <Gold.Version>
2022.2.0

> <Gold.Id.Protein>
1qkm|1qkm_protein|mol2

> <Gold.Protein.RotatedTorsions>
[  496  491  490  487 ] final  -74.58 input  -89.99 | X-H torsion

> <Gold.Protein.ActiveResidues>
 MET295  LEU298  THR299  LEU301  ALA302  GLU305  TRP335  MET336  LEU339  MET340 
 GLY342  LEU343  ARG346  PHE356  ILE373  ILE376  PHE377  LEU380  LYS471  GLY472 
 MET473  HIS475  LEU476  LEU477  ASN478  MET479  VAL484  VAL487 

> <Gold.Protein.RotatedAtoms>
   36.6178   34.7239   41.2782 H   0  0  0  0  0  0  0  0  0  0  0  0  # atno 496  bound_to 491 

> <Gold.Score>
     Score     S(PLP)   S(hbond)     S(cho)   S(metal)  DE(clash)   DE(tors)     intcor
     53.75     -49.25       2.18       0.00       0.00       1.75       0.14       0.00

> <Gold.PLP.Fitness>
53.7542

> <Gold.PLP.PLP>
-49.2539

> <Gold.PLP.part.hbond>
-2.7353

> <Gold.PLP.part.metal>
0.0000

> <Gold.PLP.part.buried>
-4.3496

> <Gold.PLP.part.nonpolar>
-42.7216

> <Gold.PLP.part.repulsive>
0.0821

> <Gold.PLP.ligand.clash>
1.7539

> <Gold.PLP.ligand.torsion>
0.1440

> <Gold.PLP.Chemscore.Hbond>
2.1805

> <Gold.PLP.Chemscore.CHOScore>
0.0000

> <Gold.PLP.Chemscore.Metal>
0.0000

> <Gold.Chemscore.Hbonds>
donor molecule, donor type, donor heavy atom, donor atom, acceptor molecule, acceptor atom, score
      L1  H     1    25       P1   582  0.90
      L1  H    15    26       P1   582  1.00
      P1  H  1258  1270       L1    15  0.28

> <Gold.PLP.Chemscore.Internal.Correction>
0.0007

