#       Name:                EN300-717561_i001
#       Creating user name   aseyller
#       Creation time:       Fri Apr 21 16:35:49 2023


#       File generated by GOLD software.
#

@<TRIPOS>MOLECULE
EN300-717561_i001|aminophenols|mol2|68|dock10
    26    27     1
SMALL
USER_CHARGES


@<TRIPOS>ATOM
      1 N1          25.2055  37.0654  39.2416 N.pl3          1 <1>                0.0000
      2 C2          26.4607  36.9313  39.8459 C.ar           1 <1>                0.0000
      3 C3          27.6136  37.1716  39.1133 C.ar           1 <1>                0.0000
      4 C4          28.8558  37.0383  39.7149 C.ar           1 <1>                0.0000
      5 O5          29.9867  37.2740  38.9980 O.3            1 <1>                0.0000
      6 C6          30.6840  36.2031  38.5361 C.ar           1 <1>                0.0000
      7 C7          30.6186  34.9898  39.2061 C.ar           1 <1>                0.0000
      8 C8          31.3281  33.9025  38.7341 C.ar           1 <1>                0.0000
      9 C9          32.1029  34.0226  37.5951 C.ar           1 <1>                0.0000
     10 C10         32.1701  35.2307  36.9259 C.ar           1 <1>                0.0000
     11 C11         31.4580  36.3195  37.3903 C.ar           1 <1>                0.0000
     12 C12         28.9455  36.6651  41.0481 C.ar           1 <1>                0.0000
     13 C13         27.7975  36.4247  41.7800 C.ar           1 <1>                0.0000
     14 C14         26.5542  36.5619  41.1858 C.ar           1 <1>                0.0000
     15 O15         25.4248  36.3255  41.9073 O.3            1 <1>                0.0000
     16 H16         27.5439  37.4617  38.0753 H              1 <1>                0.0000
     17 H17         30.0139  34.8956  40.0959 H              1 <1>                0.0000
     18 H18         31.2779  32.9580  39.2554 H              1 <1>                0.0000
     19 H19         32.6568  33.1713  37.2278 H              1 <1>                0.0000
     20 H20         32.7764  35.3220  36.0369 H              1 <1>                0.0000
     21 H21         31.5106  37.2627  36.8670 H              1 <1>                0.0000
     22 H22         29.9139  36.5619  41.5150 H              1 <1>                0.0000
     23 H23         27.8702  36.1336  42.8176 H              1 <1>                0.0000
     24 H24         25.1413  37.3266  38.3097 H              1 <1>                0.0000
     25 H25         24.3998  36.8933  39.7536 H              1 <1>                0.0000
     26 H26         25.5757  35.8272  42.7221 H              1 <1>                0.0000
@<TRIPOS>BOND
    1    1    2 1     
    2    1   24 1     
    3    1   25 1     
    4    2    3 ar    
    5    2   14 ar    
    6    3    4 ar    
    7    3   16 1     
    8    4    5 1     
    9    4   12 ar    
   10    5    6 1     
   11    6    7 ar    
   12    6   11 ar    
   13    7    8 ar    
   14    7   17 1     
   15    8    9 ar    
   16    8   18 1     
   17    9   10 ar    
   18    9   19 1     
   19   10   11 ar    
   20   10   20 1     
   21   11   21 1     
   22   12   13 ar    
   23   12   22 1     
   24   13   14 ar    
   25   13   23 1     
   26   14   15 1     
   27   15   26 1     
@<TRIPOS>SUBSTRUCTURE
      1 ****           1
@<TRIPOS>SET
DONOR_HYDROGENS      STATIC     ATOMS    <user>   **** ""
3 24 25 26
ATOM$RED        STATIC     ATOMS    COLORGROUP SYSTEM
3 24 25 26
@<TRIPOS>COMMENT
> <Gold.Version>
2022.2.0

> <Gold.Id.Protein>
1qkm|1qkm_protein|mol2

> <Gold.Protein.RotatedTorsions>
[  496  491  490  487 ] final  -39.12 input  -89.99 | X-H torsion

> <Gold.Protein.ActiveResidues>
 MET295  LEU298  THR299  LEU301  ALA302  GLU305  TRP335  MET336  LEU339  MET340 
 GLY342  LEU343  ARG346  PHE356  ILE373  ILE376  PHE377  LEU380  LYS471  GLY472 
 MET473  HIS475  LEU476  LEU477  ASN478  MET479  VAL484  VAL487 

> <Gold.Protein.RotatedAtoms>
   36.3585   34.6440   41.7845 H   0  0  0  0  0  0  0  0  0  0  0  0  # atno 496  bound_to 491 

> <Gold.Score>
     Score     S(PLP)   S(hbond)     S(cho)   S(metal)  DE(clash)   DE(tors)     intcor
     55.75     -51.73       1.75       0.00       0.00       0.00       0.62       0.00

> <Gold.PLP.Fitness>
55.7463

> <Gold.PLP.PLP>
-51.7350

> <Gold.PLP.part.hbond>
-2.9375

> <Gold.PLP.part.metal>
0.0000

> <Gold.PLP.part.buried>
-2.7673

> <Gold.PLP.part.nonpolar>
-47.7115

> <Gold.PLP.part.repulsive>
0.1558

> <Gold.PLP.ligand.clash>
0.0042

> <Gold.PLP.ligand.torsion>
0.6190

> <Gold.PLP.Chemscore.Hbond>
1.7510

> <Gold.PLP.Chemscore.CHOScore>
0.0000

> <Gold.PLP.Chemscore.Metal>
0.0000

> <Gold.Chemscore.Hbonds>
donor molecule, donor type, donor heavy atom, donor atom, acceptor molecule, acceptor atom, score
      L1  H     1    25       P1  1131  0.71
      L1  H    15    26       P1   582  1.00
      P1  H  1258  1270       L1    15  0.04

> <Gold.PLP.Chemscore.Internal.Correction>
0.0007

