#       Name:                EN300-717561_i001
#       Creating user name   aseyller
#       Creation time:       Fri Apr 21 16:35:41 2023


#       File generated by GOLD software.
#

@<TRIPOS>MOLECULE
EN300-717561_i001
    26    27     1
SMALL
USER_CHARGES


@<TRIPOS>ATOM
      1 N1          -2.9037   1.7354  -1.0694 N.pl3          1 <1>                0.0000
      2 C2          -2.3655   0.5391  -0.5818 C.ar           1 <1>                0.0000
      3 C3          -1.0797   0.1599  -0.9375 C.ar           1 <1>                0.0000
      4 C4          -0.5490  -1.0258  -0.4524 C.ar           1 <1>                0.0000
      5 O5           0.7115  -1.3984  -0.8000 O.3            1 <1>                0.0000
      6 C6           1.7480  -0.6516  -0.3370 C.ar           1 <1>                0.0000
      7 C7           3.0408  -0.9151  -0.7666 C.ar           1 <1>                0.0000
      8 C8           4.0927  -0.1541  -0.2947 C.ar           1 <1>                0.0000
      9 C9           3.8581   0.8694   0.6050 C.ar           1 <1>                0.0000
     10 C10          2.5708   1.1337   1.0350 C.ar           1 <1>                0.0000
     11 C11          1.5147   0.3795   0.5618 C.ar           1 <1>                0.0000
     12 C12         -1.3032  -1.8320   0.3878 C.ar           1 <1>                0.0000
     13 C13         -2.5853  -1.4560   0.7432 C.ar           1 <1>                0.0000
     14 C14         -3.1181  -0.2701   0.2663 C.ar           1 <1>                0.0000
     15 O15         -4.3800   0.0992   0.6172 O.3            1 <1>                0.0000
     16 H16         -0.4926   0.7872  -1.5919 H              1 <1>                0.0000
     17 H17          3.2246  -1.7146  -1.4690 H              1 <1>                0.0000
     18 H18          5.0992  -0.3590  -0.6284 H              1 <1>                0.0000
     19 H19          4.6819   1.4632   0.9727 H              1 <1>                0.0000
     20 H20          2.3904   1.9333   1.7382 H              1 <1>                0.0000
     21 H21          0.5094   0.5866   0.8977 H              1 <1>                0.0000
     22 H22         -0.8882  -2.7551   0.7646 H              1 <1>                0.0000
     23 H23         -3.1705  -2.0859   1.3969 H              1 <1>                0.0000
     24 H24         -2.3774   2.3002  -1.6567 H              1 <1>                0.0000
     25 H25         -3.8045   1.9979  -0.8233 H              1 <1>                0.0000
     26 H26         -4.4241   0.6330   1.4223 H              1 <1>                0.0000
@<TRIPOS>BOND
    1    1    2 1     
    2    1   24 1     
    3    1   25 1     
    4    2    3 ar    
    5    2   14 ar    
    6    3    4 ar    
    7    3   16 1     
    8    4    5 1     
    9    4   12 ar    
   10    5    6 1     
   11    6    7 ar    
   12    6   11 ar    
   13    7    8 ar    
   14    7   17 1     
   15    8    9 ar    
   16    8   18 1     
   17    9   10 ar    
   18    9   19 1     
   19   10   11 ar    
   20   10   20 1     
   21   11   21 1     
   22   12   13 ar    
   23   12   22 1     
   24   13   14 ar    
   25   13   23 1     
   26   14   15 1     
   27   15   26 1     
@<TRIPOS>SUBSTRUCTURE
      1 ****           1
@<TRIPOS>SET
DONOR_HYDROGENS      STATIC     ATOMS    <user>   **** ""
3 24 25 26
ATOM$RED        STATIC     ATOMS    COLORGROUP SYSTEM
3 24 25 26
