#       Name:                EN300-374211_i001
#       Creating user name   aseyller
#       Creation time:       Fri Apr 21 12:16:37 2023


#       File generated by GOLD software.
#

@<TRIPOS>MOLECULE
EN300-374211_i001|amine_3|mol2|1|dock6
    27    28     1
SMALL
USER_CHARGES


@<TRIPOS>ATOM
      1 C1          25.5277  37.0227  41.1352 C.3            1 <1>                0.0000
      2 O2          26.8092  36.5727  40.6218 O.3            1 <1>                0.0000
      3 C3          27.1528  36.9866  39.3868 C.2            1 <1>                0.0000
      4 O4          26.3510  37.5922  38.7043 O.2            1 <1>                0.0000
      5 C5          28.5048  36.7039  38.8625 C.ar           1 <1>                0.0000
      6 C6          29.3898  35.9080  39.5933 C.ar           1 <1>                0.0000
      7 C7          30.6505  35.6487  39.1011 C.ar           1 <1>                0.0000
      8 C8          31.0518  36.1715  37.8809 C.ar           1 <1>                0.0000
      9 C9          32.4408  35.8674  37.3833 C.3            1 <1>                0.0000
     10 C10         32.5251  36.0750  35.8714 C.3            1 <1>                0.0000
     11 C11         31.9764  37.4667  35.5310 C.3            1 <1>                0.0000
     12 N12         30.5575  37.4947  35.9111 N.pl3          1 <1>                0.0000
     13 C13         30.1770  36.9602  37.1476 C.ar           1 <1>                0.0000
     14 C14         28.9033  37.2253  37.6322 C.ar           1 <1>                0.0000
     15 H15         25.3750  36.6186  42.1360 H              1 <1>                0.0000
     16 H16         25.5153  38.1117  41.1773 H              1 <1>                0.0000
     17 H17         24.7307  36.6754  40.4777 H              1 <1>                0.0000
     18 H18         29.0861  35.4962  40.5444 H              1 <1>                0.0000
     19 H19         31.3318  35.0337  39.6705 H              1 <1>                0.0000
     20 H20         33.1528  36.5286  37.8775 H              1 <1>                0.0000
     21 H21         32.6888  34.8324  37.6187 H              1 <1>                0.0000
     22 H22         33.5644  36.0036  35.5504 H              1 <1>                0.0000
     23 H23         31.9314  35.3141  35.3647 H              1 <1>                0.0000
     24 H24         32.5233  38.2261  36.0897 H              1 <1>                0.0000
     25 H25         32.0756  37.6511  34.4612 H              1 <1>                0.0000
     26 H26         28.2234  37.8381  37.0589 H              1 <1>                0.0000
     27 H27         29.8950  37.8771  35.3146 H              1 <1>                0.0000
@<TRIPOS>BOND
    1    1    2 1     
    2    1   15 1     
    3    1   16 1     
    4    1   17 1     
    5    2    3 1     
    6    3    4 2     
    7    3    5 1     
    8    5    6 ar    
    9    5   14 ar    
   10    6    7 ar    
   11    6   18 1     
   12    7    8 ar    
   13    7   19 1     
   14    8    9 1     
   15    8   13 ar    
   16    9   10 1     
   17    9   20 1     
   18    9   21 1     
   19   10   11 1     
   20   10   22 1     
   21   10   23 1     
   22   11   12 1     
   23   11   24 1     
   24   11   25 1     
   25   12   13 1     
   26   12   27 1     
   27   13   14 ar    
   28   14   26 1     
@<TRIPOS>SUBSTRUCTURE
      1 ****           1
@<TRIPOS>SET
DONOR_HYDROGENS      STATIC     ATOMS    <user>   **** ""
1 27
ATOM$RED        STATIC     ATOMS    COLORGROUP SYSTEM
1 27
@<TRIPOS>COMMENT
> <Gold.Version>
2022.2.0

> <Gold.Id.Protein>
1qkm|1qkm_protein|mol2

> <Gold.Protein.RotatedTorsions>
[  496  491  490  487 ] final  -29.32 input  -89.99 | X-H torsion

> <Gold.Protein.ActiveResidues>
 MET295  LEU298  THR299  LEU301  ALA302  GLU305  TRP335  MET336  LEU339  MET340 
 GLY342  LEU343  ARG346  PHE356  ILE373  ILE376  PHE377  LEU380  LYS471  GLY472 
 MET473  HIS475  LEU476  LEU477  ASN478  MET479  VAL484  VAL487 

> <Gold.Protein.RotatedAtoms>
   36.3121   34.5649   41.9170 H   0  0  0  0  0  0  0  0  0  0  0  0  # atno 496  bound_to 491 

> <Gold.Score>
     Score     S(PLP)   S(hbond)     S(cho)   S(metal)  DE(clash)   DE(tors)     intcor
     43.13     -43.26       0.00       0.00       0.00       0.00       0.06       0.00

> <Gold.PLP.Fitness>
43.1322

> <Gold.PLP.PLP>
-43.2620

> <Gold.PLP.part.hbond>
0.0000

> <Gold.PLP.part.metal>
0.0000

> <Gold.PLP.part.buried>
-4.0621

> <Gold.PLP.part.nonpolar>
-39.6833

> <Gold.PLP.part.repulsive>
0.1260

> <Gold.PLP.ligand.clash>
0.0000

> <Gold.PLP.ligand.torsion>
0.0649

> <Gold.PLP.Chemscore.Hbond>
0.0000

> <Gold.PLP.Chemscore.CHOScore>
0.0000

> <Gold.PLP.Chemscore.Metal>
0.0000

> <Gold.PLP.Chemscore.Internal.Correction>
0.0000

