#       Name:                EN300-374211_i001
#       Creating user name   aseyller
#       Creation time:       Fri Apr 21 12:16:37 2023


#       File generated by GOLD software.
#

@<TRIPOS>MOLECULE
EN300-374211_i001|amine_3|mol2|1|dock4
    27    28     1
SMALL
USER_CHARGES


@<TRIPOS>ATOM
      1 C1          26.0347  37.3207  39.3988 C.3            1 <1>                0.0000
      2 O2          27.2858  37.2845  38.6627 O.3            1 <1>                0.0000
      3 C3          28.3599  36.7880  39.3064 C.2            1 <1>                0.0000
      4 O4          28.2774  36.4819  40.4790 O.2            1 <1>                0.0000
      5 C5          29.6383  36.6156  38.5861 C.ar           1 <1>                0.0000
      6 C6          30.6219  35.7642  39.0942 C.ar           1 <1>                0.0000
      7 C7          31.8135  35.6081  38.4200 C.ar           1 <1>                0.0000
      8 C8          32.0474  36.2902  37.2354 C.ar           1 <1>                0.0000
      9 C9          33.3662  36.0945  36.5341 C.3            1 <1>                0.0000
     10 C10         33.2536  36.4900  35.0621 C.3            1 <1>                0.0000
     11 C11         32.6436  37.8949  34.9718 C.3            1 <1>                0.0000
     12 N12         31.2846  37.8304  35.5262 N.pl3          1 <1>                0.0000
     13 C13         31.0736  37.1352  36.7227 C.ar           1 <1>                0.0000
     14 C14         29.8681  37.2976  37.3918 C.ar           1 <1>                0.0000
     15 H15         25.2531  37.7419  38.7664 H              1 <1>                0.0000
     16 H16         25.7573  36.3088  39.6939 H              1 <1>                0.0000
     17 H17         26.1544  37.9388  40.2886 H              1 <1>                0.0000
     18 H18         30.4487  35.2284  40.0158 H              1 <1>                0.0000
     19 H19         32.5716  34.9494  38.8174 H              1 <1>                0.0000
     20 H20         34.1247  36.7119  37.0155 H              1 <1>                0.0000
     21 H21         33.6587  35.0468  36.6038 H              1 <1>                0.0000
     22 H22         34.2444  36.4922  34.6077 H              1 <1>                0.0000
     23 H23         32.6123  35.7792  34.5410 H              1 <1>                0.0000
     24 H24         33.2451  38.5965  35.5497 H              1 <1>                0.0000
     25 H25         32.6026  38.2133  33.9300 H              1 <1>                0.0000
     26 H26         29.1109  37.9546  36.9900 H              1 <1>                0.0000
     27 H27         30.5454  38.2623  35.0702 H              1 <1>                0.0000
@<TRIPOS>BOND
    1    1    2 1     
    2    1   15 1     
    3    1   16 1     
    4    1   17 1     
    5    2    3 1     
    6    3    4 2     
    7    3    5 1     
    8    5    6 ar    
    9    5   14 ar    
   10    6    7 ar    
   11    6   18 1     
   12    7    8 ar    
   13    7   19 1     
   14    8    9 1     
   15    8   13 ar    
   16    9   10 1     
   17    9   20 1     
   18    9   21 1     
   19   10   11 1     
   20   10   22 1     
   21   10   23 1     
   22   11   12 1     
   23   11   24 1     
   24   11   25 1     
   25   12   13 1     
   26   12   27 1     
   27   13   14 ar    
   28   14   26 1     
@<TRIPOS>SUBSTRUCTURE
      1 ****           1
@<TRIPOS>SET
DONOR_HYDROGENS      STATIC     ATOMS    <user>   **** ""
1 27
ATOM$RED        STATIC     ATOMS    COLORGROUP SYSTEM
1 27
@<TRIPOS>COMMENT
> <Gold.Version>
2022.2.0

> <Gold.Id.Protein>
1qkm|1qkm_protein|mol2

> <Gold.Protein.RotatedTorsions>
[  496  491  490  487 ] final   87.26 input  -89.99 | X-H torsion

> <Gold.Protein.ActiveResidues>
 MET295  LEU298  THR299  LEU301  ALA302  GLU305  TRP335  MET336  LEU339  MET340 
 GLY342  LEU343  ARG346  PHE356  ILE373  ILE376  PHE377  LEU380  LYS471  GLY472 
 MET473  HIS475  LEU476  LEU477  ASN478  MET479  VAL484  VAL487 

> <Gold.Protein.RotatedAtoms>
   36.7949   33.0409   42.0564 H   0  0  0  0  0  0  0  0  0  0  0  0  # atno 496  bound_to 491 

> <Gold.Score>
     Score     S(PLP)   S(hbond)     S(cho)   S(metal)  DE(clash)   DE(tors)     intcor
     44.64     -45.00       0.00       0.00       0.00       0.00       0.18       0.00

> <Gold.PLP.Fitness>
44.6398

> <Gold.PLP.PLP>
-44.9971

> <Gold.PLP.part.hbond>
0.0000

> <Gold.PLP.part.metal>
0.0000

> <Gold.PLP.part.buried>
-3.6476

> <Gold.PLP.part.nonpolar>
-41.2679

> <Gold.PLP.part.repulsive>
0.0740

> <Gold.PLP.ligand.clash>
0.0000

> <Gold.PLP.ligand.torsion>
0.1787

> <Gold.PLP.Chemscore.Hbond>
0.0000

> <Gold.PLP.Chemscore.CHOScore>
0.0000

> <Gold.PLP.Chemscore.Metal>
0.0000

> <Gold.PLP.Chemscore.Internal.Correction>
0.0000

