#       Name:                EN300-374211_i001
#       Creating user name   aseyller
#       Creation time:       Fri Apr 21 12:16:37 2023


#       File generated by GOLD software.
#

@<TRIPOS>MOLECULE
EN300-374211_i001|amine_3|mol2|1|dock7
    27    28     1
SMALL
USER_CHARGES


@<TRIPOS>ATOM
      1 C1          32.8634  35.4082  36.7870 C.3            1 <1>                0.0000
      2 O2          31.5885  36.0074  37.1388 O.3            1 <1>                0.0000
      3 C3          31.0608  35.6670  38.3305 C.2            1 <1>                0.0000
      4 O4          31.6937  34.9702  39.0982 O.2            1 <1>                0.0000
      5 C5          29.7122  36.1412  38.7038 C.ar           1 <1>                0.0000
      6 C6          28.9085  36.7868  37.7615 C.ar           1 <1>                0.0000
      7 C7          27.6521  37.2291  38.1148 C.ar           1 <1>                0.0000
      8 C8          27.1742  37.0380  39.4025 C.ar           1 <1>                0.0000
      9 C9          25.7972  37.5425  39.7472 C.3            1 <1>                0.0000
     10 C10         25.2578  36.8238  40.9835 C.3            1 <1>                0.0000
     11 C11         26.3057  36.9062  42.1012 C.3            1 <1>                0.0000
     12 N12         27.5029  36.1856  41.6476 N.pl3          1 <1>                0.0000
     13 C13         27.9655  36.3944  40.3431 C.ar           1 <1>                0.0000
     14 C14         29.2316  35.9418  39.9974 C.ar           1 <1>                0.0000
     15 H15         33.1746  35.7658  35.8054 H              1 <1>                0.0000
     16 H16         33.6123  35.6856  37.5288 H              1 <1>                0.0000
     17 H17         32.7606  34.3233  36.7625 H              1 <1>                0.0000
     18 H18         29.2719  36.9398  36.7560 H              1 <1>                0.0000
     19 H19         27.0348  37.7289  37.3829 H              1 <1>                0.0000
     20 H20         25.8456  38.6132  39.9461 H              1 <1>                0.0000
     21 H21         25.1275  37.3634  38.9061 H              1 <1>                0.0000
     22 H22         24.3356  37.3034  41.3115 H              1 <1>                0.0000
     23 H23         25.0624  35.7789  40.7423 H              1 <1>                0.0000
     24 H24         26.5548  37.9489  42.2977 H              1 <1>                0.0000
     25 H25         25.9163  36.4417  43.0072 H              1 <1>                0.0000
     26 H26         29.8452  35.4396  40.7307 H              1 <1>                0.0000
     27 H27         27.9652  35.5745  42.2425 H              1 <1>                0.0000
@<TRIPOS>BOND
    1    1    2 1     
    2    1   15 1     
    3    1   16 1     
    4    1   17 1     
    5    2    3 1     
    6    3    4 2     
    7    3    5 1     
    8    5    6 ar    
    9    5   14 ar    
   10    6    7 ar    
   11    6   18 1     
   12    7    8 ar    
   13    7   19 1     
   14    8    9 1     
   15    8   13 ar    
   16    9   10 1     
   17    9   20 1     
   18    9   21 1     
   19   10   11 1     
   20   10   22 1     
   21   10   23 1     
   22   11   12 1     
   23   11   24 1     
   24   11   25 1     
   25   12   13 1     
   26   12   27 1     
   27   13   14 ar    
   28   14   26 1     
@<TRIPOS>SUBSTRUCTURE
      1 ****           1
@<TRIPOS>SET
DONOR_HYDROGENS      STATIC     ATOMS    <user>   **** ""
1 27
ATOM$RED        STATIC     ATOMS    COLORGROUP SYSTEM
1 27
@<TRIPOS>COMMENT
> <Gold.Version>
2022.2.0

> <Gold.Id.Protein>
1qkm|1qkm_protein|mol2

> <Gold.Protein.RotatedTorsions>
[  496  491  490  487 ] final   73.13 input  -89.99 | X-H torsion

> <Gold.Protein.ActiveResidues>
 MET295  LEU298  THR299  LEU301  ALA302  GLU305  TRP335  MET336  LEU339  MET340 
 GLY342  LEU343  ARG346  PHE356  ILE373  ILE376  PHE377  LEU380  LYS471  GLY472 
 MET473  HIS475  LEU476  LEU477  ASN478  MET479  VAL484  VAL487 

> <Gold.Protein.RotatedAtoms>
   36.6654   33.1662   42.2025 H   0  0  0  0  0  0  0  0  0  0  0  0  # atno 496  bound_to 491 

> <Gold.Score>
     Score     S(PLP)   S(hbond)     S(cho)   S(metal)  DE(clash)   DE(tors)     intcor
     42.93     -43.06       0.00       0.00       0.00       0.00       0.06       0.00

> <Gold.PLP.Fitness>
42.9305

> <Gold.PLP.PLP>
-43.0576

> <Gold.PLP.part.hbond>
-0.9544

> <Gold.PLP.part.metal>
0.0000

> <Gold.PLP.part.buried>
-0.4283

> <Gold.PLP.part.nonpolar>
-43.1495

> <Gold.PLP.part.repulsive>
1.1712

> <Gold.PLP.ligand.clash>
0.0000

> <Gold.PLP.ligand.torsion>
0.0635

> <Gold.PLP.Chemscore.Hbond>
0.0000

> <Gold.PLP.Chemscore.CHOScore>
0.0000

> <Gold.PLP.Chemscore.Metal>
0.0000

> <Gold.PLP.Chemscore.Internal.Correction>
0.0000

