#       Name:                EN300-374211_i001
#       Creating user name   aseyller
#       Creation time:       Fri Apr 21 12:16:37 2023


#       File generated by GOLD software.
#

@<TRIPOS>MOLECULE
EN300-374211_i001|amine_3|mol2|1|dock5
    27    28     1
SMALL
USER_CHARGES


@<TRIPOS>ATOM
      1 C1          32.0553  38.2219  34.6433 C.3            1 <1>                0.0000
      2 O2          31.0297  38.0047  35.6480 O.3            1 <1>                0.0000
      3 C3          31.3810  37.2937  36.7368 C.2            1 <1>                0.0000
      4 O4          32.5385  36.9625  36.8985 O.2            1 <1>                0.0000
      5 C5          30.3585  36.9166  37.7344 C.ar           1 <1>                0.0000
      6 C6          30.6813  36.0445  38.7764 C.ar           1 <1>                0.0000
      7 C7          29.7238  35.6941  39.7034 C.ar           1 <1>                0.0000
      8 C8          28.4365  36.2017  39.6129 C.ar           1 <1>                0.0000
      9 C9          27.4196  35.7878  40.6445 C.3            1 <1>                0.0000
     10 C10         26.2685  36.7920  40.6943 C.3            1 <1>                0.0000
     11 C11         25.7366  37.0072  39.2714 C.3            1 <1>                0.0000
     12 N12         26.8179  37.6006  38.4733 N.pl3          1 <1>                0.0000
     13 C13         28.1092  37.0713  38.5825 C.ar           1 <1>                0.0000
     14 C14         29.0667  37.4338  37.6448 C.ar           1 <1>                0.0000
     15 H15         31.6412  38.8067  33.8219 H              1 <1>                0.0000
     16 H16         32.8912  38.7615  35.0882 H              1 <1>                0.0000
     17 H17         32.4032  37.2604  34.2655 H              1 <1>                0.0000
     18 H18         31.6814  35.6443  38.8553 H              1 <1>                0.0000
     19 H19         29.9780  35.0183  40.5067 H              1 <1>                0.0000
     20 H20         27.0275  34.8035  40.3883 H              1 <1>                0.0000
     21 H21         27.8982  35.7403  41.6226 H              1 <1>                0.0000
     22 H22         25.4712  36.4023  41.3272 H              1 <1>                0.0000
     23 H23         26.6273  37.7390  41.0973 H              1 <1>                0.0000
     24 H24         25.4408  36.0513  38.8392 H              1 <1>                0.0000
     25 H25         24.8817  37.6829  39.2951 H              1 <1>                0.0000
     26 H26         28.8102  38.1121  36.8445 H              1 <1>                0.0000
     27 H27         26.6400  38.3475  37.8805 H              1 <1>                0.0000
@<TRIPOS>BOND
    1    1    2 1     
    2    1   15 1     
    3    1   16 1     
    4    1   17 1     
    5    2    3 1     
    6    3    4 2     
    7    3    5 1     
    8    5    6 ar    
    9    5   14 ar    
   10    6    7 ar    
   11    6   18 1     
   12    7    8 ar    
   13    7   19 1     
   14    8    9 1     
   15    8   13 ar    
   16    9   10 1     
   17    9   20 1     
   18    9   21 1     
   19   10   11 1     
   20   10   22 1     
   21   10   23 1     
   22   11   12 1     
   23   11   24 1     
   24   11   25 1     
   25   12   13 1     
   26   12   27 1     
   27   13   14 ar    
   28   14   26 1     
@<TRIPOS>SUBSTRUCTURE
      1 ****           1
@<TRIPOS>SET
DONOR_HYDROGENS      STATIC     ATOMS    <user>   **** ""
1 27
ATOM$RED        STATIC     ATOMS    COLORGROUP SYSTEM
1 27
@<TRIPOS>COMMENT
> <Gold.Version>
2022.2.0

> <Gold.Id.Protein>
1qkm|1qkm_protein|mol2

> <Gold.Protein.RotatedTorsions>
[  496  491  490  487 ] final   96.89 input  -89.99 | X-H torsion

> <Gold.Protein.ActiveResidues>
 MET295  LEU298  THR299  LEU301  ALA302  GLU305  TRP335  MET336  LEU339  MET340 
 GLY342  LEU343  ARG346  PHE356  ILE373  ILE376  PHE377  LEU380  LYS471  GLY472 
 MET473  HIS475  LEU476  LEU477  ASN478  MET479  VAL484  VAL487 

> <Gold.Protein.RotatedAtoms>
   36.8835   32.9827   41.9386 H   0  0  0  0  0  0  0  0  0  0  0  0  # atno 496  bound_to 491 

> <Gold.Score>
     Score     S(PLP)   S(hbond)     S(cho)   S(metal)  DE(clash)   DE(tors)     intcor
     44.36     -44.49       0.00       0.00       0.00       0.00       0.07       0.00

> <Gold.PLP.Fitness>
44.3583

> <Gold.PLP.PLP>
-44.4918

> <Gold.PLP.part.hbond>
0.0000

> <Gold.PLP.part.metal>
0.0000

> <Gold.PLP.part.buried>
-3.2642

> <Gold.PLP.part.nonpolar>
-41.3388

> <Gold.PLP.part.repulsive>
0.0277

> <Gold.PLP.ligand.clash>
0.0000

> <Gold.PLP.ligand.torsion>
0.0668

> <Gold.PLP.Chemscore.Hbond>
0.0000

> <Gold.PLP.Chemscore.CHOScore>
0.0000

> <Gold.PLP.Chemscore.Metal>
0.0000

> <Gold.PLP.Chemscore.Internal.Correction>
0.0000

