#       Name:                EN300-374211_i001
#       Creating user name   aseyller
#       Creation time:       Fri Apr 21 12:16:36 2023


#       File generated by GOLD software.
#

@<TRIPOS>MOLECULE
EN300-374211_i001|amine_3|mol2|1|dock2
    27    28     1
SMALL
USER_CHARGES


@<TRIPOS>ATOM
      1 C1          32.9667  37.2262  35.3434 C.3            1 <1>                0.0000
      2 O2          32.1852  37.4191  36.5519 O.3            1 <1>                0.0000
      3 C3          30.9669  37.9760  36.4101 C.2            1 <1>                0.0000
      4 O4          30.7592  38.7603  35.5061 O.2            1 <1>                0.0000
      5 C5          29.8834  37.6328  37.3540 C.ar           1 <1>                0.0000
      6 C6          28.5520  37.8898  37.0191 C.ar           1 <1>                0.0000
      7 C7          27.5449  37.5698  37.9035 C.ar           1 <1>                0.0000
      8 C8          27.8406  36.9912  39.1286 C.ar           1 <1>                0.0000
      9 C9          26.7091  36.6628  40.0674 C.3            1 <1>                0.0000
     10 C10         27.1476  35.6126  41.0875 C.3            1 <1>                0.0000
     11 C11         28.4555  36.0745  41.7432 C.3            1 <1>                0.0000
     12 N12         29.4833  36.1417  40.6955 N.pl3          1 <1>                0.0000
     13 C13         29.1605  36.7297  39.4669 C.ar           1 <1>                0.0000
     14 C14         30.1830  37.0449  38.5823 C.ar           1 <1>                0.0000
     15 H15         33.9236  36.7707  35.5983 H              1 <1>                0.0000
     16 H16         32.4240  36.5731  34.6602 H              1 <1>                0.0000
     17 H17         33.1393  38.1901  34.8646 H              1 <1>                0.0000
     18 H18         28.3120  38.3398  36.0671 H              1 <1>                0.0000
     19 H19         26.5169  37.7716  37.6405 H              1 <1>                0.0000
     20 H20         26.4026  37.5679  40.5919 H              1 <1>                0.0000
     21 H21         25.8661  36.2773  39.4939 H              1 <1>                0.0000
     22 H22         26.3769  35.4999  41.8499 H              1 <1>                0.0000
     23 H23         27.3082  34.6592  40.5841 H              1 <1>                0.0000
     24 H24         28.3175  37.0597  42.1885 H              1 <1>                0.0000
     25 H25         28.7563  35.3607  42.5101 H              1 <1>                0.0000
     26 H26         31.2097  36.8390  38.8470 H              1 <1>                0.0000
     27 H27         30.3711  35.7839  40.8525 H              1 <1>                0.0000
@<TRIPOS>BOND
    1    1    2 1     
    2    1   15 1     
    3    1   16 1     
    4    1   17 1     
    5    2    3 1     
    6    3    4 2     
    7    3    5 1     
    8    5    6 ar    
    9    5   14 ar    
   10    6    7 ar    
   11    6   18 1     
   12    7    8 ar    
   13    7   19 1     
   14    8    9 1     
   15    8   13 ar    
   16    9   10 1     
   17    9   20 1     
   18    9   21 1     
   19   10   11 1     
   20   10   22 1     
   21   10   23 1     
   22   11   12 1     
   23   11   24 1     
   24   11   25 1     
   25   12   13 1     
   26   12   27 1     
   27   13   14 ar    
   28   14   26 1     
@<TRIPOS>SUBSTRUCTURE
      1 ****           1
@<TRIPOS>SET
DONOR_HYDROGENS      STATIC     ATOMS    <user>   **** ""
1 27
ATOM$RED        STATIC     ATOMS    COLORGROUP SYSTEM
1 27
@<TRIPOS>COMMENT
> <Gold.Version>
2022.2.0

> <Gold.Id.Protein>
1qkm|1qkm_protein|mol2

> <Gold.Protein.RotatedTorsions>
[  496  491  490  487 ] final  -54.71 input  -89.99 | X-H torsion

> <Gold.Protein.ActiveResidues>
 MET295  LEU298  THR299  LEU301  ALA302  GLU305  TRP335  MET336  LEU339  MET340 
 GLY342  LEU343  ARG346  PHE356  ILE373  ILE376  PHE377  LEU380  LYS471  GLY472 
 MET473  HIS475  LEU476  LEU477  ASN478  MET479  VAL484  VAL487 

> <Gold.Protein.RotatedAtoms>
   36.4575   34.7206   41.5614 H   0  0  0  0  0  0  0  0  0  0  0  0  # atno 496  bound_to 491 

> <Gold.Score>
     Score     S(PLP)   S(hbond)     S(cho)   S(metal)  DE(clash)   DE(tors)     intcor
     46.47     -44.50       1.00       0.00       0.00       0.00       0.52       0.00

> <Gold.PLP.Fitness>
46.4653

> <Gold.PLP.PLP>
-44.4975

> <Gold.PLP.part.hbond>
-1.0000

> <Gold.PLP.part.metal>
0.0000

> <Gold.PLP.part.buried>
-2.6257

> <Gold.PLP.part.nonpolar>
-40.9939

> <Gold.PLP.part.repulsive>
0.0535

> <Gold.PLP.ligand.clash>
0.0000

> <Gold.PLP.ligand.torsion>
0.5161

> <Gold.PLP.Chemscore.Hbond>
1.0000

> <Gold.PLP.Chemscore.CHOScore>
0.0000

> <Gold.PLP.Chemscore.Metal>
0.0000

> <Gold.Chemscore.Hbonds>
donor molecule, donor type, donor heavy atom, donor atom, acceptor molecule, acceptor atom, score
      L1  H    12    27       P1   470  1.00

> <Gold.PLP.Chemscore.Internal.Correction>
0.0000

