#       Name:                EN300-374211_i001
#       Creating user name   aseyller
#       Creation time:       Fri Apr 21 12:16:38 2023


#       File generated by GOLD software.
#

@<TRIPOS>MOLECULE
EN300-374211_i001|amine_3|mol2|1|dock10
    27    28     1
SMALL
USER_CHARGES


@<TRIPOS>ATOM
      1 C1          32.9417  37.1005  34.9290 C.3            1 <1>                0.0000
      2 O2          32.2297  36.8124  36.1612 O.3            1 <1>                0.0000
      3 C3          30.9606  37.2547  36.2521 C.2            1 <1>                0.0000
      4 O4          30.4895  37.9353  35.3630 O.2            1 <1>                0.0000
      5 C5          30.1416  36.9121  37.4330 C.ar           1 <1>                0.0000
      6 C6          30.7085  36.2169  38.5036 C.ar           1 <1>                0.0000
      7 C7          29.9402  35.8978  39.6021 C.ar           1 <1>                0.0000
      8 C8          28.6033  36.2623  39.6568 C.ar           1 <1>                0.0000
      9 C9          27.7989  35.8883  40.8744 C.3            1 <1>                0.0000
     10 C10         26.5588  36.7742  40.9896 C.3            1 <1>                0.0000
     11 C11         25.8077  36.7517  39.6520 C.3            1 <1>                0.0000
     12 N12         26.6881  37.3393  38.6332 N.pl3          1 <1>                0.0000
     13 C13         28.0340  36.9561  38.5986 C.ar           1 <1>                0.0000
     14 C14         28.7994  37.2858  37.4883 C.ar           1 <1>                0.0000
     15 H15         33.9498  36.6900  34.9872 H              1 <1>                0.0000
     16 H16         32.4132  36.6483  34.0898 H              1 <1>                0.0000
     17 H17         32.9967  38.1796  34.7849 H              1 <1>                0.0000
     18 H18         31.7489  35.9291  38.4702 H              1 <1>                0.0000
     19 H19         30.3827  35.3590  40.4270 H              1 <1>                0.0000
     20 H20         27.4902  34.8458  40.7953 H              1 <1>                0.0000
     21 H21         28.4147  36.0138  41.7650 H              1 <1>                0.0000
     22 H22         25.9104  36.3939  41.7790 H              1 <1>                0.0000
     23 H23         26.8601  37.7956  41.2223 H              1 <1>                0.0000
     24 H24         25.5652  35.7239  39.3819 H              1 <1>                0.0000
     25 H25         24.8928  37.3388  39.7324 H              1 <1>                0.0000
     26 H26         28.3547  37.8272  36.6664 H              1 <1>                0.0000
     27 H27         26.3424  37.9828  37.9949 H              1 <1>                0.0000
@<TRIPOS>BOND
    1    1    2 1     
    2    1   15 1     
    3    1   16 1     
    4    1   17 1     
    5    2    3 1     
    6    3    4 2     
    7    3    5 1     
    8    5    6 ar    
    9    5   14 ar    
   10    6    7 ar    
   11    6   18 1     
   12    7    8 ar    
   13    7   19 1     
   14    8    9 1     
   15    8   13 ar    
   16    9   10 1     
   17    9   20 1     
   18    9   21 1     
   19   10   11 1     
   20   10   22 1     
   21   10   23 1     
   22   11   12 1     
   23   11   24 1     
   24   11   25 1     
   25   12   13 1     
   26   12   27 1     
   27   13   14 ar    
   28   14   26 1     
@<TRIPOS>SUBSTRUCTURE
      1 ****           1
@<TRIPOS>SET
DONOR_HYDROGENS      STATIC     ATOMS    <user>   **** ""
1 27
ATOM$RED        STATIC     ATOMS    COLORGROUP SYSTEM
1 27
@<TRIPOS>COMMENT
> <Gold.Version>
2022.2.0

> <Gold.Id.Protein>
1qkm|1qkm_protein|mol2

> <Gold.Protein.RotatedTorsions>
[  496  491  490  487 ] final -165.20 input  -89.99 | X-H torsion

> <Gold.Protein.ActiveResidues>
 MET295  LEU298  THR299  LEU301  ALA302  GLU305  TRP335  MET336  LEU339  MET340 
 GLY342  LEU343  ARG346  PHE356  ILE373  ILE376  PHE377  LEU380  LYS471  GLY472 
 MET473  HIS475  LEU476  LEU477  ASN478  MET479  VAL484  VAL487 

> <Gold.Protein.RotatedAtoms>
   37.2923   33.6825   40.7694 H   0  0  0  0  0  0  0  0  0  0  0  0  # atno 496  bound_to 491 

> <Gold.Score>
     Score     S(PLP)   S(hbond)     S(cho)   S(metal)  DE(clash)   DE(tors)     intcor
     44.09     -44.15       0.00       0.00       0.00       0.00       0.03       0.00

> <Gold.PLP.Fitness>
44.0886

> <Gold.PLP.PLP>
-44.1501

> <Gold.PLP.part.hbond>
0.0000

> <Gold.PLP.part.metal>
0.0000

> <Gold.PLP.part.buried>
-3.7902

> <Gold.PLP.part.nonpolar>
-41.1041

> <Gold.PLP.part.repulsive>
0.0701

> <Gold.PLP.ligand.clash>
0.0000

> <Gold.PLP.ligand.torsion>
0.0308

> <Gold.PLP.Chemscore.Hbond>
0.0000

> <Gold.PLP.Chemscore.CHOScore>
0.0000

> <Gold.PLP.Chemscore.Metal>
0.0000

> <Gold.PLP.Chemscore.Internal.Correction>
0.0000

