#       Name:                EN300-374211_i001
#       Creating user name   aseyller
#       Creation time:       Fri Apr 21 12:16:40 2023


#       File generated by GOLD software.
#

@<TRIPOS>MOLECULE
EN300-374211_i001|amine_3|mol2|1|dock16
    27    28     1
SMALL
USER_CHARGES


@<TRIPOS>ATOM
      1 C1          25.9447  36.9337  40.0801 C.3            1 <1>                0.0000
      2 O2          27.3438  36.7470  39.7396 O.3            1 <1>                0.0000
      3 C3          27.7629  37.2659  38.5692 C.2            1 <1>                0.0000
      4 O4          27.0100  37.9475  37.9028 O.2            1 <1>                0.0000
      5 C5          29.1382  37.0060  38.0962 C.ar           1 <1>                0.0000
      6 C6          30.0166  36.2467  38.8724 C.ar           1 <1>                0.0000
      7 C7          31.2991  36.0085  38.4280 C.ar           1 <1>                0.0000
      8 C8          31.7289  36.5166  37.2113 C.ar           1 <1>                0.0000
      9 C9          33.1408  36.2367  36.7667 C.3            1 <1>                0.0000
     10 C10         33.2712  36.4162  35.2545 C.3            1 <1>                0.0000
     11 C11         32.7014  37.7871  34.8672 C.3            1 <1>                0.0000
     12 N12         31.2702  37.7879  35.1992 N.pl3          1 <1>                0.0000
     13 C13         30.8609  37.2690  36.4331 C.ar           1 <1>                0.0000
     14 C14         29.5656  37.5124  36.8693 C.ar           1 <1>                0.0000
     15 H15         25.7404  36.4688  41.0447 H              1 <1>                0.0000
     16 H16         25.7236  37.9995  40.1364 H              1 <1>                0.0000
     17 H17         25.3199  36.4728  39.3151 H              1 <1>                0.0000
     18 H18         29.6908  35.8465  39.8212 H              1 <1>                0.0000
     19 H19         31.9751  35.4218  39.0324 H              1 <1>                0.0000
     20 H20         33.8197  36.9248  37.2705 H              1 <1>                0.0000
     21 H21         33.4051  35.2130  37.0316 H              1 <1>                0.0000
     22 H22         34.3221  36.3640  34.9699 H              1 <1>                0.0000
     23 H23         32.7133  35.6312  34.7441 H              1 <1>                0.0000
     24 H24         33.2109  38.5706  35.4280 H              1 <1>                0.0000
     25 H25         32.8324  37.9526  33.7978 H              1 <1>                0.0000
     26 H26         28.8911  38.0969  36.2612 H              1 <1>                0.0000
     27 H27         30.6193  38.1422  34.5732 H              1 <1>                0.0000
@<TRIPOS>BOND
    1    1    2 1     
    2    1   15 1     
    3    1   16 1     
    4    1   17 1     
    5    2    3 1     
    6    3    4 2     
    7    3    5 1     
    8    5    6 ar    
    9    5   14 ar    
   10    6    7 ar    
   11    6   18 1     
   12    7    8 ar    
   13    7   19 1     
   14    8    9 1     
   15    8   13 ar    
   16    9   10 1     
   17    9   20 1     
   18    9   21 1     
   19   10   11 1     
   20   10   22 1     
   21   10   23 1     
   22   11   12 1     
   23   11   24 1     
   24   11   25 1     
   25   12   13 1     
   26   12   27 1     
   27   13   14 ar    
   28   14   26 1     
@<TRIPOS>SUBSTRUCTURE
      1 ****           1
@<TRIPOS>SET
DONOR_HYDROGENS      STATIC     ATOMS    <user>   **** ""
1 27
ATOM$RED        STATIC     ATOMS    COLORGROUP SYSTEM
1 27
@<TRIPOS>COMMENT
> <Gold.Version>
2022.2.0

> <Gold.Id.Protein>
1qkm|1qkm_protein|mol2

> <Gold.Protein.RotatedTorsions>
[  496  491  490  487 ] final  -80.10 input  -89.99 | X-H torsion

> <Gold.Protein.ActiveResidues>
 MET295  LEU298  THR299  LEU301  ALA302  GLU305  TRP335  MET336  LEU339  MET340 
 GLY342  LEU343  ARG346  PHE356  ILE373  ILE376  PHE377  LEU380  LYS471  GLY472 
 MET473  HIS475  LEU476  LEU477  ASN478  MET479  VAL484  VAL487 

> <Gold.Protein.RotatedAtoms>
   36.6669   34.7058   41.2039 H   0  0  0  0  0  0  0  0  0  0  0  0  # atno 496  bound_to 491 

> <Gold.Score>
     Score     S(PLP)   S(hbond)     S(cho)   S(metal)  DE(clash)   DE(tors)     intcor
     43.12     -43.19       0.00       0.00       0.00       0.00       0.03       0.00

> <Gold.PLP.Fitness>
43.1249

> <Gold.PLP.PLP>
-43.1939

> <Gold.PLP.part.hbond>
0.0000

> <Gold.PLP.part.metal>
0.0000

> <Gold.PLP.part.buried>
-3.9479

> <Gold.PLP.part.nonpolar>
-39.1101

> <Gold.PLP.part.repulsive>
0.0120

> <Gold.PLP.ligand.clash>
0.0000

> <Gold.PLP.ligand.torsion>
0.0345

> <Gold.PLP.Chemscore.Hbond>
0.0000

> <Gold.PLP.Chemscore.CHOScore>
0.0000

> <Gold.PLP.Chemscore.Metal>
0.0000

> <Gold.PLP.Chemscore.Internal.Correction>
0.0000

