#       Name:                EN300-374211_i001
#       Creating user name   aseyller
#       Creation time:       Fri Apr 21 12:16:39 2023


#       File generated by GOLD software.
#

@<TRIPOS>MOLECULE
EN300-374211_i001|amine_3|mol2|1|dock12
    27    28     1
SMALL
USER_CHARGES


@<TRIPOS>ATOM
      1 C1          28.5055  36.0723  41.8005 C.3            1 <1>                0.0000
      2 O2          29.2973  36.3607  40.6181 O.3            1 <1>                0.0000
      3 C3          28.6417  36.8483  39.5470 C.2            1 <1>                0.0000
      4 O4          27.4368  36.9964  39.5881 O.2            1 <1>                0.0000
      5 C5          29.3883  37.2029  38.3224 C.ar           1 <1>                0.0000
      6 C6          28.8697  38.1451  37.4313 C.ar           1 <1>                0.0000
      7 C7          29.5687  38.4712  36.2894 C.ar           1 <1>                0.0000
      8 C8          30.7885  37.8715  36.0145 C.ar           1 <1>                0.0000
      9 C9          31.5161  38.2534  34.7519 C.3            1 <1>                0.0000
     10 C10         33.0007  37.9079  34.8643 C.3            1 <1>                0.0000
     11 C11         33.1370  36.4447  35.3051 C.3            1 <1>                0.0000
     12 N12         32.5433  36.3221  36.6433 N.pl3          1 <1>                0.0000
     13 C13         31.3116  36.9370  36.8967 C.ar           1 <1>                0.0000
     14 C14         30.6177  36.6032  38.0519 C.ar           1 <1>                0.0000
     15 H15         29.1542  35.6866  42.5871 H              1 <1>                0.0000
     16 H16         28.0207  36.9858  42.1449 H              1 <1>                0.0000
     17 H17         27.7472  35.3279  41.5575 H              1 <1>                0.0000
     18 H18         27.9207  38.6177  37.6371 H              1 <1>                0.0000
     19 H19         29.1630  39.1995  35.6027 H              1 <1>                0.0000
     20 H20         31.0837  37.7126  33.9099 H              1 <1>                0.0000
     21 H21         31.4077  39.3249  34.5843 H              1 <1>                0.0000
     22 H22         33.4816  38.0439  33.8957 H              1 <1>                0.0000
     23 H23         33.4718  38.5572  35.6024 H              1 <1>                0.0000
     24 H24         32.6077  35.7976  34.6057 H              1 <1>                0.0000
     25 H25         34.1904  36.1668  35.3416 H              1 <1>                0.0000
     26 H26         31.0276  35.8768  38.7380 H              1 <1>                0.0000
     27 H27         32.9978  35.8233  37.3402 H              1 <1>                0.0000
@<TRIPOS>BOND
    1    1    2 1     
    2    1   15 1     
    3    1   16 1     
    4    1   17 1     
    5    2    3 1     
    6    3    4 2     
    7    3    5 1     
    8    5    6 ar    
    9    5   14 ar    
   10    6    7 ar    
   11    6   18 1     
   12    7    8 ar    
   13    7   19 1     
   14    8    9 1     
   15    8   13 ar    
   16    9   10 1     
   17    9   20 1     
   18    9   21 1     
   19   10   11 1     
   20   10   22 1     
   21   10   23 1     
   22   11   12 1     
   23   11   24 1     
   24   11   25 1     
   25   12   13 1     
   26   12   27 1     
   27   13   14 ar    
   28   14   26 1     
@<TRIPOS>SUBSTRUCTURE
      1 ****           1
@<TRIPOS>SET
DONOR_HYDROGENS      STATIC     ATOMS    <user>   **** ""
1 27
ATOM$RED        STATIC     ATOMS    COLORGROUP SYSTEM
1 27
@<TRIPOS>COMMENT
> <Gold.Version>
2022.2.0

> <Gold.Id.Protein>
1qkm|1qkm_protein|mol2

> <Gold.Protein.RotatedTorsions>
[  496  491  490  487 ] final    4.61 input  -89.99 | X-H torsion

> <Gold.Protein.ActiveResidues>
 MET295  LEU298  THR299  LEU301  ALA302  GLU305  TRP335  MET336  LEU339  MET340 
 GLY342  LEU343  ARG346  PHE356  ILE373  ILE376  PHE377  LEU380  LYS471  GLY472 
 MET473  HIS475  LEU476  LEU477  ASN478  MET479  VAL484  VAL487 

> <Gold.Protein.RotatedAtoms>
   36.2640   34.1468   42.2718 H   0  0  0  0  0  0  0  0  0  0  0  0  # atno 496  bound_to 491 

> <Gold.Score>
     Score     S(PLP)   S(hbond)     S(cho)   S(metal)  DE(clash)   DE(tors)     intcor
     43.03     -43.55       0.00       0.00       0.00       0.00       0.26       0.00

> <Gold.PLP.Fitness>
43.0298

> <Gold.PLP.PLP>
-43.5508

> <Gold.PLP.part.hbond>
0.0000

> <Gold.PLP.part.metal>
0.0000

> <Gold.PLP.part.buried>
-3.0368

> <Gold.PLP.part.nonpolar>
-40.4978

> <Gold.PLP.part.repulsive>
0.1019

> <Gold.PLP.ligand.clash>
0.0000

> <Gold.PLP.ligand.torsion>
0.2605

> <Gold.PLP.Chemscore.Hbond>
0.0000

> <Gold.PLP.Chemscore.CHOScore>
0.0000

> <Gold.PLP.Chemscore.Metal>
0.0000

> <Gold.PLP.Chemscore.Internal.Correction>
0.0000

