#       Name:                EN300-374211_i001
#       Creating user name   aseyller
#       Creation time:       Fri Apr 21 12:16:38 2023


#       File generated by GOLD software.
#

@<TRIPOS>MOLECULE
EN300-374211_i001|amine_3|mol2|1|dock11
    27    28     1
SMALL
USER_CHARGES


@<TRIPOS>ATOM
      1 C1          26.2949  36.8301  40.8089 C.3            1 <1>                0.0000
      2 O2          27.2931  36.9779  39.7648 O.3            1 <1>                0.0000
      3 C3          28.5253  36.4997  40.0245 C.2            1 <1>                0.0000
      4 O4          28.7662  35.9957  41.1032 O.2            1 <1>                0.0000
      5 C5          29.5837  36.5882  38.9976 C.ar           1 <1>                0.0000
      6 C6          30.7291  35.7954  39.0987 C.ar           1 <1>                0.0000
      7 C7          31.7146  35.8827  38.1395 C.ar           1 <1>                0.0000
      8 C8          31.5801  36.7534  37.0685 C.ar           1 <1>                0.0000
      9 C9          32.6842  36.8210  36.0458 C.3            1 <1>                0.0000
     10 C10         32.1644  37.4107  34.7351 C.3            1 <1>                0.0000
     11 C11         31.4432  38.7307  35.0372 C.3            1 <1>                0.0000
     12 N12         30.2830  38.4242  35.8847 N.pl3          1 <1>                0.0000
     13 C13         30.4435  37.5417  36.9594 C.ar           1 <1>                0.0000
     14 C14         29.4429  37.4596  37.9182 C.ar           1 <1>                0.0000
     15 H15         25.3500  37.2559  40.4712 H              1 <1>                0.0000
     16 H16         26.1573  35.7723  41.0328 H              1 <1>                0.0000
     17 H17         26.6280  37.3512  41.7064 H              1 <1>                0.0000
     18 H18         30.8426  35.1141  39.9290 H              1 <1>                0.0000
     19 H19         32.5991  35.2685  38.2227 H              1 <1>                0.0000
     20 H20         33.4903  37.4477  36.4276 H              1 <1>                0.0000
     21 H21         33.0663  35.8169  35.8620 H              1 <1>                0.0000
     22 H22         33.0009  37.5974  34.0616 H              1 <1>                0.0000
     23 H23         31.4684  36.7120  34.2710 H              1 <1>                0.0000
     24 H24         32.1164  39.4073  35.5636 H              1 <1>                0.0000
     25 H25         31.1096  39.1905  34.1069 H              1 <1>                0.0000
     26 H26         28.5583  38.0730  37.8304 H              1 <1>                0.0000
     27 H27         29.4194  38.8266  35.7023 H              1 <1>                0.0000
@<TRIPOS>BOND
    1    1    2 1     
    2    1   15 1     
    3    1   16 1     
    4    1   17 1     
    5    2    3 1     
    6    3    4 2     
    7    3    5 1     
    8    5    6 ar    
    9    5   14 ar    
   10    6    7 ar    
   11    6   18 1     
   12    7    8 ar    
   13    7   19 1     
   14    8    9 1     
   15    8   13 ar    
   16    9   10 1     
   17    9   20 1     
   18    9   21 1     
   19   10   11 1     
   20   10   22 1     
   21   10   23 1     
   22   11   12 1     
   23   11   24 1     
   24   11   25 1     
   25   12   13 1     
   26   12   27 1     
   27   13   14 ar    
   28   14   26 1     
@<TRIPOS>SUBSTRUCTURE
      1 ****           1
@<TRIPOS>SET
DONOR_HYDROGENS      STATIC     ATOMS    <user>   **** ""
1 27
ATOM$RED        STATIC     ATOMS    COLORGROUP SYSTEM
1 27
@<TRIPOS>COMMENT
> <Gold.Version>
2022.2.0

> <Gold.Id.Protein>
1qkm|1qkm_protein|mol2

> <Gold.Protein.RotatedTorsions>
[  496  491  490  487 ] final   49.78 input  -89.99 | X-H torsion

> <Gold.Protein.ActiveResidues>
 MET295  LEU298  THR299  LEU301  ALA302  GLU305  TRP335  MET336  LEU339  MET340 
 GLY342  LEU343  ARG346  PHE356  ILE373  ILE376  PHE377  LEU380  LYS471  GLY472 
 MET473  HIS475  LEU476  LEU477  ASN478  MET479  VAL484  VAL487 

> <Gold.Protein.RotatedAtoms>
   36.4712   33.4575   42.3544 H   0  0  0  0  0  0  0  0  0  0  0  0  # atno 496  bound_to 491 

> <Gold.Score>
     Score     S(PLP)   S(hbond)     S(cho)   S(metal)  DE(clash)   DE(tors)     intcor
     43.28     -43.55       0.00       0.00       0.00       0.00       0.14       0.00

> <Gold.PLP.Fitness>
43.2810

> <Gold.PLP.PLP>
-43.5516

> <Gold.PLP.part.hbond>
0.0000

> <Gold.PLP.part.metal>
0.0000

> <Gold.PLP.part.buried>
-3.3565

> <Gold.PLP.part.nonpolar>
-40.0064

> <Gold.PLP.part.repulsive>
0.1458

> <Gold.PLP.ligand.clash>
0.0000

> <Gold.PLP.ligand.torsion>
0.1353

> <Gold.PLP.Chemscore.Hbond>
0.0000

> <Gold.PLP.Chemscore.CHOScore>
0.0000

> <Gold.PLP.Chemscore.Metal>
0.0000

> <Gold.PLP.Chemscore.Internal.Correction>
0.0000

