#       Name:                EN300-374211_i001
#       Creating user name   aseyller
#       Creation time:       Fri Apr 21 12:16:38 2023


#       File generated by GOLD software.
#

@<TRIPOS>MOLECULE
EN300-374211_i001|amine_3|mol2|1|dock9
    27    28     1
SMALL
USER_CHARGES


@<TRIPOS>ATOM
      1 C1          25.4453  36.9842  41.5008 C.3            1 <1>                0.0000
      2 O2          26.6575  36.6383  40.7801 O.3            1 <1>                0.0000
      3 C3          26.7665  37.0884  39.5152 C.2            1 <1>                0.0000
      4 O4          25.8127  37.6078  38.9710 O.2            1 <1>                0.0000
      5 C5          28.0461  36.9504  38.7897 C.ar           1 <1>                0.0000
      6 C6          28.2320  37.5938  37.5641 C.ar           1 <1>                0.0000
      7 C7          29.4265  37.4606  36.8901 C.ar           1 <1>                0.0000
      8 C8          30.4520  36.6913  37.4190 C.ar           1 <1>                0.0000
      9 C9          31.7391  36.5683  36.6460 C.3            1 <1>                0.0000
     10 C10         32.8792  36.1397  37.5693 C.3            1 <1>                0.0000
     11 C11         32.4413  34.8953  38.3526 C.3            1 <1>                0.0000
     12 N12         31.2982  35.2741  39.1941 N.pl3          1 <1>                0.0000
     13 C13         30.2759  36.0518  38.6377 C.ar           1 <1>                0.0000
     14 C14         29.0779  36.1817  39.3271 C.ar           1 <1>                0.0000
     15 H15         25.4857  36.5606  42.5043 H              1 <1>                0.0000
     16 H16         25.3592  38.0687  41.5675 H              1 <1>                0.0000
     17 H17         24.5809  36.5829  40.9716 H              1 <1>                0.0000
     18 H18         27.4393  38.1954  37.1444 H              1 <1>                0.0000
     19 H19         29.5651  37.9591  35.9420 H              1 <1>                0.0000
     20 H20         31.6159  35.8254  35.8578 H              1 <1>                0.0000
     21 H21         31.9825  37.5312  36.1969 H              1 <1>                0.0000
     22 H22         33.7621  35.9051  36.9747 H              1 <1>                0.0000
     23 H23         33.1089  36.9470  38.2647 H              1 <1>                0.0000
     24 H24         32.1446  34.1082  37.6594 H              1 <1>                0.0000
     25 H25         33.2617  34.5462  38.9796 H              1 <1>                0.0000
     26 H26         28.9436  35.6844  40.2763 H              1 <1>                0.0000
     27 H27         31.2528  34.9901  40.1205 H              1 <1>                0.0000
@<TRIPOS>BOND
    1    1    2 1     
    2    1   15 1     
    3    1   16 1     
    4    1   17 1     
    5    2    3 1     
    6    3    4 2     
    7    3    5 1     
    8    5    6 ar    
    9    5   14 ar    
   10    6    7 ar    
   11    6   18 1     
   12    7    8 ar    
   13    7   19 1     
   14    8    9 1     
   15    8   13 ar    
   16    9   10 1     
   17    9   20 1     
   18    9   21 1     
   19   10   11 1     
   20   10   22 1     
   21   10   23 1     
   22   11   12 1     
   23   11   24 1     
   24   11   25 1     
   25   12   13 1     
   26   12   27 1     
   27   13   14 ar    
   28   14   26 1     
@<TRIPOS>SUBSTRUCTURE
      1 ****           1
@<TRIPOS>SET
DONOR_HYDROGENS      STATIC     ATOMS    <user>   **** ""
1 27
ATOM$RED        STATIC     ATOMS    COLORGROUP SYSTEM
1 27
@<TRIPOS>COMMENT
> <Gold.Version>
2022.2.0

> <Gold.Id.Protein>
1qkm|1qkm_protein|mol2

> <Gold.Protein.RotatedTorsions>
[  496  491  490  487 ] final  -81.75 input  -89.99 | X-H torsion

> <Gold.Protein.ActiveResidues>
 MET295  LEU298  THR299  LEU301  ALA302  GLU305  TRP335  MET336  LEU339  MET340 
 GLY342  LEU343  ARG346  PHE356  ILE373  ILE376  PHE377  LEU380  LYS471  GLY472 
 MET473  HIS475  LEU476  LEU477  ASN478  MET479  VAL484  VAL487 

> <Gold.Protein.RotatedAtoms>
   36.6817   34.6988   41.1823 H   0  0  0  0  0  0  0  0  0  0  0  0  # atno 496  bound_to 491 

> <Gold.Score>
     Score     S(PLP)   S(hbond)     S(cho)   S(metal)  DE(clash)   DE(tors)     intcor
     44.17     -41.41       1.00       0.00       0.00       0.00       0.12       0.00

> <Gold.PLP.Fitness>
44.1670

> <Gold.PLP.PLP>
-41.4095

> <Gold.PLP.part.hbond>
-1.0000

> <Gold.PLP.part.metal>
0.0000

> <Gold.PLP.part.buried>
-2.2233

> <Gold.PLP.part.nonpolar>
-38.3155

> <Gold.PLP.part.repulsive>
0.2371

> <Gold.PLP.ligand.clash>
0.0000

> <Gold.PLP.ligand.torsion>
0.1213

> <Gold.PLP.Chemscore.Hbond>
1.0000

> <Gold.PLP.Chemscore.CHOScore>
0.0000

> <Gold.PLP.Chemscore.Metal>
0.0000

> <Gold.Chemscore.Hbonds>
donor molecule, donor type, donor heavy atom, donor atom, acceptor molecule, acceptor atom, score
      L1  H    12    27       P1   470  1.00

> <Gold.PLP.Chemscore.Internal.Correction>
0.0000

