#       Name:                EN300-374211_i001
#       Creating user name   aseyller
#       Creation time:       Fri Apr 21 12:16:36 2023


#       File generated by GOLD software.
#

@<TRIPOS>MOLECULE
EN300-374211_i001
    27    28     1
SMALL
USER_CHARGES


@<TRIPOS>ATOM
      1 C1           5.1961   0.0446  -0.0204 C.3            1 <1>                0.0000
      2 O2           3.8220   0.5133   0.0017 O.3            1 <1>                0.0000
      3 C3           2.8555  -0.4249  -0.0124 C.2            1 <1>                0.0000
      4 O4           3.1525  -1.6024  -0.0423 O.2            1 <1>                0.0000
      5 C5           1.4343  -0.0218   0.0085 C.ar           1 <1>                0.0000
      6 C6           1.0879   1.3308   0.0429 C.ar           1 <1>                0.0000
      7 C7          -0.2390   1.7020   0.0643 C.ar           1 <1>                0.0000
      8 C8          -1.2395   0.7418   0.0509 C.ar           1 <1>                0.0000
      9 C9          -2.6769   1.1918   0.0809 C.3            1 <1>                0.0000
     10 C10         -3.5949   0.0861  -0.4393 C.3            1 <1>                0.0000
     11 C11         -3.2794  -1.2141   0.3116 C.3            1 <1>                0.0000
     12 N12         -1.8954  -1.5910  -0.0060 N.pl3          1 <1>                0.0000
     13 C13         -0.9032  -0.6038   0.0133 C.ar           1 <1>                0.0000
     14 C14          0.4303  -0.9892  -0.0118 C.ar           1 <1>                0.0000
     15 H15          5.8720   0.8997  -0.0059 H              1 <1>                0.0000
     16 H16          5.3812  -0.5796   0.8537 H              1 <1>                0.0000
     17 H17          5.3668  -0.5380  -0.9257 H              1 <1>                0.0000
     18 H18          1.8601   2.0858   0.0532 H              1 <1>                0.0000
     19 H19         -0.5019   2.7492   0.0921 H              1 <1>                0.0000
     20 H20         -2.9554   1.4382   1.1056 H              1 <1>                0.0000
     21 H21         -2.7898   2.0772  -0.5447 H              1 <1>                0.0000
     22 H22         -4.6348   0.3639  -0.2675 H              1 <1>                0.0000
     23 H23         -3.4249  -0.0578  -1.5063 H              1 <1>                0.0000
     24 H24         -3.3815  -1.0547   1.3850 H              1 <1>                0.0000
     25 H25         -3.9600  -2.0017  -0.0119 H              1 <1>                0.0000
     26 H26          0.6898  -2.0371  -0.0427 H              1 <1>                0.0000
     27 H27         -1.6728  -2.5092  -0.2259 H              1 <1>                0.0000
@<TRIPOS>BOND
    1    1    2 1     
    2    1   15 1     
    3    1   16 1     
    4    1   17 1     
    5    2    3 1     
    6    3    4 2     
    7    3    5 1     
    8    5    6 ar    
    9    5   14 ar    
   10    6    7 ar    
   11    6   18 1     
   12    7    8 ar    
   13    7   19 1     
   14    8    9 1     
   15    8   13 ar    
   16    9   10 1     
   17    9   20 1     
   18    9   21 1     
   19   10   11 1     
   20   10   22 1     
   21   10   23 1     
   22   11   12 1     
   23   11   24 1     
   24   11   25 1     
   25   12   13 1     
   26   12   27 1     
   27   13   14 ar    
   28   14   26 1     
@<TRIPOS>SUBSTRUCTURE
      1 ****           1
@<TRIPOS>SET
DONOR_HYDROGENS      STATIC     ATOMS    <user>   **** ""
1 27
ATOM$RED        STATIC     ATOMS    COLORGROUP SYSTEM
1 27
