#       Name:                EN300-374211_i001
#       Creating user name   aseyller
#       Creation time:       Fri Apr 21 12:16:39 2023


#       File generated by GOLD software.
#

@<TRIPOS>MOLECULE
EN300-374211_i001|amine_3|mol2|1|dock14
    27    28     1
SMALL
USER_CHARGES


@<TRIPOS>ATOM
      1 C1          26.4280  36.5421  40.6369 C.3            1 <1>                0.0000
      2 O2          27.4910  36.4545  39.6517 O.3            1 <1>                0.0000
      3 C3          28.6662  35.9410  40.0639 C.2            1 <1>                0.0000
      4 O4          28.7875  35.5412  41.2045 O.2            1 <1>                0.0000
      5 C5          29.8074  35.8643  39.1289 C.ar           1 <1>                0.0000
      6 C6          30.6165  34.7262  39.0995 C.ar           1 <1>                0.0000
      7 C7          31.6811  34.6599  38.2271 C.ar           1 <1>                0.0000
      8 C8          31.9586  35.7163  37.3726 C.ar           1 <1>                0.0000
      9 C9          33.1356  35.6039  36.4390 C.3            1 <1>                0.0000
     10 C10         32.9882  36.5796  35.2719 C.3            1 <1>                0.0000
     11 C11         32.7011  37.9797  35.8298 C.3            1 <1>                0.0000
     12 N12         31.4145  37.9256  36.5371 N.pl3          1 <1>                0.0000
     13 C13         31.1573  36.8488  37.3936 C.ar           1 <1>                0.0000
     14 C14         30.0801  36.9252  38.2661 C.ar           1 <1>                0.0000
     15 H15         25.5391  36.9721  40.1751 H              1 <1>                0.0000
     16 H16         26.1966  35.5450  41.0114 H              1 <1>                0.0000
     17 H17         26.7501  37.1751  41.4637 H              1 <1>                0.0000
     18 H18         30.4080  33.8983  39.7610 H              1 <1>                0.0000
     19 H19         32.3047  33.7782  38.2089 H              1 <1>                0.0000
     20 H20         34.0510  35.8320  36.9852 H              1 <1>                0.0000
     21 H21         33.1923  34.5864  36.0524 H              1 <1>                0.0000
     22 H22         33.9118  36.5993  34.6935 H              1 <1>                0.0000
     23 H23         32.1624  36.2640  34.6342 H              1 <1>                0.0000
     24 H24         33.4910  38.2705  36.5222 H              1 <1>                0.0000
     25 H25         32.6429  38.6981  35.0120 H              1 <1>                0.0000
     26 H26         29.4567  37.8070  38.2796 H              1 <1>                0.0000
     27 H27         30.7537  38.6248  36.4122 H              1 <1>                0.0000
@<TRIPOS>BOND
    1    1    2 1     
    2    1   15 1     
    3    1   16 1     
    4    1   17 1     
    5    2    3 1     
    6    3    4 2     
    7    3    5 1     
    8    5    6 ar    
    9    5   14 ar    
   10    6    7 ar    
   11    6   18 1     
   12    7    8 ar    
   13    7   19 1     
   14    8    9 1     
   15    8   13 ar    
   16    9   10 1     
   17    9   20 1     
   18    9   21 1     
   19   10   11 1     
   20   10   22 1     
   21   10   23 1     
   22   11   12 1     
   23   11   24 1     
   24   11   25 1     
   25   12   13 1     
   26   12   27 1     
   27   13   14 ar    
   28   14   26 1     
@<TRIPOS>SUBSTRUCTURE
      1 ****           1
@<TRIPOS>SET
DONOR_HYDROGENS      STATIC     ATOMS    <user>   **** ""
1 27
ATOM$RED        STATIC     ATOMS    COLORGROUP SYSTEM
1 27
@<TRIPOS>COMMENT
> <Gold.Version>
2022.2.0

> <Gold.Id.Protein>
1qkm|1qkm_protein|mol2

> <Gold.Protein.RotatedTorsions>
[  496  491  490  487 ] final   79.19 input  -89.99 | X-H torsion

> <Gold.Protein.ActiveResidues>
 MET295  LEU298  THR299  LEU301  ALA302  GLU305  TRP335  MET336  LEU339  MET340 
 GLY342  LEU343  ARG346  PHE356  ILE373  ILE376  PHE377  LEU380  LYS471  GLY472 
 MET473  HIS475  LEU476  LEU477  ASN478  MET479  VAL484  VAL487 

> <Gold.Protein.RotatedAtoms>
   36.7204   33.1070   42.1442 H   0  0  0  0  0  0  0  0  0  0  0  0  # atno 496  bound_to 491 

> <Gold.Score>
     Score     S(PLP)   S(hbond)     S(cho)   S(metal)  DE(clash)   DE(tors)     intcor
     42.98     -44.31       0.00       0.00       0.00       0.00       0.67       0.00

> <Gold.PLP.Fitness>
42.9759

> <Gold.PLP.PLP>
-44.3114

> <Gold.PLP.part.hbond>
0.0000

> <Gold.PLP.part.metal>
0.0000

> <Gold.PLP.part.buried>
-4.1500

> <Gold.PLP.part.nonpolar>
-40.7261

> <Gold.PLP.part.repulsive>
0.1659

> <Gold.PLP.ligand.clash>
0.0000

> <Gold.PLP.ligand.torsion>
0.6678

> <Gold.PLP.Chemscore.Hbond>
0.0000

> <Gold.PLP.Chemscore.CHOScore>
0.0000

> <Gold.PLP.Chemscore.Metal>
0.0000

> <Gold.PLP.Chemscore.Internal.Correction>
0.0000

