#       Name:                EN300-374211_i001
#       Creating user name   aseyller
#       Creation time:       Fri Apr 21 12:16:41 2023


#       File generated by GOLD software.
#

@<TRIPOS>MOLECULE
EN300-374211_i001|amine_3|mol2|1|dock19
    27    28     1
SMALL
USER_CHARGES


@<TRIPOS>ATOM
      1 C1          26.5799  36.4969  40.8580 C.3            1 <1>                0.0000
      2 O2          27.2707  36.9373  39.6592 O.3            1 <1>                0.0000
      3 C3          28.5873  36.6644  39.5769 C.2            1 <1>                0.0000
      4 O4          29.1429  36.0741  40.4815 O.2            1 <1>                0.0000
      5 C5          29.3554  37.0829  38.3863 C.ar           1 <1>                0.0000
      6 C6          28.9077  38.1464  37.5992 C.ar           1 <1>                0.0000
      7 C7          29.6264  38.5319  36.4885 C.ar           1 <1>                0.0000
      8 C8          30.7963  37.8725  36.1425 C.ar           1 <1>                0.0000
      9 C9          31.5476  38.3233  34.9170 C.3            1 <1>                0.0000
     10 C10         33.0019  37.8573  34.9791 C.3            1 <1>                0.0000
     11 C11         33.0276  36.3511  35.2699 C.3            1 <1>                0.0000
     12 N12         32.4298  36.1398  36.5951 N.pl3          1 <1>                0.0000
     13 C13         31.2492  36.8173  36.9214 C.ar           1 <1>                0.0000
     14 C14         30.5349  36.4224  38.0445 C.ar           1 <1>                0.0000
     15 H15         25.5289  36.7793  40.7962 H              1 <1>                0.0000
     16 H16         26.6604  35.4136  40.9466 H              1 <1>                0.0000
     17 H17         27.0317  36.9675  41.7313 H              1 <1>                0.0000
     18 H18         27.9980  38.6662  37.8610 H              1 <1>                0.0000
     19 H19         29.2756  39.3541  35.8823 H              1 <1>                0.0000
     20 H20         31.0731  37.9041  34.0297 H              1 <1>                0.0000
     21 H21         31.5207  39.4114  34.8586 H              1 <1>                0.0000
     22 H22         33.4892  38.0532  34.0240 H              1 <1>                0.0000
     23 H23         33.5230  38.3916  35.7735 H              1 <1>                0.0000
     24 H24         32.4487  35.8193  34.5148 H              1 <1>                0.0000
     25 H25         34.0568  35.9922  35.2677 H              1 <1>                0.0000
     26 H26         30.8901  35.6019  38.6503 H              1 <1>                0.0000
     27 H27         32.8468  35.5406  37.2340 H              1 <1>                0.0000
@<TRIPOS>BOND
    1    1    2 1     
    2    1   15 1     
    3    1   16 1     
    4    1   17 1     
    5    2    3 1     
    6    3    4 2     
    7    3    5 1     
    8    5    6 ar    
    9    5   14 ar    
   10    6    7 ar    
   11    6   18 1     
   12    7    8 ar    
   13    7   19 1     
   14    8    9 1     
   15    8   13 ar    
   16    9   10 1     
   17    9   20 1     
   18    9   21 1     
   19   10   11 1     
   20   10   22 1     
   21   10   23 1     
   22   11   12 1     
   23   11   24 1     
   24   11   25 1     
   25   12   13 1     
   26   12   27 1     
   27   13   14 ar    
   28   14   26 1     
@<TRIPOS>SUBSTRUCTURE
      1 ****           1
@<TRIPOS>SET
DONOR_HYDROGENS      STATIC     ATOMS    <user>   **** ""
1 27
ATOM$RED        STATIC     ATOMS    COLORGROUP SYSTEM
1 27
@<TRIPOS>COMMENT
> <Gold.Version>
2022.2.0

> <Gold.Id.Protein>
1qkm|1qkm_protein|mol2

> <Gold.Protein.RotatedTorsions>
[  496  491  490  487 ] final  -16.23 input  -89.99 | X-H torsion

> <Gold.Protein.ActiveResidues>
 MET295  LEU298  THR299  LEU301  ALA302  GLU305  TRP335  MET336  LEU339  MET340 
 GLY342  LEU343  ARG346  PHE356  ILE373  ILE376  PHE377  LEU380  LYS471  GLY472 
 MET473  HIS475  LEU476  LEU477  ASN478  MET479  VAL484  VAL487 

> <Gold.Protein.RotatedAtoms>
   36.2720   34.4267   42.0767 H   0  0  0  0  0  0  0  0  0  0  0  0  # atno 496  bound_to 491 

> <Gold.Score>
     Score     S(PLP)   S(hbond)     S(cho)   S(metal)  DE(clash)   DE(tors)     intcor
     41.61     -42.10       0.00       0.00       0.00       0.00       0.24       0.00

> <Gold.PLP.Fitness>
41.6091

> <Gold.PLP.PLP>
-42.0961

> <Gold.PLP.part.hbond>
0.0000

> <Gold.PLP.part.metal>
0.0000

> <Gold.PLP.part.buried>
-3.9719

> <Gold.PLP.part.nonpolar>
-38.5140

> <Gold.PLP.part.repulsive>
0.1088

> <Gold.PLP.ligand.clash>
0.0000

> <Gold.PLP.ligand.torsion>
0.2435

> <Gold.PLP.Chemscore.Hbond>
0.0000

> <Gold.PLP.Chemscore.CHOScore>
0.0000

> <Gold.PLP.Chemscore.Metal>
0.0000

> <Gold.PLP.Chemscore.Internal.Correction>
0.0000

