#       Name:                EN300-374211_i001
#       Creating user name   aseyller
#       Creation time:       Fri Apr 21 12:16:40 2023


#       File generated by GOLD software.
#

@<TRIPOS>MOLECULE
EN300-374211_i001|amine_3|mol2|1|dock15
    27    28     1
SMALL
USER_CHARGES


@<TRIPOS>ATOM
      1 C1          32.9230  36.8777  35.5922 C.3            1 <1>                0.0000
      2 O2          31.5871  37.1231  36.1056 O.3            1 <1>                0.0000
      3 C3          31.3232  36.6925  37.3544 C.2            1 <1>                0.0000
      4 O4          32.2019  36.1801  38.0185 O.2            1 <1>                0.0000
      5 C5          29.9652  36.8433  37.9163 C.ar           1 <1>                0.0000
      6 C6          28.9270  37.3362  37.1226 C.ar           1 <1>                0.0000
      7 C7          27.6624  37.4771  37.6516 C.ar           1 <1>                0.0000
      8 C8          27.4079  37.1318  38.9704 C.ar           1 <1>                0.0000
      9 C9          26.0122  37.3072  39.5095 C.3            1 <1>                0.0000
     10 C10         25.8034  36.4362  40.7480 C.3            1 <1>                0.0000
     11 C11         26.9464  36.6991  41.7371 C.3            1 <1>                0.0000
     12 N12         28.1997  36.2782  41.0964 N.pl3          1 <1>                0.0000
     13 C13         28.4334  36.6382  39.7641 C.ar           1 <1>                0.0000
     14 C14         29.7106  36.4891  39.2407 C.ar           1 <1>                0.0000
     15 H15         33.0015  37.2735  34.5796 H              1 <1>                0.0000
     16 H16         33.6545  37.3704  36.2325 H              1 <1>                0.0000
     17 H17         33.1158  35.8050  35.5789 H              1 <1>                0.0000
     18 H18         29.1156  37.6074  36.0944 H              1 <1>                0.0000
     19 H19         26.8631  37.8598  37.0343 H              1 <1>                0.0000
     20 H20         25.8578  38.3531  39.7750 H              1 <1>                0.0000
     21 H21         25.2919  37.0212  38.7430 H              1 <1>                0.0000
     22 H22         24.8512  36.6878  41.2150 H              1 <1>                0.0000
     23 H23         25.8043  35.3851  40.4596 H              1 <1>                0.0000
     24 H24         26.9920  37.7619  41.9746 H              1 <1>                0.0000
     25 H25         26.7859  36.1228  42.6483 H              1 <1>                0.0000
     26 H26         30.5070  36.1032  39.8598 H              1 <1>                0.0000
     27 H27         28.8546  35.7588  41.5887 H              1 <1>                0.0000
@<TRIPOS>BOND
    1    1    2 1     
    2    1   15 1     
    3    1   16 1     
    4    1   17 1     
    5    2    3 1     
    6    3    4 2     
    7    3    5 1     
    8    5    6 ar    
    9    5   14 ar    
   10    6    7 ar    
   11    6   18 1     
   12    7    8 ar    
   13    7   19 1     
   14    8    9 1     
   15    8   13 ar    
   16    9   10 1     
   17    9   20 1     
   18    9   21 1     
   19   10   11 1     
   20   10   22 1     
   21   10   23 1     
   22   11   12 1     
   23   11   24 1     
   24   11   25 1     
   25   12   13 1     
   26   12   27 1     
   27   13   14 ar    
   28   14   26 1     
@<TRIPOS>SUBSTRUCTURE
      1 ****           1
@<TRIPOS>SET
DONOR_HYDROGENS      STATIC     ATOMS    <user>   **** ""
1 27
ATOM$RED        STATIC     ATOMS    COLORGROUP SYSTEM
1 27
@<TRIPOS>COMMENT
> <Gold.Version>
2022.2.0

> <Gold.Id.Protein>
1qkm|1qkm_protein|mol2

> <Gold.Protein.RotatedTorsions>
[  496  491  490  487 ] final  -21.54 input  -89.99 | X-H torsion

> <Gold.Protein.ActiveResidues>
 MET295  LEU298  THR299  LEU301  ALA302  GLU305  TRP335  MET336  LEU339  MET340 
 GLY342  LEU343  ARG346  PHE356  ILE373  ILE376  PHE377  LEU380  LYS471  GLY472 
 MET473  HIS475  LEU476  LEU477  ASN478  MET479  VAL484  VAL487 

> <Gold.Protein.RotatedAtoms>
   36.2851   34.4868   42.0148 H   0  0  0  0  0  0  0  0  0  0  0  0  # atno 496  bound_to 491 

> <Gold.Score>
     Score     S(PLP)   S(hbond)     S(cho)   S(metal)  DE(clash)   DE(tors)     intcor
     43.45     -43.49       0.00       0.00       0.00       0.00       0.02       0.00

> <Gold.PLP.Fitness>
43.4471

> <Gold.PLP.PLP>
-43.4908

> <Gold.PLP.part.hbond>
0.0000

> <Gold.PLP.part.metal>
0.0000

> <Gold.PLP.part.buried>
-3.2036

> <Gold.PLP.part.nonpolar>
-40.8841

> <Gold.PLP.part.repulsive>
0.0914

> <Gold.PLP.ligand.clash>
0.0000

> <Gold.PLP.ligand.torsion>
0.0219

> <Gold.PLP.Chemscore.Hbond>
0.0000

> <Gold.PLP.Chemscore.CHOScore>
0.0000

> <Gold.PLP.Chemscore.Metal>
0.0000

> <Gold.PLP.Chemscore.Internal.Correction>
0.0000

