#       Name:                EN300-374211_i001
#       Creating user name   aseyller
#       Creation time:       Fri Apr 21 12:16:39 2023


#       File generated by GOLD software.
#

@<TRIPOS>MOLECULE
EN300-374211_i001|amine_3|mol2|1|dock13
    27    28     1
SMALL
USER_CHARGES


@<TRIPOS>ATOM
      1 C1          33.3037  36.1035  37.5170 C.3            1 <1>                0.0000
      2 O2          31.9931  36.1232  38.1416 O.3            1 <1>                0.0000
      3 C3          31.0120  36.7714  37.4844 C.2            1 <1>                0.0000
      4 O4          31.2281  37.2498  36.3890 O.2            1 <1>                0.0000
      5 C5          29.6733  36.9004  38.0959 C.ar           1 <1>                0.0000
      6 C6          28.5938  37.3542  37.3347 C.ar           1 <1>                0.0000
      7 C7          27.3474  37.4749  37.9098 C.ar           1 <1>                0.0000
      8 C8          27.1521  37.1477  39.2432 C.ar           1 <1>                0.0000
      9 C9          25.7742  37.2999  39.8329 C.3            1 <1>                0.0000
     10 C10         25.6342  36.4470  41.0934 C.3            1 <1>                0.0000
     11 C11         26.8076  36.7546  42.0328 C.3            1 <1>                0.0000
     12 N12         28.0452  36.3517  41.3513 N.pl3          1 <1>                0.0000
     13 C13         28.2189  36.6929  40.0049 C.ar           1 <1>                0.0000
     14 C14         29.4783  36.5644  39.4350 C.ar           1 <1>                0.0000
     15 H15         33.9991  35.5506  38.1488 H              1 <1>                0.0000
     16 H16         33.2347  35.6197  36.5428 H              1 <1>                0.0000
     17 H17         33.6614  37.1254  37.3908 H              1 <1>                0.0000
     18 H18         28.7361  37.6111  36.2954 H              1 <1>                0.0000
     19 H19         26.5159  37.8274  37.3174 H              1 <1>                0.0000
     20 H20         25.6049  38.3466  40.0862 H              1 <1>                0.0000
     21 H21         25.0322  36.9833  39.1000 H              1 <1>                0.0000
     22 H22         24.6948  36.6845  41.5926 H              1 <1>                0.0000
     23 H23         25.6495  35.3911  40.8234 H              1 <1>                0.0000
     24 H24         26.8366  37.8223  42.2500 H              1 <1>                0.0000
     25 H25         26.6962  36.1914  42.9593 H              1 <1>                0.0000
     26 H26         30.3070  36.2086  40.0293 H              1 <1>                0.0000
     27 H27         28.7309  35.8569  41.8267 H              1 <1>                0.0000
@<TRIPOS>BOND
    1    1    2 1     
    2    1   15 1     
    3    1   16 1     
    4    1   17 1     
    5    2    3 1     
    6    3    4 2     
    7    3    5 1     
    8    5    6 ar    
    9    5   14 ar    
   10    6    7 ar    
   11    6   18 1     
   12    7    8 ar    
   13    7   19 1     
   14    8    9 1     
   15    8   13 ar    
   16    9   10 1     
   17    9   20 1     
   18    9   21 1     
   19   10   11 1     
   20   10   22 1     
   21   10   23 1     
   22   11   12 1     
   23   11   24 1     
   24   11   25 1     
   25   12   13 1     
   26   12   27 1     
   27   13   14 ar    
   28   14   26 1     
@<TRIPOS>SUBSTRUCTURE
      1 ****           1
@<TRIPOS>SET
DONOR_HYDROGENS      STATIC     ATOMS    <user>   **** ""
1 27
ATOM$RED        STATIC     ATOMS    COLORGROUP SYSTEM
1 27
@<TRIPOS>COMMENT
> <Gold.Version>
2022.2.0

> <Gold.Id.Protein>
1qkm|1qkm_protein|mol2

> <Gold.Protein.RotatedTorsions>
[  496  491  490  487 ] final   53.19 input  -89.99 | X-H torsion

> <Gold.Protein.ActiveResidues>
 MET295  LEU298  THR299  LEU301  ALA302  GLU305  TRP335  MET336  LEU339  MET340 
 GLY342  LEU343  ARG346  PHE356  ILE373  ILE376  PHE377  LEU380  LYS471  GLY472 
 MET473  HIS475  LEU476  LEU477  ASN478  MET479  VAL484  VAL487 

> <Gold.Protein.RotatedAtoms>
   36.4970   33.4098   42.3400 H   0  0  0  0  0  0  0  0  0  0  0  0  # atno 496  bound_to 491 

> <Gold.Score>
     Score     S(PLP)   S(hbond)     S(cho)   S(metal)  DE(clash)   DE(tors)     intcor
     43.00     -43.15       0.00       0.00       0.00       0.00       0.07       0.00

> <Gold.PLP.Fitness>
43.0038

> <Gold.PLP.PLP>
-43.1465

> <Gold.PLP.part.hbond>
0.0000

> <Gold.PLP.part.metal>
0.0000

> <Gold.PLP.part.buried>
-1.9648

> <Gold.PLP.part.nonpolar>
-41.8977

> <Gold.PLP.part.repulsive>
0.0806

> <Gold.PLP.ligand.clash>
0.0000

> <Gold.PLP.ligand.torsion>
0.0714

> <Gold.PLP.Chemscore.Hbond>
0.0000

> <Gold.PLP.Chemscore.CHOScore>
0.0000

> <Gold.PLP.Chemscore.Metal>
0.0000

> <Gold.PLP.Chemscore.Internal.Correction>
0.0000

