#       Name:                EN300-374211_i001
#       Creating user name   aseyller
#       Creation time:       Fri Apr 21 12:16:41 2023


#       File generated by GOLD software.
#

@<TRIPOS>MOLECULE
EN300-374211_i001|amine_3|mol2|1|dock20
    27    28     1
SMALL
USER_CHARGES


@<TRIPOS>ATOM
      1 C1          33.4336  36.0816  36.3537 C.3            1 <1>                0.0000
      2 O2          32.3959  35.9369  37.3590 O.3            1 <1>                0.0000
      3 C3          31.2796  36.6730  37.1960 C.2            1 <1>                0.0000
      4 O4          31.2090  37.4761  36.2874 O.2            1 <1>                0.0000
      5 C5          30.1412  36.5035  38.1224 C.ar           1 <1>                0.0000
      6 C6          30.2588  35.6670  39.2346 C.ar           1 <1>                0.0000
      7 C7          29.1936  35.5105  40.0948 C.ar           1 <1>                0.0000
      8 C8          28.0002  36.1791  39.8673 C.ar           1 <1>                0.0000
      9 C9          26.8595  35.9747  40.8299 C.3            1 <1>                0.0000
     10 C10         25.8589  37.1253  40.7262 C.3            1 <1>                0.0000
     11 C11         25.4728  37.3150  39.2534 C.3            1 <1>                0.0000
     12 N12         26.6841  37.7037  38.5186 N.pl3          1 <1>                0.0000
     13 C13         27.8769  37.0145  38.7663 C.ar           1 <1>                0.0000
     14 C14         28.9446  37.1822  37.8948 C.ar           1 <1>                0.0000
     15 H15         34.2749  35.4353  36.6042 H              1 <1>                0.0000
     16 H16         33.0367  35.7995  35.3786 H              1 <1>                0.0000
     17 H17         33.7684  37.1184  36.3237 H              1 <1>                0.0000
     18 H18         31.1844  35.1425  39.4203 H              1 <1>                0.0000
     19 H19         29.2890  34.8617  40.9529 H              1 <1>                0.0000
     20 H20         26.3551  35.0371  40.5961 H              1 <1>                0.0000
     21 H21         27.2505  35.9285  41.8463 H              1 <1>                0.0000
     22 H22         24.9689  36.8890  41.3095 H              1 <1>                0.0000
     23 H23         26.3139  38.0403  41.1053 H              1 <1>                0.0000
     24 H24         25.0809  36.3808  38.8512 H              1 <1>                0.0000
     25 H25         24.7208  38.0994  39.1670 H              1 <1>                0.0000
     26 H26         28.8470  37.8341  37.0394 H              1 <1>                0.0000
     27 H27         26.6577  38.4267  37.8724 H              1 <1>                0.0000
@<TRIPOS>BOND
    1    1    2 1     
    2    1   15 1     
    3    1   16 1     
    4    1   17 1     
    5    2    3 1     
    6    3    4 2     
    7    3    5 1     
    8    5    6 ar    
    9    5   14 ar    
   10    6    7 ar    
   11    6   18 1     
   12    7    8 ar    
   13    7   19 1     
   14    8    9 1     
   15    8   13 ar    
   16    9   10 1     
   17    9   20 1     
   18    9   21 1     
   19   10   11 1     
   20   10   22 1     
   21   10   23 1     
   22   11   12 1     
   23   11   24 1     
   24   11   25 1     
   25   12   13 1     
   26   12   27 1     
   27   13   14 ar    
   28   14   26 1     
@<TRIPOS>SUBSTRUCTURE
      1 ****           1
@<TRIPOS>SET
DONOR_HYDROGENS      STATIC     ATOMS    <user>   **** ""
1 27
ATOM$RED        STATIC     ATOMS    COLORGROUP SYSTEM
1 27
@<TRIPOS>COMMENT
> <Gold.Version>
2022.2.0

> <Gold.Id.Protein>
1qkm|1qkm_protein|mol2

> <Gold.Protein.RotatedTorsions>
[  496  491  490  487 ] final  119.59 input  -89.99 | X-H torsion

> <Gold.Protein.ActiveResidues>
 MET295  LEU298  THR299  LEU301  ALA302  GLU305  TRP335  MET336  LEU339  MET340 
 GLY342  LEU343  ARG346  PHE356  ILE373  ILE376  PHE377  LEU380  LYS471  GLY472 
 MET473  HIS475  LEU476  LEU477  ASN478  MET479  VAL484  VAL487 

> <Gold.Protein.RotatedAtoms>
   37.0774   32.9427   41.6247 H   0  0  0  0  0  0  0  0  0  0  0  0  # atno 496  bound_to 491 

> <Gold.Score>
     Score     S(PLP)   S(hbond)     S(cho)   S(metal)  DE(clash)   DE(tors)     intcor
     42.92     -42.99       0.00       0.00       0.00       0.00       0.03       0.00

> <Gold.PLP.Fitness>
42.9206

> <Gold.PLP.PLP>
-42.9877

> <Gold.PLP.part.hbond>
0.0000

> <Gold.PLP.part.metal>
0.0000

> <Gold.PLP.part.buried>
-3.3997

> <Gold.PLP.part.nonpolar>
-40.6017

> <Gold.PLP.part.repulsive>
0.0261

> <Gold.PLP.ligand.clash>
0.0000

> <Gold.PLP.ligand.torsion>
0.0335

> <Gold.PLP.Chemscore.Hbond>
0.0000

> <Gold.PLP.Chemscore.CHOScore>
0.0000

> <Gold.PLP.Chemscore.Metal>
0.0000

> <Gold.PLP.Chemscore.Internal.Correction>
0.0000

