#       Name:                EN300-374211_i001
#       Creating user name   aseyller
#       Creation time:       Fri Apr 21 12:16:36 2023


#       File generated by GOLD software.
#

@<TRIPOS>MOLECULE
EN300-374211_i001|amine_3|mol2|1|dock1
    27    28     1
SMALL
USER_CHARGES


@<TRIPOS>ATOM
      1 C1          32.3974  38.1634  34.3120 C.3            1 <1>                0.0000
      2 O2          31.2350  38.1321  35.1816 O.3            1 <1>                0.0000
      3 C3          31.3837  37.5350  36.3799 C.2            1 <1>                0.0000
      4 O4          32.4794  37.1478  36.7338 O.2            1 <1>                0.0000
      5 C5          30.2142  37.3511  37.2638 C.ar           1 <1>                0.0000
      6 C6          28.9422  37.7375  36.8358 C.ar           1 <1>                0.0000
      7 C7          27.8546  37.5659  37.6645 C.ar           1 <1>                0.0000
      8 C8          28.0103  37.0097  38.9252 C.ar           1 <1>                0.0000
      9 C9          26.7952  36.8455  39.8005 C.3            1 <1>                0.0000
     10 C10         27.0525  35.7969  40.8823 C.3            1 <1>                0.0000
     11 C11         28.3621  36.1404  41.6039 C.3            1 <1>                0.0000
     12 N12         29.4517  36.0519  40.6224 N.pl3          1 <1>                0.0000
     13 C13         29.2704  36.6203  39.3561 C.ar           1 <1>                0.0000
     14 C14         30.3727  36.7855  38.5284 C.ar           1 <1>                0.0000
     15 H15         32.1417  38.6712  33.3819 H              1 <1>                0.0000
     16 H16         33.2074  38.6986  34.8073 H              1 <1>                0.0000
     17 H17         32.7155  37.1440  34.0937 H              1 <1>                0.0000
     18 H18         28.8110  38.1712  35.8554 H              1 <1>                0.0000
     19 H19         26.8731  37.8673  37.3295 H              1 <1>                0.0000
     20 H20         26.5605  37.7995  40.2728 H              1 <1>                0.0000
     21 H21         25.9505  36.5306  39.1879 H              1 <1>                0.0000
     22 H22         26.2298  35.8003  41.5972 H              1 <1>                0.0000
     23 H23         27.1359  34.8117  40.4234 H              1 <1>                0.0000
     24 H24         28.3081  37.1524  42.0052 H              1 <1>                0.0000
     25 H25         28.5352  35.4304  42.4127 H              1 <1>                0.0000
     26 H26         31.3524  36.4802  38.8652 H              1 <1>                0.0000
     27 H27         30.2833  35.6064  40.8482 H              1 <1>                0.0000
@<TRIPOS>BOND
    1    1    2 1     
    2    1   15 1     
    3    1   16 1     
    4    1   17 1     
    5    2    3 1     
    6    3    4 2     
    7    3    5 1     
    8    5    6 ar    
    9    5   14 ar    
   10    6    7 ar    
   11    6   18 1     
   12    7    8 ar    
   13    7   19 1     
   14    8    9 1     
   15    8   13 ar    
   16    9   10 1     
   17    9   20 1     
   18    9   21 1     
   19   10   11 1     
   20   10   22 1     
   21   10   23 1     
   22   11   12 1     
   23   11   24 1     
   24   11   25 1     
   25   12   13 1     
   26   12   27 1     
   27   13   14 ar    
   28   14   26 1     
@<TRIPOS>SUBSTRUCTURE
      1 ****           1
@<TRIPOS>SET
DONOR_HYDROGENS      STATIC     ATOMS    <user>   **** ""
1 27
ATOM$RED        STATIC     ATOMS    COLORGROUP SYSTEM
1 27
@<TRIPOS>COMMENT
> <Gold.Version>
2022.2.0

> <Gold.Id.Protein>
1qkm|1qkm_protein|mol2

> <Gold.Protein.RotatedTorsions>
[  496  491  490  487 ] final  166.94 input  -89.99 | X-H torsion

> <Gold.Protein.ActiveResidues>
 MET295  LEU298  THR299  LEU301  ALA302  GLU305  TRP335  MET336  LEU339  MET340 
 GLY342  LEU343  ARG346  PHE356  ILE373  ILE376  PHE377  LEU380  LYS471  GLY472 
 MET473  HIS475  LEU476  LEU477  ASN478  MET479  VAL484  VAL487 

> <Gold.Protein.RotatedAtoms>
   37.3113   33.2871   40.9918 H   0  0  0  0  0  0  0  0  0  0  0  0  # atno 496  bound_to 491 

> <Gold.Score>
     Score     S(PLP)   S(hbond)     S(cho)   S(metal)  DE(clash)   DE(tors)     intcor
     48.42     -45.49       1.00       0.00       0.00       0.00       0.04       0.00

> <Gold.PLP.Fitness>
48.4153

> <Gold.PLP.PLP>
-45.4927

> <Gold.PLP.part.hbond>
-1.0000

> <Gold.PLP.part.metal>
0.0000

> <Gold.PLP.part.buried>
-3.9911

> <Gold.PLP.part.nonpolar>
-40.9605

> <Gold.PLP.part.repulsive>
0.0860

> <Gold.PLP.ligand.clash>
0.0000

> <Gold.PLP.ligand.torsion>
0.0387

> <Gold.PLP.Chemscore.Hbond>
1.0000

> <Gold.PLP.Chemscore.CHOScore>
0.0000

> <Gold.PLP.Chemscore.Metal>
0.0000

> <Gold.Chemscore.Hbonds>
donor molecule, donor type, donor heavy atom, donor atom, acceptor molecule, acceptor atom, score
      L1  H    12    27       P1   470  1.00

> <Gold.PLP.Chemscore.Internal.Correction>
0.0000

