#       Name:                EN300-374211_i001
#       Creating user name   aseyller
#       Creation time:       Fri Apr 21 12:16:38 2023


#       File generated by GOLD software.
#

@<TRIPOS>MOLECULE
EN300-374211_i001|amine_3|mol2|1|dock8
    27    28     1
SMALL
USER_CHARGES


@<TRIPOS>ATOM
      1 C1          27.9494  36.2871  41.7575 C.3            1 <1>                0.0000
      2 O2          29.0997  36.0910  40.8935 O.3            1 <1>                0.0000
      3 C3          28.9826  36.5028  39.6163 C.2            1 <1>                0.0000
      4 O4          27.9345  36.9754  39.2242 O.2            1 <1>                0.0000
      5 C5          30.1289  36.3797  38.6924 C.ar           1 <1>                0.0000
      6 C6          31.0666  35.3596  38.8679 C.ar           1 <1>                0.0000
      7 C7          32.1352  35.2499  38.0048 C.ar           1 <1>                0.0000
      8 C8          32.2898  36.1456  36.9575 C.ar           1 <1>                0.0000
      9 C9          33.4758  35.9923  36.0412 C.3            1 <1>                0.0000
     10 C10         33.2192  36.6993  34.7108 C.3            1 <1>                0.0000
     11 C11         32.7667  38.1379  34.9933 C.3            1 <1>                0.0000
     12 N12         31.4926  38.0724  35.7218 N.pl3          1 <1>                0.0000
     13 C13         31.3605  37.1596  36.7747 C.ar           1 <1>                0.0000
     14 C14         30.2782  37.2777  37.6361 C.ar           1 <1>                0.0000
     15 H15         28.1766  35.9129  42.7557 H              1 <1>                0.0000
     16 H16         27.7135  37.3498  41.8129 H              1 <1>                0.0000
     17 H17         27.0943  35.7458  41.3526 H              1 <1>                0.0000
     18 H18         30.9544  34.6571  39.6805 H              1 <1>                0.0000
     19 H19         32.8584  34.4601  38.1454 H              1 <1>                0.0000
     20 H20         34.3556  36.4269  36.5158 H              1 <1>                0.0000
     21 H21         33.6535  34.9327  35.8572 H              1 <1>                0.0000
     22 H22         34.1365  36.7140  34.1222 H              1 <1>                0.0000
     23 H23         32.4391  36.1722  34.1616 H              1 <1>                0.0000
     24 H24         33.5140  38.6473  35.6016 H              1 <1>                0.0000
     25 H25         32.6276  38.6724  34.0535 H              1 <1>                0.0000
     26 H26         29.5552  38.0667  37.4910 H              1 <1>                0.0000
     27 H27         30.7545  38.6523  35.4768 H              1 <1>                0.0000
@<TRIPOS>BOND
    1    1    2 1     
    2    1   15 1     
    3    1   16 1     
    4    1   17 1     
    5    2    3 1     
    6    3    4 2     
    7    3    5 1     
    8    5    6 ar    
    9    5   14 ar    
   10    6    7 ar    
   11    6   18 1     
   12    7    8 ar    
   13    7   19 1     
   14    8    9 1     
   15    8   13 ar    
   16    9   10 1     
   17    9   20 1     
   18    9   21 1     
   19   10   11 1     
   20   10   22 1     
   21   10   23 1     
   22   11   12 1     
   23   11   24 1     
   24   11   25 1     
   25   12   13 1     
   26   12   27 1     
   27   13   14 ar    
   28   14   26 1     
@<TRIPOS>SUBSTRUCTURE
      1 ****           1
@<TRIPOS>SET
DONOR_HYDROGENS      STATIC     ATOMS    <user>   **** ""
1 27
ATOM$RED        STATIC     ATOMS    COLORGROUP SYSTEM
1 27
@<TRIPOS>COMMENT
> <Gold.Version>
2022.2.0

> <Gold.Id.Protein>
1qkm|1qkm_protein|mol2

> <Gold.Protein.RotatedTorsions>
[  496  491  490  487 ] final  -64.14 input  -89.99 | X-H torsion

> <Gold.Protein.ActiveResidues>
 MET295  LEU298  THR299  LEU301  ALA302  GLU305  TRP335  MET336  LEU339  MET340 
 GLY342  LEU343  ARG346  PHE356  ILE373  ILE376  PHE377  LEU380  LYS471  GLY472 
 MET473  HIS475  LEU476  LEU477  ASN478  MET479  VAL484  VAL487 

> <Gold.Protein.RotatedAtoms>
   36.5297   34.7356   41.4251 H   0  0  0  0  0  0  0  0  0  0  0  0  # atno 496  bound_to 491 

> <Gold.Score>
     Score     S(PLP)   S(hbond)     S(cho)   S(metal)  DE(clash)   DE(tors)     intcor
     44.70     -45.42       0.00       0.00       0.00       0.00       0.36       0.00

> <Gold.PLP.Fitness>
44.6969

> <Gold.PLP.PLP>
-45.4226

> <Gold.PLP.part.hbond>
0.0000

> <Gold.PLP.part.metal>
0.0000

> <Gold.PLP.part.buried>
-3.3997

> <Gold.PLP.part.nonpolar>
-42.7152

> <Gold.PLP.part.repulsive>
0.1951

> <Gold.PLP.ligand.clash>
0.0000

> <Gold.PLP.ligand.torsion>
0.3629

> <Gold.PLP.Chemscore.Hbond>
0.0000

> <Gold.PLP.Chemscore.CHOScore>
0.0000

> <Gold.PLP.Chemscore.Metal>
0.0000

> <Gold.PLP.Chemscore.Internal.Correction>
0.0000

