#       Name:                EN300-374211_i001
#       Creating user name   aseyller
#       Creation time:       Fri Apr 21 12:16:41 2023


#       File generated by GOLD software.
#

@<TRIPOS>MOLECULE
EN300-374211_i001|amine_3|mol2|1|dock18
    27    28     1
SMALL
USER_CHARGES


@<TRIPOS>ATOM
      1 C1          31.7968  38.4875  34.3128 C.3            1 <1>                0.0000
      2 O2          31.3925  37.8173  35.5358 O.3            1 <1>                0.0000
      3 C3          30.2639  38.2534  36.1279 C.2            1 <1>                0.0000
      4 O4          29.6396  39.1747  35.6410 O.2            1 <1>                0.0000
      5 C5          29.7854  37.6114  37.3695 C.ar           1 <1>                0.0000
      6 C6          30.6655  36.8714  38.1622 C.ar           1 <1>                0.0000
      7 C7          30.2142  36.2726  39.3184 C.ar           1 <1>                0.0000
      8 C8          28.8886  36.3985  39.7059 C.ar           1 <1>                0.0000
      9 C9          28.4366  35.7228  40.9742 C.3            1 <1>                0.0000
     10 C10         27.1502  36.3644  41.4933 C.3            1 <1>                0.0000
     11 C11         26.1253  36.4127  40.3526 C.3            1 <1>                0.0000
     12 N12         26.6679  37.2803  39.2985 N.pl3          1 <1>                0.0000
     13 C13         28.0092  37.1349  38.9253 C.ar           1 <1>                0.0000
     14 C14         28.4536  37.7451  37.7602 C.ar           1 <1>                0.0000
     15 H15         32.7185  38.0400  33.9409 H              1 <1>                0.0000
     16 H16         31.0127  38.3801  33.5634 H              1 <1>                0.0000
     17 H17         31.9628  39.5454  34.5160 H              1 <1>                0.0000
     18 H18         31.6998  36.7680  37.8688 H              1 <1>                0.0000
     19 H19         30.8983  35.7003  39.9275 H              1 <1>                0.0000
     20 H20         28.2566  34.6664  40.7745 H              1 <1>                0.0000
     21 H21         29.2163  35.8176  41.7299 H              1 <1>                0.0000
     22 H22         26.7526  35.7709  42.3166 H              1 <1>                0.0000
     23 H23         27.3605  37.3766  41.8386 H              1 <1>                0.0000
     24 H24         25.9640  35.4095  39.9583 H              1 <1>                0.0000
     25 H25         25.1839  36.8219  40.7193 H              1 <1>                0.0000
     26 H26         27.7677  38.3192  37.1550 H              1 <1>                0.0000
     27 H27         26.1058  37.9436  38.8683 H              1 <1>                0.0000
@<TRIPOS>BOND
    1    1    2 1     
    2    1   15 1     
    3    1   16 1     
    4    1   17 1     
    5    2    3 1     
    6    3    4 2     
    7    3    5 1     
    8    5    6 ar    
    9    5   14 ar    
   10    6    7 ar    
   11    6   18 1     
   12    7    8 ar    
   13    7   19 1     
   14    8    9 1     
   15    8   13 ar    
   16    9   10 1     
   17    9   20 1     
   18    9   21 1     
   19   10   11 1     
   20   10   22 1     
   21   10   23 1     
   22   11   12 1     
   23   11   24 1     
   24   11   25 1     
   25   12   13 1     
   26   12   27 1     
   27   13   14 ar    
   28   14   26 1     
@<TRIPOS>SUBSTRUCTURE
      1 ****           1
@<TRIPOS>SET
DONOR_HYDROGENS      STATIC     ATOMS    <user>   **** ""
1 27
ATOM$RED        STATIC     ATOMS    COLORGROUP SYSTEM
1 27
@<TRIPOS>COMMENT
> <Gold.Version>
2022.2.0

> <Gold.Id.Protein>
1qkm|1qkm_protein|mol2

> <Gold.Protein.RotatedTorsions>
[  496  491  490  487 ] final -109.92 input  -89.99 | X-H torsion

> <Gold.Protein.ActiveResidues>
 MET295  LEU298  THR299  LEU301  ALA302  GLU305  TRP335  MET336  LEU339  MET340 
 GLY342  LEU343  ARG346  PHE356  ILE373  ILE376  PHE377  LEU380  LYS471  GLY472 
 MET473  HIS475  LEU476  LEU477  ASN478  MET479  VAL484  VAL487 

> <Gold.Protein.RotatedAtoms>
   36.9395   34.4764   40.8744 H   0  0  0  0  0  0  0  0  0  0  0  0  # atno 496  bound_to 491 

> <Gold.Score>
     Score     S(PLP)   S(hbond)     S(cho)   S(metal)  DE(clash)   DE(tors)     intcor
     42.66     -43.02       0.00       0.00       0.00       0.00       0.18       0.00

> <Gold.PLP.Fitness>
42.6555

> <Gold.PLP.PLP>
-43.0157

> <Gold.PLP.part.hbond>
0.0000

> <Gold.PLP.part.metal>
0.0000

> <Gold.PLP.part.buried>
-2.6134

> <Gold.PLP.part.nonpolar>
-40.3057

> <Gold.PLP.part.repulsive>
0.0445

> <Gold.PLP.ligand.clash>
0.0000

> <Gold.PLP.ligand.torsion>
0.1802

> <Gold.PLP.Chemscore.Hbond>
0.0000

> <Gold.PLP.Chemscore.CHOScore>
0.0000

> <Gold.PLP.Chemscore.Metal>
0.0000

> <Gold.PLP.Chemscore.Internal.Correction>
0.0000

