#       Name:                EN300-374211_i001
#       Creating user name   aseyller
#       Creation time:       Fri Apr 21 12:16:40 2023


#       File generated by GOLD software.
#

@<TRIPOS>MOLECULE
EN300-374211_i001|amine_3|mol2|1|dock17
    27    28     1
SMALL
USER_CHARGES


@<TRIPOS>ATOM
      1 C1          33.9753  36.1062  35.6681 C.3            1 <1>                0.0000
      2 O2          32.8931  36.1733  36.6340 O.3            1 <1>                0.0000
      3 C3          31.8238  36.9228  36.3033 C.2            1 <1>                0.0000
      4 O4          31.8417  37.5928  35.2901 O.2            1 <1>                0.0000
      5 C5          30.6294  36.9300  37.1727 C.ar           1 <1>                0.0000
      6 C6          29.3965  37.3516  36.6697 C.ar           1 <1>                0.0000
      7 C7          28.2856  37.3585  37.4849 C.ar           1 <1>                0.0000
      8 C8          28.3788  36.9481  38.8063 C.ar           1 <1>                0.0000
      9 C9          27.1404  36.9770  39.6637 C.3            1 <1>                0.0000
     10 C10         27.3016  36.0503  40.8683 C.3            1 <1>                0.0000
     11 C11         28.6207  36.3841  41.5772 C.3            1 <1>                0.0000
     12 N12         29.7171  36.1011  40.6412 N.pl3          1 <1>                0.0000
     13 C13         29.5994  36.5247  39.3122 C.ar           1 <1>                0.0000
     14 C14         30.7245  36.5105  38.4991 C.ar           1 <1>                0.0000
     15 H15         34.7714  35.4718  36.0579 H              1 <1>                0.0000
     16 H16         33.6024  35.6880  34.7332 H              1 <1>                0.0000
     17 H17         34.3645  37.1083  35.4883 H              1 <1>                0.0000
     18 H18         29.3141  37.6727  35.6418 H              1 <1>                0.0000
     19 H19         27.3346  37.6866  37.0917 H              1 <1>                0.0000
     20 H20         26.9687  37.9951  40.0134 H              1 <1>                0.0000
     21 H21         26.2851  36.6517  39.0714 H              1 <1>                0.0000
     22 H22         26.4696  36.1981  41.5567 H              1 <1>                0.0000
     23 H23         27.3199  35.0137  40.5317 H              1 <1>                0.0000
     24 H24         28.6347  37.4381  41.8542 H              1 <1>                0.0000
     25 H25         28.7275  35.7658  42.4686 H              1 <1>                0.0000
     26 H26         31.6733  36.1790  38.8945 H              1 <1>                0.0000
     27 H27         30.5098  35.6279  40.9392 H              1 <1>                0.0000
@<TRIPOS>BOND
    1    1    2 1     
    2    1   15 1     
    3    1   16 1     
    4    1   17 1     
    5    2    3 1     
    6    3    4 2     
    7    3    5 1     
    8    5    6 ar    
    9    5   14 ar    
   10    6    7 ar    
   11    6   18 1     
   12    7    8 ar    
   13    7   19 1     
   14    8    9 1     
   15    8   13 ar    
   16    9   10 1     
   17    9   20 1     
   18    9   21 1     
   19   10   11 1     
   20   10   22 1     
   21   10   23 1     
   22   11   12 1     
   23   11   24 1     
   24   11   25 1     
   25   12   13 1     
   26   12   27 1     
   27   13   14 ar    
   28   14   26 1     
@<TRIPOS>SUBSTRUCTURE
      1 ****           1
@<TRIPOS>SET
DONOR_HYDROGENS      STATIC     ATOMS    <user>   **** ""
1 27
ATOM$RED        STATIC     ATOMS    COLORGROUP SYSTEM
1 27
@<TRIPOS>COMMENT
> <Gold.Version>
2022.2.0

> <Gold.Id.Protein>
1qkm|1qkm_protein|mol2

> <Gold.Protein.RotatedTorsions>
[  496  491  490  487 ] final -163.41 input  -89.99 | X-H torsion

> <Gold.Protein.ActiveResidues>
 MET295  LEU298  THR299  LEU301  ALA302  GLU305  TRP335  MET336  LEU339  MET340 
 GLY342  LEU343  ARG346  PHE356  ILE373  ILE376  PHE377  LEU380  LYS471  GLY472 
 MET473  HIS475  LEU476  LEU477  ASN478  MET479  VAL484  VAL487 

> <Gold.Protein.RotatedAtoms>
   37.2869   33.7101   40.7610 H   0  0  0  0  0  0  0  0  0  0  0  0  # atno 496  bound_to 491 

> <Gold.Score>
     Score     S(PLP)   S(hbond)     S(cho)   S(metal)  DE(clash)   DE(tors)     intcor
     44.15     -41.55       1.00       0.00       0.00       0.00       0.20       0.00

> <Gold.PLP.Fitness>
44.1460

> <Gold.PLP.PLP>
-41.5496

> <Gold.PLP.part.hbond>
-1.0000

> <Gold.PLP.part.metal>
0.0000

> <Gold.PLP.part.buried>
-4.4394

> <Gold.PLP.part.nonpolar>
-36.2431

> <Gold.PLP.part.repulsive>
0.1426

> <Gold.PLP.ligand.clash>
0.0000

> <Gold.PLP.ligand.torsion>
0.2018

> <Gold.PLP.Chemscore.Hbond>
1.0000

> <Gold.PLP.Chemscore.CHOScore>
0.0000

> <Gold.PLP.Chemscore.Metal>
0.0000

> <Gold.Chemscore.Hbonds>
donor molecule, donor type, donor heavy atom, donor atom, acceptor molecule, acceptor atom, score
      L1  H    12    27       P1   470  1.00

> <Gold.PLP.Chemscore.Internal.Correction>
0.0000

