#       Name:                EN300-374211_i001
#       Creating user name   aseyller
#       Creation time:       Fri Apr 21 12:16:37 2023


#       File generated by GOLD software.
#

@<TRIPOS>MOLECULE
EN300-374211_i001|amine_3|mol2|1|dock3
    27    28     1
SMALL
USER_CHARGES


@<TRIPOS>ATOM
      1 C1          33.5390  36.7012  34.9457 C.3            1 <1>                0.0000
      2 O2          32.2694  36.9644  35.5993 O.3            1 <1>                0.0000
      3 C3          32.1083  36.4727  36.8430 C.2            1 <1>                0.0000
      4 O4          33.0358  35.9247  37.4043 O.2            1 <1>                0.0000
      5 C5          30.8036  36.6000  37.5245 C.ar           1 <1>                0.0000
      6 C6          29.7045  37.1298  36.8448 C.ar           1 <1>                0.0000
      7 C7          28.4901  37.2485  37.4851 C.ar           1 <1>                0.0000
      8 C8          28.3465  36.8443  38.8039 C.ar           1 <1>                0.0000
      9 C9          27.0024  36.9972  39.4669 C.3            1 <1>                0.0000
     10 C10         26.8948  36.0715  40.6783 C.3            1 <1>                0.0000
     11 C11         28.1189  36.2878  41.5775 C.3            1 <1>                0.0000
     12 N12         29.3111  35.8944  40.8145 N.pl3          1 <1>                0.0000
     13 C13         29.4329  36.3139  39.4846 C.ar           1 <1>                0.0000
     14 C14         30.6604  36.1867  38.8484 C.ar           1 <1>                0.0000
     15 H15         33.5368  37.1513  33.9529 H              1 <1>                0.0000
     16 H16         34.3479  37.1300  35.5371 H              1 <1>                0.0000
     17 H17         33.6854  35.6248  34.8562 H              1 <1>                0.0000
     18 H18         29.8066  37.4469  35.8174 H              1 <1>                0.0000
     19 H19         27.6433  37.6599  36.9557 H              1 <1>                0.0000
     20 H20         26.8767  38.0303  39.7913 H              1 <1>                0.0000
     21 H21         26.2182  36.7473  38.7523 H              1 <1>                0.0000
     22 H22         25.9870  36.3032  41.2353 H              1 <1>                0.0000
     23 H23         26.8657  35.0345  40.3440 H              1 <1>                0.0000
     24 H24         28.1902  37.3387  41.8578 H              1 <1>                0.0000
     25 H25         28.0332  35.6712  42.4723 H              1 <1>                0.0000
     26 H26         31.5043  35.7720  39.3797 H              1 <1>                0.0000
     27 H27         30.0026  35.3523  41.2255 H              1 <1>                0.0000
@<TRIPOS>BOND
    1    1    2 1     
    2    1   15 1     
    3    1   16 1     
    4    1   17 1     
    5    2    3 1     
    6    3    4 2     
    7    3    5 1     
    8    5    6 ar    
    9    5   14 ar    
   10    6    7 ar    
   11    6   18 1     
   12    7    8 ar    
   13    7   19 1     
   14    8    9 1     
   15    8   13 ar    
   16    9   10 1     
   17    9   20 1     
   18    9   21 1     
   19   10   11 1     
   20   10   22 1     
   21   10   23 1     
   22   11   12 1     
   23   11   24 1     
   24   11   25 1     
   25   12   13 1     
   26   12   27 1     
   27   13   14 ar    
   28   14   26 1     
@<TRIPOS>SUBSTRUCTURE
      1 ****           1
@<TRIPOS>SET
DONOR_HYDROGENS      STATIC     ATOMS    <user>   **** ""
1 27
ATOM$RED        STATIC     ATOMS    COLORGROUP SYSTEM
1 27
@<TRIPOS>COMMENT
> <Gold.Version>
2022.2.0

> <Gold.Id.Protein>
1qkm|1qkm_protein|mol2

> <Gold.Protein.RotatedTorsions>
[  496  491  490  487 ] final   20.92 input  -89.99 | X-H torsion

> <Gold.Protein.ActiveResidues>
 MET295  LEU298  THR299  LEU301  ALA302  GLU305  TRP335  MET336  LEU339  MET340 
 GLY342  LEU343  ARG346  PHE356  ILE373  ILE376  PHE377  LEU380  LYS471  GLY472 
 MET473  HIS475  LEU476  LEU477  ASN478  MET479  VAL484  VAL487 

> <Gold.Protein.RotatedAtoms>
   36.3058   33.8976   42.3596 H   0  0  0  0  0  0  0  0  0  0  0  0  # atno 496  bound_to 491 

> <Gold.Score>
     Score     S(PLP)   S(hbond)     S(cho)   S(metal)  DE(clash)   DE(tors)     intcor
     47.76     -44.84       1.00       0.00       0.00       0.00       0.04       0.00

> <Gold.PLP.Fitness>
47.7556

> <Gold.PLP.PLP>
-44.8362

> <Gold.PLP.part.hbond>
-1.0000

> <Gold.PLP.part.metal>
0.0000

> <Gold.PLP.part.buried>
-4.7441

> <Gold.PLP.part.nonpolar>
-39.5565

> <Gold.PLP.part.repulsive>
0.1364

> <Gold.PLP.ligand.clash>
0.0000

> <Gold.PLP.ligand.torsion>
0.0403

> <Gold.PLP.Chemscore.Hbond>
1.0000

> <Gold.PLP.Chemscore.CHOScore>
0.0000

> <Gold.PLP.Chemscore.Metal>
0.0000

> <Gold.Chemscore.Hbonds>
donor molecule, donor type, donor heavy atom, donor atom, acceptor molecule, acceptor atom, score
      L1  H    12    27       P1   470  1.00

> <Gold.PLP.Chemscore.Internal.Correction>
0.0000

