#       Name:                EN300-64604_i001
#       Creating user name   aseyller
#       Creation time:       Fri Apr 21 15:36:36 2023


#       File generated by GOLD software.
#

@<TRIPOS>MOLECULE
EN300-64604_i001|amine_1|mol2|960|dock17
    38    38     1
SMALL
USER_CHARGES


@<TRIPOS>ATOM
      1 C1          25.5010  37.2939  39.1500 C.3            1 <1>                0.0000
      2 C2          27.0071  37.0292  39.0996 C.3            1 <1>                0.0000
      3 C3          27.2559  35.5298  38.9247 C.3            1 <1>                0.0000
      4 C4          27.6192  37.7887  37.9209 C.3            1 <1>                0.0000
      5 C5          29.0996  37.4242  37.7928 C.3            1 <1>                0.0000
      6 N6          29.7446  37.5260  39.1088 N.4            1 <1>                1.0000
      7 C7          29.7689  38.3717  36.8308 C.2            1 <1>                0.0000
      8 O8          29.6159  39.5686  36.9532 O.2            1 <1>                0.0000
      9 N9          30.5374  37.8889  35.8344 N.am           1 <1>                0.0000
     10 C10         31.1964  38.8000  34.8887 C.3            1 <1>                0.0000
     11 C11         32.6942  38.4800  34.8581 C.3            1 <1>                0.0000
     12 C12         32.8883  36.9957  34.5400 C.3            1 <1>                0.0000
     13 O13         34.2852  36.7007  34.4788 O.3            1 <1>                0.0000
     14 C14         32.2356  36.1480  35.6343 C.3            1 <1>                0.0000
     15 C15         30.7370  36.4418  35.6770 C.3            1 <1>                0.0000
     16 H16         25.0414  36.9560  38.2211 H              1 <1>                0.0000
     17 H17         25.0647  36.7522  39.9892 H              1 <1>                0.0000
     18 H18         25.3238  38.3620  39.2755 H              1 <1>                0.0000
     19 H19         27.4667  37.3679  40.0281 H              1 <1>                0.0000
     20 H20         26.7962  35.1911  37.9962 H              1 <1>                0.0000
     21 H21         28.3287  35.3412  38.8888 H              1 <1>                0.0000
     22 H22         26.8197  34.9888  39.7644 H              1 <1>                0.0000
     23 H23         27.0975  37.5170  37.0032 H              1 <1>                0.0000
     24 H24         27.5224  38.8611  38.0899 H              1 <1>                0.0000
     25 H25         29.1917  36.4038  37.4211 H              1 <1>                0.0000
     26 H26         30.7731  38.6626  33.8937 H              1 <1>                0.0000
     27 H27         31.0494  39.8307  35.2115 H              1 <1>                0.0000
     28 H28         33.1795  39.0831  34.0907 H              1 <1>                0.0000
     29 H29         33.1341  38.7044  35.8299 H              1 <1>                0.0000
     30 H30         32.4264  36.7667  33.5795 H              1 <1>                0.0000
     31 H31         32.3943  35.0913  35.4192 H              1 <1>                0.0000
     32 H32         32.6796  36.3944  36.5987 H              1 <1>                0.0000
     33 H33         30.2855  35.9158  36.5181 H              1 <1>                0.0000
     34 H34         30.2737  36.1136  34.7467 H              1 <1>                0.0000
     35 H35         30.0780  36.6165  39.3912 H              1 <1>                0.0000
     36 H36         30.5220  38.1669  39.0535 H              1 <1>                0.0000
     37 H37         29.0771  37.8646  39.7853 H              1 <1>                0.0000
     38 H38         34.7997  37.3381  33.9650 H              1 <1>                0.0000
@<TRIPOS>BOND
    1    1    2 1     
    2    1   16 1     
    3    1   17 1     
    4    1   18 1     
    5    2    3 1     
    6    2    4 1     
    7    2   19 1     
    8    3   20 1     
    9    3   21 1     
   10    3   22 1     
   11    4    5 1     
   12    4   23 1     
   13    4   24 1     
   14    5    6 1     
   15    5    7 1     
   16    5   25 1     
   17    6   35 1     
   18    6   36 1     
   19    6   37 1     
   20    7    8 2     
   21    7    9 am    
   22    9   10 1     
   23    9   15 1     
   24   10   11 1     
   25   10   26 1     
   26   10   27 1     
   27   11   12 1     
   28   11   28 1     
   29   11   29 1     
   30   12   13 1     
   31   12   14 1     
   32   12   30 1     
   33   13   38 1     
   34   14   15 1     
   35   14   31 1     
   36   14   32 1     
   37   15   33 1     
   38   15   34 1     
@<TRIPOS>SUBSTRUCTURE
      1 ****           1
@<TRIPOS>SET
DONOR_HYDROGENS      STATIC     ATOMS    <user>   **** ""
4 35 36 37 38
ATOM$RED        STATIC     ATOMS    COLORGROUP SYSTEM
4 35 36 37 38
@<TRIPOS>COMMENT
> <Gold.Version>
2022.2.0

> <Gold.Id.Protein>
1qkm|1qkm_protein|mol2

> <Gold.Protein.RotatedTorsions>
[  496  491  490  487 ] final  -80.57 input  -89.99 | X-H torsion

> <Gold.Protein.ActiveResidues>
 MET295  LEU298  THR299  LEU301  ALA302  GLU305  TRP335  MET336  LEU339  MET340 
 GLY342  LEU343  ARG346  PHE356  ILE373  ILE376  PHE377  LEU380  LYS471  GLY472 
 MET473  HIS475  LEU476  LEU477  ASN478  MET479  VAL484  VAL487 

> <Gold.Protein.RotatedAtoms>
   36.6710   34.7039   41.1978 H   0  0  0  0  0  0  0  0  0  0  0  0  # atno 496  bound_to 491 

> <Gold.Score>
     Score     S(PLP)   S(hbond)     S(cho)   S(metal)  DE(clash)   DE(tors)     intcor
     48.90     -46.47       1.00       0.00       0.00       0.00       0.29       0.01

> <Gold.PLP.Fitness>
48.9005

> <Gold.PLP.PLP>
-46.4749

> <Gold.PLP.part.hbond>
-1.4534

> <Gold.PLP.part.metal>
0.0000

> <Gold.PLP.part.buried>
-3.7045

> <Gold.PLP.part.nonpolar>
-41.7522

> <Gold.PLP.part.repulsive>
0.0000

> <Gold.PLP.ligand.clash>
0.0000

> <Gold.PLP.ligand.torsion>
0.2904

> <Gold.PLP.Chemscore.Hbond>
1.0000

> <Gold.PLP.Chemscore.CHOScore>
0.0000

> <Gold.PLP.Chemscore.Metal>
0.0000

> <Gold.Chemscore.Hbonds>
donor molecule, donor type, donor heavy atom, donor atom, acceptor molecule, acceptor atom, score
      L1  H    13    38       P1  3229  1.00

> <Gold.PLP.Chemscore.Internal.Correction>
0.0064

