#       Name:                EN300-64604_i001
#       Creating user name   aseyller
#       Creation time:       Fri Apr 21 15:36:35 2023


#       File generated by GOLD software.
#

@<TRIPOS>MOLECULE
EN300-64604_i001|amine_1|mol2|960|dock16
    38    38     1
SMALL
USER_CHARGES


@<TRIPOS>ATOM
      1 C1          25.5934  37.3531  39.5231 C.3            1 <1>                0.0000
      2 C2          26.7854  36.9140  40.3759 C.3            1 <1>                0.0000
      3 C3          26.3188  36.6551  41.8098 C.3            1 <1>                0.0000
      4 C4          27.3834  35.6312  39.7947 C.3            1 <1>                0.0000
      5 C5          28.8576  35.8629  39.4575 C.3            1 <1>                0.0000
      6 N6          29.5517  36.3968  40.6371 N.4            1 <1>                1.0000
      7 C7          28.9645  36.8490  38.3229 C.2            1 <1>                0.0000
      8 O8          27.9862  37.4702  37.9651 O.2            1 <1>                0.0000
      9 N9          30.1473  37.0403  37.7058 N.am           1 <1>                0.0000
     10 C10         31.3412  36.2951  38.1280 C.3            1 <1>                0.0000
     11 C11         31.9453  35.5980  36.9050 C.3            1 <1>                0.0000
     12 C12         32.2060  36.6340  35.8092 C.3            1 <1>                0.0000
     13 O13         32.7996  35.9923  34.6788 O.3            1 <1>                0.0000
     14 C14         30.8836  37.2815  35.3919 C.3            1 <1>                0.0000
     15 C15         30.2661  37.9936  36.5941 C.3            1 <1>                0.0000
     16 H16         24.8381  36.5672  39.5223 H              1 <1>                0.0000
     17 H17         25.1668  38.2664  39.9377 H              1 <1>                0.0000
     18 H18         25.9260  37.5384  38.5018 H              1 <1>                0.0000
     19 H19         27.5410  37.6996  40.3760 H              1 <1>                0.0000
     20 H20         25.5631  35.8695  41.8098 H              1 <1>                0.0000
     21 H21         27.1679  36.3423  42.4173 H              1 <1>                0.0000
     22 H22         25.8928  37.5690  42.2239 H              1 <1>                0.0000
     23 H23         27.3000  34.8275  40.5263 H              1 <1>                0.0000
     24 H24         26.8425  35.3560  38.8893 H              1 <1>                0.0000
     25 H25         29.3157  34.9188  39.1628 H              1 <1>                0.0000
     26 H26         32.0707  36.9843  38.5532 H              1 <1>                0.0000
     27 H27         31.0622  35.5497  38.8728 H              1 <1>                0.0000
     28 H28         32.8844  35.1207  37.1853 H              1 <1>                0.0000
     29 H29         31.2499  34.8444  36.5352 H              1 <1>                0.0000
     30 H30         32.8820  37.4008  36.1879 H              1 <1>                0.0000
     31 H31         31.0670  38.0024  34.5952 H              1 <1>                0.0000
     32 H32         30.1982  36.5121  35.0364 H              1 <1>                0.0000
     33 H33         29.2789  38.3709  36.3277 H              1 <1>                0.0000
     34 H34         30.9068  38.8218  36.8969 H              1 <1>                0.0000
     35 H35         28.9163  36.4172  41.4206 H              1 <1>                0.0000
     36 H36         30.3400  35.8073  40.8588 H              1 <1>                0.0000
     37 H37         29.8756  37.3322  40.4421 H              1 <1>                0.0000
     38 H38         32.1781  35.8037  33.9623 H              1 <1>                0.0000
@<TRIPOS>BOND
    1    1    2 1     
    2    1   16 1     
    3    1   17 1     
    4    1   18 1     
    5    2    3 1     
    6    2    4 1     
    7    2   19 1     
    8    3   20 1     
    9    3   21 1     
   10    3   22 1     
   11    4    5 1     
   12    4   23 1     
   13    4   24 1     
   14    5    6 1     
   15    5    7 1     
   16    5   25 1     
   17    6   35 1     
   18    6   36 1     
   19    6   37 1     
   20    7    8 2     
   21    7    9 am    
   22    9   10 1     
   23    9   15 1     
   24   10   11 1     
   25   10   26 1     
   26   10   27 1     
   27   11   12 1     
   28   11   28 1     
   29   11   29 1     
   30   12   13 1     
   31   12   14 1     
   32   12   30 1     
   33   13   38 1     
   34   14   15 1     
   35   14   31 1     
   36   14   32 1     
   37   15   33 1     
   38   15   34 1     
@<TRIPOS>SUBSTRUCTURE
      1 ****           1
@<TRIPOS>SET
DONOR_HYDROGENS      STATIC     ATOMS    <user>   **** ""
4 35 36 37 38
ATOM$RED        STATIC     ATOMS    COLORGROUP SYSTEM
4 35 36 37 38
@<TRIPOS>COMMENT
> <Gold.Version>
2022.2.0

> <Gold.Id.Protein>
1qkm|1qkm_protein|mol2

> <Gold.Protein.RotatedTorsions>
[  496  491  490  487 ] final   48.58 input  -89.99 | X-H torsion

> <Gold.Protein.ActiveResidues>
 MET295  LEU298  THR299  LEU301  ALA302  GLU305  TRP335  MET336  LEU339  MET340 
 GLY342  LEU343  ARG346  PHE356  ILE373  ILE376  PHE377  LEU380  LYS471  GLY472 
 MET473  HIS475  LEU476  LEU477  ASN478  MET479  VAL484  VAL487 

> <Gold.Protein.RotatedAtoms>
   36.4623   33.4747   42.3588 H   0  0  0  0  0  0  0  0  0  0  0  0  # atno 496  bound_to 491 

> <Gold.Score>
     Score     S(PLP)   S(hbond)     S(cho)   S(metal)  DE(clash)   DE(tors)     intcor
     48.67     -45.26       1.80       0.00       0.00       0.00       1.00       0.01

> <Gold.PLP.Fitness>
48.6712

> <Gold.PLP.PLP>
-45.2557

> <Gold.PLP.part.hbond>
-2.0000

> <Gold.PLP.part.metal>
0.0000

> <Gold.PLP.part.buried>
-2.3871

> <Gold.PLP.part.nonpolar>
-42.6870

> <Gold.PLP.part.repulsive>
0.0413

> <Gold.PLP.ligand.clash>
0.0000

> <Gold.PLP.ligand.torsion>
0.9991

> <Gold.PLP.Chemscore.Hbond>
1.8025

> <Gold.PLP.Chemscore.CHOScore>
0.0000

> <Gold.PLP.Chemscore.Metal>
0.0000

> <Gold.Chemscore.Hbonds>
donor molecule, donor type, donor heavy atom, donor atom, acceptor molecule, acceptor atom, score
      L1  H     6    36       P1   470  0.99
      L1  H    13    38       P1  3187  0.81

> <Gold.PLP.Chemscore.Internal.Correction>
0.0064

