#       Name:                EN300-64604_i001
#       Creating user name   aseyller
#       Creation time:       Fri Apr 21 15:36:31 2023


#       File generated by GOLD software.
#

@<TRIPOS>MOLECULE
EN300-64604_i001|amine_1|mol2|960|dock13
    38    38     1
SMALL
USER_CHARGES


@<TRIPOS>ATOM
      1 C1          32.1377  33.7894  37.8861 C.3            1 <1>                0.0000
      2 C2          32.3178  35.2919  38.1118 C.3            1 <1>                0.0000
      3 C3          33.4824  35.7998  37.2593 C.3            1 <1>                0.0000
      4 C4          31.0356  36.0250  37.7123 C.3            1 <1>                0.0000
      5 C5          30.1543  36.2212  38.9473 C.3            1 <1>                0.0000
      6 N6          30.0003  34.9390  39.6477 N.4            1 <1>                1.0000
      7 C7          28.7999  36.7274  38.5228 C.2            1 <1>                0.0000
      8 O8          28.5214  36.7996  37.3445 O.2            1 <1>                0.0000
      9 N9          27.8980  37.1000  39.4525 N.am           1 <1>                0.0000
     10 C10         26.5734  37.5956  39.0541 C.3            1 <1>                0.0000
     11 C11         25.5016  36.7761  39.7798 C.3            1 <1>                0.0000
     12 C12         25.7630  36.8228  41.2870 C.3            1 <1>                0.0000
     13 O13         24.7465  36.0861  41.9695 O.3            1 <1>                0.0000
     14 C14         27.1302  36.2048  41.5888 C.3            1 <1>                0.0000
     15 C15         28.2185  37.0125  40.8836 C.3            1 <1>                0.0000
     16 H16         31.9248  33.6031  36.8335 H              1 <1>                0.0000
     17 H17         33.0514  33.2673  38.1699 H              1 <1>                0.0000
     18 H18         31.3086  33.4275  38.4941 H              1 <1>                0.0000
     19 H19         32.5298  35.4783  39.1646 H              1 <1>                0.0000
     20 H20         33.2704  35.6134  36.2065 H              1 <1>                0.0000
     21 H21         33.6107  36.8701  37.4201 H              1 <1>                0.0000
     22 H22         34.3958  35.2775  37.5440 H              1 <1>                0.0000
     23 H23         31.2896  36.9969  37.2891 H              1 <1>                0.0000
     24 H24         30.4962  35.4356  36.9708 H              1 <1>                0.0000
     25 H25         30.6203  36.9460  39.6148 H              1 <1>                0.0000
     26 H26         26.4785  38.6460  39.3288 H              1 <1>                0.0000
     27 H27         26.4507  37.4850  37.9767 H              1 <1>                0.0000
     28 H28         24.5179  37.1951  39.5680 H              1 <1>                0.0000
     29 H29         25.5390  35.7424  39.4359 H              1 <1>                0.0000
     30 H30         25.7503  37.8588  41.6259 H              1 <1>                0.0000
     31 H31         27.3057  36.2172  42.6645 H              1 <1>                0.0000
     32 H32         27.1523  35.1766  41.2278 H              1 <1>                0.0000
     33 H33         29.1818  36.5195  41.0142 H              1 <1>                0.0000
     34 H34         28.2594  38.0167  41.3054 H              1 <1>                0.0000
     35 H35         29.0443  34.8356  39.9535 H              1 <1>                0.0000
     36 H36         30.2368  34.1836  39.0221 H              1 <1>                0.0000
     37 H37         30.6138  34.9173  40.4484 H              1 <1>                0.0000
     38 H38         25.0853  35.4743  42.6373 H              1 <1>                0.0000
@<TRIPOS>BOND
    1    1    2 1     
    2    1   16 1     
    3    1   17 1     
    4    1   18 1     
    5    2    3 1     
    6    2    4 1     
    7    2   19 1     
    8    3   20 1     
    9    3   21 1     
   10    3   22 1     
   11    4    5 1     
   12    4   23 1     
   13    4   24 1     
   14    5    6 1     
   15    5    7 1     
   16    5   25 1     
   17    6   35 1     
   18    6   36 1     
   19    6   37 1     
   20    7    8 2     
   21    7    9 am    
   22    9   10 1     
   23    9   15 1     
   24   10   11 1     
   25   10   26 1     
   26   10   27 1     
   27   11   12 1     
   28   11   28 1     
   29   11   29 1     
   30   12   13 1     
   31   12   14 1     
   32   12   30 1     
   33   13   38 1     
   34   14   15 1     
   35   14   31 1     
   36   14   32 1     
   37   15   33 1     
   38   15   34 1     
@<TRIPOS>SUBSTRUCTURE
      1 ****           1
@<TRIPOS>SET
DONOR_HYDROGENS      STATIC     ATOMS    <user>   **** ""
4 35 36 37 38
ATOM$RED        STATIC     ATOMS    COLORGROUP SYSTEM
4 35 36 37 38
@<TRIPOS>COMMENT
> <Gold.Version>
2022.2.0

> <Gold.Id.Protein>
1qkm|1qkm_protein|mol2

> <Gold.Protein.RotatedTorsions>
[  496  491  490  487 ] final  -50.22 input  -89.99 | X-H torsion

> <Gold.Protein.ActiveResidues>
 MET295  LEU298  THR299  LEU301  ALA302  GLU305  TRP335  MET336  LEU339  MET340 
 GLY342  LEU343  ARG346  PHE356  ILE373  ILE376  PHE377  LEU380  LYS471  GLY472 
 MET473  HIS475  LEU476  LEU477  ASN478  MET479  VAL484  VAL487 

> <Gold.Protein.RotatedAtoms>
   36.4261   34.7051   41.6265 H   0  0  0  0  0  0  0  0  0  0  0  0  # atno 496  bound_to 491 

> <Gold.Score>
     Score     S(PLP)   S(hbond)     S(cho)   S(metal)  DE(clash)   DE(tors)     intcor
     53.30     -45.76       2.92       0.00       0.00       0.04       0.59       0.01

> <Gold.PLP.Fitness>
53.3041

> <Gold.PLP.PLP>
-45.7583

> <Gold.PLP.part.hbond>
-4.2453

> <Gold.PLP.part.metal>
0.0000

> <Gold.PLP.part.buried>
0.6944

> <Gold.PLP.part.nonpolar>
-42.9582

> <Gold.PLP.part.repulsive>
0.0613

> <Gold.PLP.ligand.clash>
0.0368

> <Gold.PLP.ligand.torsion>
0.5908

> <Gold.PLP.Chemscore.Hbond>
2.9193

> <Gold.PLP.Chemscore.CHOScore>
0.0000

> <Gold.PLP.Chemscore.Metal>
0.0000

> <Gold.Chemscore.Hbonds>
donor molecule, donor type, donor heavy atom, donor atom, acceptor molecule, acceptor atom, score
      L1  H     6    37       P1   470  0.99
      L1  H    13    38       P1   582  1.00
      P1  H  1258  1270       L1    13  0.93

> <Gold.PLP.Chemscore.Internal.Correction>
0.0064

