#       Name:                EN300-64604_i001
#       Creating user name   aseyller
#       Creation time:       Fri Apr 21 15:36:14 2023


#       File generated by GOLD software.
#

@<TRIPOS>MOLECULE
EN300-64604_i001
    38    38     1
SMALL
USER_CHARGES


@<TRIPOS>ATOM
      1 C1           4.0089  -0.8998   1.1373 C.3            1 <1>                0.0000
      2 C2           3.0688  -0.4884   0.0025 C.3            1 <1>                0.0000
      3 C3           2.5372  -1.7401  -0.6986 C.3            1 <1>                0.0000
      4 C4           1.8972   0.3116   0.5755 C.3            1 <1>                0.0000
      5 C5           1.0358   0.8462  -0.5703 C.3            1 <1>                0.0000
      6 N6           1.8123   1.8145  -1.3562 N.4            1 <1>                1.0000
      7 C7          -0.1870   1.5227  -0.0062 C.2            1 <1>                0.0000
      8 O8          -0.2233   2.7315   0.0856 O.2            1 <1>                0.0000
      9 N9          -1.2402   0.7843   0.3963 N.am           1 <1>                0.0000
     10 C10         -2.4394   1.4294   0.9484 C.3            1 <1>                0.0000
     11 C11         -3.6646   0.9424   0.1683 C.3            1 <1>                0.0000
     12 C12         -3.7056  -0.5872   0.1936 C.3            1 <1>                0.0000
     13 O13         -4.8650  -1.0440  -0.5058 O.3            1 <1>                0.0000
     14 C14         -2.4503  -1.1442  -0.4818 C.3            1 <1>                0.0000
     15 C15         -1.2135  -0.6805   0.2857 C.3            1 <1>                0.0000
     16 H16          3.4651  -1.5141   1.8550 H              1 <1>                0.0000
     17 H17          4.8431  -1.4705   0.7292 H              1 <1>                0.0000
     18 H18          4.3883  -0.0081   1.6362 H              1 <1>                0.0000
     19 H19          3.6124   0.1266  -0.7147 H              1 <1>                0.0000
     20 H20          1.9936  -2.3551   0.0186 H              1 <1>                0.0000
     21 H21          1.8675  -1.4470  -1.5070 H              1 <1>                0.0000
     22 H22          3.3719  -2.3100  -1.1068 H              1 <1>                0.0000
     23 H23          1.2935  -0.3343   1.2131 H              1 <1>                0.0000
     24 H24          2.2799   1.1465   1.1625 H              1 <1>                0.0000
     25 H25          0.7304   0.0195  -1.2116 H              1 <1>                0.0000
     26 H26         -2.5462   1.1631   1.9999 H              1 <1>                0.0000
     27 H27         -2.3502   2.5113   0.8505 H              1 <1>                0.0000
     28 H28         -4.5699   1.3383   0.6286 H              1 <1>                0.0000
     29 H29         -3.5997   1.2876  -0.8636 H              1 <1>                0.0000
     30 H30         -3.7453  -0.9324   1.2268 H              1 <1>                0.0000
     31 H31         -2.4913  -2.2334  -0.4842 H              1 <1>                0.0000
     32 H32         -2.3968  -0.7793  -1.5075 H              1 <1>                0.0000
     33 H33         -0.3150  -0.9916  -0.2471 H              1 <1>                0.0000
     34 H34         -1.2183  -1.1171   1.2844 H              1 <1>                0.0000
     35 H35          2.1776   2.5286  -0.7441 H              1 <1>                0.0000
     36 H36          2.5766   1.3405  -1.8136 H              1 <1>                0.0000
     37 H37          1.2162   2.2393  -2.0506 H              1 <1>                0.0000
     38 H38         -4.9560  -2.0064  -0.5300 H              1 <1>                0.0000
@<TRIPOS>BOND
    1    1    2 1     
    2    1   16 1     
    3    1   17 1     
    4    1   18 1     
    5    2    3 1     
    6    2    4 1     
    7    2   19 1     
    8    3   20 1     
    9    3   21 1     
   10    3   22 1     
   11    4    5 1     
   12    4   23 1     
   13    4   24 1     
   14    5    6 1     
   15    5    7 1     
   16    5   25 1     
   17    6   35 1     
   18    6   36 1     
   19    6   37 1     
   20    7    8 2     
   21    7    9 am    
   22    9   10 1     
   23    9   15 1     
   24   10   11 1     
   25   10   26 1     
   26   10   27 1     
   27   11   12 1     
   28   11   28 1     
   29   11   29 1     
   30   12   13 1     
   31   12   14 1     
   32   12   30 1     
   33   13   38 1     
   34   14   15 1     
   35   14   31 1     
   36   14   32 1     
   37   15   33 1     
   38   15   34 1     
@<TRIPOS>SUBSTRUCTURE
      1 ****           1
@<TRIPOS>SET
DONOR_HYDROGENS      STATIC     ATOMS    <user>   **** ""
4 35 36 37 38
ATOM$RED        STATIC     ATOMS    COLORGROUP SYSTEM
4 35 36 37 38
