#       Name:                EN300-64604_i001
#       Creating user name   aseyller
#       Creation time:       Fri Apr 21 15:36:23 2023


#       File generated by GOLD software.
#

@<TRIPOS>MOLECULE
EN300-64604_i001|amine_1|mol2|960|dock7
    38    38     1
SMALL
USER_CHARGES


@<TRIPOS>ATOM
      1 C1          31.1857  38.7862  34.3104 C.3            1 <1>                0.0000
      2 C2          31.4729  37.7016  35.3505 C.3            1 <1>                0.0000
      3 C3          32.7966  37.0112  35.0154 C.3            1 <1>                0.0000
      4 C4          31.5669  38.3382  36.7386 C.3            1 <1>                0.0000
      5 C5          31.0012  37.3726  37.7819 C.3            1 <1>                0.0000
      6 N6          31.5847  36.0392  37.5823 N.4            1 <1>                1.0000
      7 C7          29.5037  37.2929  37.6330 C.2            1 <1>                0.0000
      8 O8          28.9574  37.8388  36.6978 O.2            1 <1>                0.0000
      9 N9          28.7717  36.6151  38.5392 N.am           1 <1>                0.0000
     10 C10         29.4194  35.9488  39.6773 C.3            1 <1>                0.0000
     11 C11         28.7544  36.4268  40.9720 C.3            1 <1>                0.0000
     12 C12         27.2448  36.1921  40.8823 C.3            1 <1>                0.0000
     13 O13         26.6252  36.6071  42.1012 O.3            1 <1>                0.0000
     14 C14         26.6695  37.0004  39.7169 C.3            1 <1>                0.0000
     15 C15         27.3103  36.5336  38.4111 C.3            1 <1>                0.0000
     16 H16         31.9906  39.5212  34.3200 H              1 <1>                0.0000
     17 H17         31.1196  38.3328  33.3213 H              1 <1>                0.0000
     18 H18         30.2423  39.2774  34.5486 H              1 <1>                0.0000
     19 H19         30.6676  36.9671  35.3414 H              1 <1>                0.0000
     20 H20         33.6019  37.7457  35.0245 H              1 <1>                0.0000
     21 H21         33.0012  36.2386  35.7564 H              1 <1>                0.0000
     22 H22         32.7296  36.5577  34.0265 H              1 <1>                0.0000
     23 H23         32.6102  38.5527  36.9701 H              1 <1>                0.0000
     24 H24         30.9935  39.2651  36.7528 H              1 <1>                0.0000
     25 H25         31.2485  37.7315  38.7809 H              1 <1>                0.0000
     26 H26         29.3024  34.8692  39.5835 H              1 <1>                0.0000
     27 H27         30.4790  36.2035  39.6952 H              1 <1>                0.0000
     28 H28         29.1597  35.8692  41.8165 H              1 <1>                0.0000
     29 H29         28.9497  37.4902  41.1102 H              1 <1>                0.0000
     30 H30         27.0511  35.1319  40.7191 H              1 <1>                0.0000
     31 H31         25.5909  36.8511  39.6680 H              1 <1>                0.0000
     32 H32         26.8845  38.0584  39.8669 H              1 <1>                0.0000
     33 H33         26.9779  37.1719  37.5925 H              1 <1>                0.0000
     34 H34         27.0234  35.5011  38.2119 H              1 <1>                0.0000
     35 H35         30.8483  35.3498  37.5597 H              1 <1>                0.0000
     36 H36         32.0898  36.0205  36.7091 H              1 <1>                0.0000
     37 H37         32.2167  35.8316  38.3409 H              1 <1>                0.0000
     38 H38         26.5131  35.8965  42.7473 H              1 <1>                0.0000
@<TRIPOS>BOND
    1    1    2 1     
    2    1   16 1     
    3    1   17 1     
    4    1   18 1     
    5    2    3 1     
    6    2    4 1     
    7    2   19 1     
    8    3   20 1     
    9    3   21 1     
   10    3   22 1     
   11    4    5 1     
   12    4   23 1     
   13    4   24 1     
   14    5    6 1     
   15    5    7 1     
   16    5   25 1     
   17    6   35 1     
   18    6   36 1     
   19    6   37 1     
   20    7    8 2     
   21    7    9 am    
   22    9   10 1     
   23    9   15 1     
   24   10   11 1     
   25   10   26 1     
   26   10   27 1     
   27   11   12 1     
   28   11   28 1     
   29   11   29 1     
   30   12   13 1     
   31   12   14 1     
   32   12   30 1     
   33   13   38 1     
   34   14   15 1     
   35   14   31 1     
   36   14   32 1     
   37   15   33 1     
   38   15   34 1     
@<TRIPOS>SUBSTRUCTURE
      1 ****           1
@<TRIPOS>SET
DONOR_HYDROGENS      STATIC     ATOMS    <user>   **** ""
4 35 36 37 38
ATOM$RED        STATIC     ATOMS    COLORGROUP SYSTEM
4 35 36 37 38
@<TRIPOS>COMMENT
> <Gold.Version>
2022.2.0

> <Gold.Id.Protein>
1qkm|1qkm_protein|mol2

> <Gold.Protein.RotatedTorsions>
[  496  491  490  487 ] final -170.09 input  -89.99 | X-H torsion

> <Gold.Protein.ActiveResidues>
 MET295  LEU298  THR299  LEU301  ALA302  GLU305  TRP335  MET336  LEU339  MET340 
 GLY342  LEU343  ARG346  PHE356  ILE373  ILE376  PHE377  LEU380  LYS471  GLY472 
 MET473  HIS475  LEU476  LEU477  ASN478  MET479  VAL484  VAL487 

> <Gold.Protein.RotatedAtoms>
   37.3045   33.6076   40.7963 H   0  0  0  0  0  0  0  0  0  0  0  0  # atno 496  bound_to 491 

> <Gold.Score>
     Score     S(PLP)   S(hbond)     S(cho)   S(metal)  DE(clash)   DE(tors)     intcor
     50.34     -48.60       1.00       0.00       0.00       0.00       0.63       0.01

> <Gold.PLP.Fitness>
50.3403

> <Gold.PLP.PLP>
-48.5970

> <Gold.PLP.part.hbond>
-1.0000

> <Gold.PLP.part.metal>
0.0000

> <Gold.PLP.part.buried>
-4.6247

> <Gold.PLP.part.nonpolar>
-43.5067

> <Gold.PLP.part.repulsive>
0.0036

> <Gold.PLP.ligand.clash>
0.0000

> <Gold.PLP.ligand.torsion>
0.6347

> <Gold.PLP.Chemscore.Hbond>
1.0000

> <Gold.PLP.Chemscore.CHOScore>
0.0000

> <Gold.PLP.Chemscore.Metal>
0.0000

> <Gold.Chemscore.Hbonds>
donor molecule, donor type, donor heavy atom, donor atom, acceptor molecule, acceptor atom, score
      L1  H    13    38       P1   582  1.00

> <Gold.PLP.Chemscore.Internal.Correction>
0.0128

