#       Name:                EN300-64604_i001
#       Creating user name   aseyller
#       Creation time:       Fri Apr 21 15:36:19 2023


#       File generated by GOLD software.
#

@<TRIPOS>MOLECULE
EN300-64604_i001|amine_1|mol2|960|dock4
    38    38     1
SMALL
USER_CHARGES


@<TRIPOS>ATOM
      1 C1          32.2270  36.4231  36.2021 C.3            1 <1>                0.0000
      2 C2          31.4201  37.6570  35.7934 C.3            1 <1>                0.0000
      3 C3          31.9006  38.1512  34.4274 C.3            1 <1>                0.0000
      4 C4          29.9366  37.2920  35.7108 C.3            1 <1>                0.0000
      5 C5          29.1954  37.8965  36.9048 C.3            1 <1>                0.0000
      6 N6          29.5829  39.3051  37.0598 N.4            1 <1>                1.0000
      7 C7          29.5538  37.1365  38.1558 C.2            1 <1>                0.0000
      8 O8          30.7144  37.0368  38.4933 O.2            1 <1>                0.0000
      9 N9          28.5844  36.5675  38.8995 N.am           1 <1>                0.0000
     10 C10         28.9182  35.8233  40.1218 C.3            1 <1>                0.0000
     11 C11         28.0983  36.3917  41.2844 C.3            1 <1>                0.0000
     12 C12         26.6129  36.3639  40.9174 C.3            1 <1>                0.0000
     13 O13         25.8426  36.8635  42.0125 O.3            1 <1>                0.0000
     14 C14         26.3736  37.2388  39.6847 C.3            1 <1>                0.0000
     15 C15         27.1735  36.6848  38.5069 C.3            1 <1>                0.0000
     16 H16         32.0866  35.6355  35.4617 H              1 <1>                0.0000
     17 H17         33.2840  36.6829  36.2601 H              1 <1>                0.0000
     18 H18         31.8854  36.0716  37.1756 H              1 <1>                0.0000
     19 H19         31.5599  38.4442  36.5343 H              1 <1>                0.0000
     20 H20         31.7609  37.3639  33.6865 H              1 <1>                0.0000
     21 H21         31.3258  39.0302  34.1362 H              1 <1>                0.0000
     22 H22         32.9575  38.4112  34.4863 H              1 <1>                0.0000
     23 H23         29.5165  37.6857  34.7852 H              1 <1>                0.0000
     24 H24         29.8279  36.2075  35.7267 H              1 <1>                0.0000
     25 H25         28.1205  37.8320  36.7358 H              1 <1>                0.0000
     26 H26         28.6765  34.7693  39.9852 H              1 <1>                0.0000
     27 H27         29.9812  35.9318  40.3368 H              1 <1>                0.0000
     28 H28         28.2642  35.7872  42.1762 H              1 <1>                0.0000
     29 H29         28.4060  37.4192  41.4784 H              1 <1>                0.0000
     30 H30         26.3118  35.3392  40.6992 H              1 <1>                0.0000
     31 H31         25.3120  37.2372  39.4379 H              1 <1>                0.0000
     32 H32         26.6976  38.2583  39.8938 H              1 <1>                0.0000
     33 H33         27.0847  37.3595  37.6555 H              1 <1>                0.0000
     34 H34         26.7918  35.7002  38.2370 H              1 <1>                0.0000
     35 H35         30.5856  39.3883  36.9837 H              1 <1>                0.0000
     36 H36         29.1439  39.8560  36.3374 H              1 <1>                0.0000
     37 H37         29.2854  39.6383  37.9645 H              1 <1>                0.0000
     38 H38         25.5935  36.1884  42.6585 H              1 <1>                0.0000
@<TRIPOS>BOND
    1    1    2 1     
    2    1   16 1     
    3    1   17 1     
    4    1   18 1     
    5    2    3 1     
    6    2    4 1     
    7    2   19 1     
    8    3   20 1     
    9    3   21 1     
   10    3   22 1     
   11    4    5 1     
   12    4   23 1     
   13    4   24 1     
   14    5    6 1     
   15    5    7 1     
   16    5   25 1     
   17    6   35 1     
   18    6   36 1     
   19    6   37 1     
   20    7    8 2     
   21    7    9 am    
   22    9   10 1     
   23    9   15 1     
   24   10   11 1     
   25   10   26 1     
   26   10   27 1     
   27   11   12 1     
   28   11   28 1     
   29   11   29 1     
   30   12   13 1     
   31   12   14 1     
   32   12   30 1     
   33   13   38 1     
   34   14   15 1     
   35   14   31 1     
   36   14   32 1     
   37   15   33 1     
   38   15   34 1     
@<TRIPOS>SUBSTRUCTURE
      1 ****           1
@<TRIPOS>SET
DONOR_HYDROGENS      STATIC     ATOMS    <user>   **** ""
4 35 36 37 38
ATOM$RED        STATIC     ATOMS    COLORGROUP SYSTEM
4 35 36 37 38
@<TRIPOS>COMMENT
> <Gold.Version>
2022.2.0

> <Gold.Id.Protein>
1qkm|1qkm_protein|mol2

> <Gold.Protein.RotatedTorsions>
[  496  491  490  487 ] final -178.68 input  -89.99 | X-H torsion

> <Gold.Protein.ActiveResidues>
 MET295  LEU298  THR299  LEU301  ALA302  GLU305  TRP335  MET336  LEU339  MET340 
 GLY342  LEU343  ARG346  PHE356  ILE373  ILE376  PHE377  LEU380  LYS471  GLY472 
 MET473  HIS475  LEU476  LEU477  ASN478  MET479  VAL484  VAL487 

> <Gold.Protein.RotatedAtoms>
   37.3170   33.4805   40.8567 H   0  0  0  0  0  0  0  0  0  0  0  0  # atno 496  bound_to 491 

> <Gold.Score>
     Score     S(PLP)   S(hbond)     S(cho)   S(metal)  DE(clash)   DE(tors)     intcor
     52.24     -50.74       1.00       0.00       0.00       0.00       0.76       0.02

> <Gold.PLP.Fitness>
52.2363

> <Gold.PLP.PLP>
-50.7362

> <Gold.PLP.part.hbond>
-1.8622

> <Gold.PLP.part.metal>
0.0000

> <Gold.PLP.part.buried>
-4.7409

> <Gold.PLP.part.nonpolar>
-44.4947

> <Gold.PLP.part.repulsive>
0.0406

> <Gold.PLP.ligand.clash>
0.0000

> <Gold.PLP.ligand.torsion>
0.7581

> <Gold.PLP.Chemscore.Hbond>
1.0000

> <Gold.PLP.Chemscore.CHOScore>
0.0000

> <Gold.PLP.Chemscore.Metal>
0.0000

> <Gold.Chemscore.Hbonds>
donor molecule, donor type, donor heavy atom, donor atom, acceptor molecule, acceptor atom, score
      L1  H    13    38       P1   582  1.00

> <Gold.PLP.Chemscore.Internal.Correction>
0.0162

