#       Name:                EN300-64604_i001
#       Creating user name   aseyller
#       Creation time:       Fri Apr 21 15:36:39 2023


#       File generated by GOLD software.
#

@<TRIPOS>MOLECULE
EN300-64604_i001|amine_1|mol2|960|dock19
    38    38     1
SMALL
USER_CHARGES


@<TRIPOS>ATOM
      1 C1          25.6289  36.8457  40.2351 C.3            1 <1>                0.0000
      2 C2          27.1243  36.6925  39.9505 C.3            1 <1>                0.0000
      3 C3          27.4824  35.2062  39.8903 C.3            1 <1>                0.0000
      4 C4          27.4589  37.3524  38.6113 C.3            1 <1>                0.0000
      5 C5          28.9623  37.2422  38.3499 C.3            1 <1>                0.0000
      6 N6          29.6985  37.5784  39.5759 N.4            1 <1>                1.0000
      7 C7          29.3526  38.1976  37.2517 C.2            1 <1>                0.0000
      8 O8          28.5378  38.9802  36.8107 O.2            1 <1>                0.0000
      9 N9          30.6072  38.1822  36.7596 N.am           1 <1>                0.0000
     10 C10         31.6053  37.2398  37.2837 C.3            1 <1>                0.0000
     11 C11         32.2014  36.4514  36.1133 C.3            1 <1>                0.0000
     12 C12         32.7471  37.4293  35.0701 C.3            1 <1>                0.0000
     13 O13         33.3329  36.6971  33.9918 O.3            1 <1>                0.0000
     14 C14         31.6057  38.2977  34.5361 C.3            1 <1>                0.0000
     15 C15         31.0012  39.1031  35.6848 C.3            1 <1>                0.0000
     16 H16         25.0568  36.3668  39.4404 H              1 <1>                0.0000
     17 H17         25.3904  36.3748  41.1888 H              1 <1>                0.0000
     18 H18         25.3739  37.9045  40.2789 H              1 <1>                0.0000
     19 H19         27.6963  37.1722  40.7448 H              1 <1>                0.0000
     20 H20         26.9104  34.7266  39.0960 H              1 <1>                0.0000
     21 H21         28.5477  35.0971  39.6876 H              1 <1>                0.0000
     22 H22         27.2441  34.7362  40.8444 H              1 <1>                0.0000
     23 H23         26.9134  36.8500  37.8124 H              1 <1>                0.0000
     24 H24         27.1715  38.4034  38.6422 H              1 <1>                0.0000
     25 H25         29.2049  36.2233  38.0483 H              1 <1>                0.0000
     26 H26         32.3957  37.7907  37.7934 H              1 <1>                0.0000
     27 H27         31.1276  36.5523  37.9817 H              1 <1>                0.0000
     28 H28         33.0106  35.8176  36.4761 H              1 <1>                0.0000
     29 H29         31.4277  35.8311  35.6608 H              1 <1>                0.0000
     30 H30         33.5031  38.0660  35.5297 H              1 <1>                0.0000
     31 H31         31.9908  38.9779  33.7764 H              1 <1>                0.0000
     32 H32         30.8375  37.6600  34.0985 H              1 <1>                0.0000
     33 H33         30.1262  39.6469  35.3289 H              1 <1>                0.0000
     34 H34         31.7410  39.8066  36.0667 H              1 <1>                0.0000
     35 H35         30.6468  37.8298  39.3404 H              1 <1>                0.0000
     36 H36         29.2488  38.3559  40.0356 H              1 <1>                0.0000
     37 H37         29.7053  36.7807  40.1936 H              1 <1>                0.0000
     38 H38         32.7118  36.4727  33.2855 H              1 <1>                0.0000
@<TRIPOS>BOND
    1    1    2 1     
    2    1   16 1     
    3    1   17 1     
    4    1   18 1     
    5    2    3 1     
    6    2    4 1     
    7    2   19 1     
    8    3   20 1     
    9    3   21 1     
   10    3   22 1     
   11    4    5 1     
   12    4   23 1     
   13    4   24 1     
   14    5    6 1     
   15    5    7 1     
   16    5   25 1     
   17    6   35 1     
   18    6   36 1     
   19    6   37 1     
   20    7    8 2     
   21    7    9 am    
   22    9   10 1     
   23    9   15 1     
   24   10   11 1     
   25   10   26 1     
   26   10   27 1     
   27   11   12 1     
   28   11   28 1     
   29   11   29 1     
   30   12   13 1     
   31   12   14 1     
   32   12   30 1     
   33   13   38 1     
   34   14   15 1     
   35   14   31 1     
   36   14   32 1     
   37   15   33 1     
   38   15   34 1     
@<TRIPOS>SUBSTRUCTURE
      1 ****           1
@<TRIPOS>SET
DONOR_HYDROGENS      STATIC     ATOMS    <user>   **** ""
4 35 36 37 38
ATOM$RED        STATIC     ATOMS    COLORGROUP SYSTEM
4 35 36 37 38
@<TRIPOS>COMMENT
> <Gold.Version>
2022.2.0

> <Gold.Id.Protein>
1qkm|1qkm_protein|mol2

> <Gold.Protein.RotatedTorsions>
[  496  491  490  487 ] final  -42.43 input  -89.99 | X-H torsion

> <Gold.Protein.ActiveResidues>
 MET295  LEU298  THR299  LEU301  ALA302  GLU305  TRP335  MET336  LEU339  MET340 
 GLY342  LEU343  ARG346  PHE356  ILE373  ILE376  PHE377  LEU380  LYS471  GLY472 
 MET473  HIS475  LEU476  LEU477  ASN478  MET479  VAL484  VAL487 

> <Gold.Protein.RotatedAtoms>
   36.3770   34.6655   41.7381 H   0  0  0  0  0  0  0  0  0  0  0  0  # atno 496  bound_to 491 

> <Gold.Score>
     Score     S(PLP)   S(hbond)     S(cho)   S(metal)  DE(clash)   DE(tors)     intcor
     49.32     -46.79       1.00       0.00       0.00       0.07       0.20       0.01

> <Gold.PLP.Fitness>
49.3224

> <Gold.PLP.PLP>
-46.7939

> <Gold.PLP.part.hbond>
-2.7027

> <Gold.PLP.part.metal>
0.0000

> <Gold.PLP.part.buried>
-2.2646

> <Gold.PLP.part.nonpolar>
-41.6685

> <Gold.PLP.part.repulsive>
0.0000

> <Gold.PLP.ligand.clash>
0.0729

> <Gold.PLP.ligand.torsion>
0.2025

> <Gold.PLP.Chemscore.Hbond>
1.0000

> <Gold.PLP.Chemscore.CHOScore>
0.0000

> <Gold.PLP.Chemscore.Metal>
0.0000

> <Gold.Chemscore.Hbonds>
donor molecule, donor type, donor heavy atom, donor atom, acceptor molecule, acceptor atom, score
      L1  H    13    38       P1  3187  1.00

> <Gold.PLP.Chemscore.Internal.Correction>
0.0064

