#       Name:                EN300-64604_i001
#       Creating user name   aseyller
#       Creation time:       Fri Apr 21 15:36:33 2023


#       File generated by GOLD software.
#

@<TRIPOS>MOLECULE
EN300-64604_i001|amine_1|mol2|960|dock15
    38    38     1
SMALL
USER_CHARGES


@<TRIPOS>ATOM
      1 C1          31.4538  37.2810  35.9544 C.3            1 <1>                0.0000
      2 C2          31.5797  36.0442  36.8462 C.3            1 <1>                0.0000
      3 C3          32.8691  35.2961  36.5018 C.3            1 <1>                0.0000
      4 C4          31.6166  36.4753  38.3138 C.3            1 <1>                0.0000
      5 C5          30.4060  35.8940  39.0467 C.3            1 <1>                0.0000
      6 N6          30.2927  34.4607  38.7452 N.4            1 <1>                1.0000
      7 C7          29.1560  36.6030  38.5928 C.2            1 <1>                0.0000
      8 O8          28.9812  36.8294  37.4142 O.2            1 <1>                0.0000
      9 N9          28.2324  36.9854  39.4968 N.am           1 <1>                0.0000
     10 C10         27.0086  37.6776  39.0696 C.3            1 <1>                0.0000
     11 C11         25.7964  36.9251  39.6274 C.3            1 <1>                0.0000
     12 C12         25.9420  36.7843  41.1443 C.3            1 <1>                0.0000
     13 O13         24.7973  36.1111  41.6720 O.3            1 <1>                0.0000
     14 C14         27.2015  35.9761  41.4648 C.3            1 <1>                0.0000
     15 C15         28.4271  36.7128  40.9273 C.3            1 <1>                0.0000
     16 H16         32.3087  37.9367  36.1198 H              1 <1>                0.0000
     17 H17         31.4284  36.9740  34.9088 H              1 <1>                0.0000
     18 H18         30.5348  37.8135  36.1991 H              1 <1>                0.0000
     19 H19         30.7243  35.3890  36.6814 H              1 <1>                0.0000
     20 H20         33.7244  35.9513  36.6665 H              1 <1>                0.0000
     21 H21         32.9587  34.4150  37.1371 H              1 <1>                0.0000
     22 H22         32.8427  34.9890  35.4562 H              1 <1>                0.0000
     23 H23         32.5325  36.1084  38.7772 H              1 <1>                0.0000
     24 H24         31.5897  37.5633  38.3737 H              1 <1>                0.0000
     25 H25         30.5315  36.0305  40.1207 H              1 <1>                0.0000
     26 H26         27.0133  38.6979  39.4528 H              1 <1>                0.0000
     27 H27         26.9592  37.6941  37.9809 H              1 <1>                0.0000
     28 H28         24.8868  37.4807  39.3992 H              1 <1>                0.0000
     29 H29         25.7422  35.9354  39.1737 H              1 <1>                0.0000
     30 H30         26.0213  37.7737  41.5949 H              1 <1>                0.0000
     31 H31         27.2920  35.8563  42.5444 H              1 <1>                0.0000
     32 H32         27.1341  34.9954  40.9937 H              1 <1>                0.0000
     33 H33         29.3144  36.0950  41.0652 H              1 <1>                0.0000
     34 H34         28.5493  37.6558  41.4601 H              1 <1>                0.0000
     35 H35         30.1954  34.3332  37.7491 H              1 <1>                0.0000
     36 H36         31.1216  33.9831  39.0660 H              1 <1>                0.0000
     37 H37         29.4836  34.0813  39.2136 H              1 <1>                0.0000
     38 H38         24.1524  35.8472  41.0015 H              1 <1>                0.0000
@<TRIPOS>BOND
    1    1    2 1     
    2    1   16 1     
    3    1   17 1     
    4    1   18 1     
    5    2    3 1     
    6    2    4 1     
    7    2   19 1     
    8    3   20 1     
    9    3   21 1     
   10    3   22 1     
   11    4    5 1     
   12    4   23 1     
   13    4   24 1     
   14    5    6 1     
   15    5    7 1     
   16    5   25 1     
   17    6   35 1     
   18    6   36 1     
   19    6   37 1     
   20    7    8 2     
   21    7    9 am    
   22    9   10 1     
   23    9   15 1     
   24   10   11 1     
   25   10   26 1     
   26   10   27 1     
   27   11   12 1     
   28   11   28 1     
   29   11   29 1     
   30   12   13 1     
   31   12   14 1     
   32   12   30 1     
   33   13   38 1     
   34   14   15 1     
   35   14   31 1     
   36   14   32 1     
   37   15   33 1     
   38   15   34 1     
@<TRIPOS>SUBSTRUCTURE
      1 ****           1
@<TRIPOS>SET
DONOR_HYDROGENS      STATIC     ATOMS    <user>   **** ""
4 35 36 37 38
ATOM$RED        STATIC     ATOMS    COLORGROUP SYSTEM
4 35 36 37 38
@<TRIPOS>COMMENT
> <Gold.Version>
2022.2.0

> <Gold.Id.Protein>
1qkm|1qkm_protein|mol2

> <Gold.Protein.RotatedTorsions>
[  496  491  490  487 ] final  -87.72 input  -89.99 | X-H torsion

> <Gold.Protein.ActiveResidues>
 MET295  LEU298  THR299  LEU301  ALA302  GLU305  TRP335  MET336  LEU339  MET340 
 GLY342  LEU343  ARG346  PHE356  ILE373  ILE376  PHE377  LEU380  LYS471  GLY472 
 MET473  HIS475  LEU476  LEU477  ASN478  MET479  VAL484  VAL487 

> <Gold.Protein.RotatedAtoms>
   36.7363   34.6676   41.1069 H   0  0  0  0  0  0  0  0  0  0  0  0  # atno 496  bound_to 491 

> <Gold.Score>
     Score     S(PLP)   S(hbond)     S(cho)   S(metal)  DE(clash)   DE(tors)     intcor
     49.55     -46.51       1.83       0.00       0.00       0.00       1.23       0.01

> <Gold.PLP.Fitness>
49.5513

> <Gold.PLP.PLP>
-46.5084

> <Gold.PLP.part.hbond>
-3.0000

> <Gold.PLP.part.metal>
0.0000

> <Gold.PLP.part.buried>
-2.5702

> <Gold.PLP.part.nonpolar>
-40.1877

> <Gold.PLP.part.repulsive>
0.0077

> <Gold.PLP.ligand.clash>
0.0000

> <Gold.PLP.ligand.torsion>
1.2266

> <Gold.PLP.Chemscore.Hbond>
1.8299

> <Gold.PLP.Chemscore.CHOScore>
0.0000

> <Gold.PLP.Chemscore.Metal>
0.0000

> <Gold.Chemscore.Hbonds>
donor molecule, donor type, donor heavy atom, donor atom, acceptor molecule, acceptor atom, score
      L1  H    13    38       P1  1131  1.00
      P1  H  1258  1270       L1    13  0.83

> <Gold.PLP.Chemscore.Internal.Correction>
0.0064

