#       Name:                EN300-64604_i001
#       Creating user name   aseyller
#       Creation time:       Fri Apr 21 15:36:21 2023


#       File generated by GOLD software.
#

@<TRIPOS>MOLECULE
EN300-64604_i001|amine_1|mol2|960|dock6
    38    38     1
SMALL
USER_CHARGES


@<TRIPOS>ATOM
      1 C1          30.4496  40.3423  35.7258 C.3            1 <1>                0.0000
      2 C2          30.3875  38.8666  35.3269 C.3            1 <1>                0.0000
      3 C3          31.4888  38.5667  34.3080 C.3            1 <1>                0.0000
      4 C4          30.5892  37.9940  36.5675 C.3            1 <1>                0.0000
      5 C5          29.2275  37.6355  37.1657 C.3            1 <1>                0.0000
      6 N6          28.4891  38.8671  37.4756 N.4            1 <1>                1.0000
      7 C7          29.4278  36.8387  38.4291 C.2            1 <1>                0.0000
      8 O8          30.5438  36.6845  38.8782 O.2            1 <1>                0.0000
      9 N9          28.3668  36.2975  39.0598 N.am           1 <1>                0.0000
     10 C10         28.5461  35.5181  40.2924 C.3            1 <1>                0.0000
     11 C11         27.6370  36.0993  41.3798 C.3            1 <1>                0.0000
     12 C12         26.1960  36.1403  40.8662 C.3            1 <1>                0.0000
     13 O13         25.3401  36.6519  41.8898 O.3            1 <1>                0.0000
     14 C14         26.1168  37.0465  39.6354 C.3            1 <1>                0.0000
     15 C15         27.0082  36.4808  38.5312 C.3            1 <1>                0.0000
     16 H16         31.4219  40.5584  36.1686 H              1 <1>                0.0000
     17 H17         30.3068  40.9639  34.8419 H              1 <1>                0.0000
     18 H18         29.6645  40.5561  36.4510 H              1 <1>                0.0000
     19 H19         29.4149  38.6503  34.8849 H              1 <1>                0.0000
     20 H20         32.4614  38.7830  34.7500 H              1 <1>                0.0000
     21 H21         31.4445  37.5154  34.0239 H              1 <1>                0.0000
     22 H22         31.3450  39.1884  33.4242 H              1 <1>                0.0000
     23 H23         31.1149  37.0810  36.2879 H              1 <1>                0.0000
     24 H24         31.1772  38.5408  37.3045 H              1 <1>                0.0000
     25 H25         28.6601  37.0426  36.4483 H              1 <1>                0.0000
     26 H26         28.2776  34.4778  40.1092 H              1 <1>                0.0000
     27 H27         29.5857  35.5781  40.6147 H              1 <1>                0.0000
     28 H28         27.6882  35.4724  42.2701 H              1 <1>                0.0000
     29 H29         27.9643  37.1094  41.6262 H              1 <1>                0.0000
     30 H30         25.8777  35.1333  40.5965 H              1 <1>                0.0000
     31 H31         25.0861  37.0938  39.2841 H              1 <1>                0.0000
     32 H32         26.4585  38.0476  39.8982 H              1 <1>                0.0000
     33 H33         27.0324  37.1738  37.6903 H              1 <1>                0.0000
     34 H34         26.6167  35.5180  38.2029 H              1 <1>                0.0000
     35 H35         28.6386  39.1147  38.4422 H              1 <1>                0.0000
     36 H36         28.8175  39.6143  36.8824 H              1 <1>                0.0000
     37 H37         27.5042  38.7183  37.3149 H              1 <1>                0.0000
     38 H38         25.3213  36.1130  42.6925 H              1 <1>                0.0000
@<TRIPOS>BOND
    1    1    2 1     
    2    1   16 1     
    3    1   17 1     
    4    1   18 1     
    5    2    3 1     
    6    2    4 1     
    7    2   19 1     
    8    3   20 1     
    9    3   21 1     
   10    3   22 1     
   11    4    5 1     
   12    4   23 1     
   13    4   24 1     
   14    5    6 1     
   15    5    7 1     
   16    5   25 1     
   17    6   35 1     
   18    6   36 1     
   19    6   37 1     
   20    7    8 2     
   21    7    9 am    
   22    9   10 1     
   23    9   15 1     
   24   10   11 1     
   25   10   26 1     
   26   10   27 1     
   27   11   12 1     
   28   11   28 1     
   29   11   29 1     
   30   12   13 1     
   31   12   14 1     
   32   12   30 1     
   33   13   38 1     
   34   14   15 1     
   35   14   31 1     
   36   14   32 1     
   37   15   33 1     
   38   15   34 1     
@<TRIPOS>SUBSTRUCTURE
      1 ****           1
@<TRIPOS>SET
DONOR_HYDROGENS      STATIC     ATOMS    <user>   **** ""
4 35 36 37 38
ATOM$RED        STATIC     ATOMS    COLORGROUP SYSTEM
4 35 36 37 38
@<TRIPOS>COMMENT
> <Gold.Version>
2022.2.0

> <Gold.Id.Protein>
1qkm|1qkm_protein|mol2

> <Gold.Protein.RotatedTorsions>
[  496  491  490  487 ] final -109.84 input  -89.99 | X-H torsion

> <Gold.Protein.ActiveResidues>
 MET295  LEU298  THR299  LEU301  ALA302  GLU305  TRP335  MET336  LEU339  MET340 
 GLY342  LEU343  ARG346  PHE356  ILE373  ILE376  PHE377  LEU380  LYS471  GLY472 
 MET473  HIS475  LEU476  LEU477  ASN478  MET479  VAL484  VAL487 

> <Gold.Protein.RotatedAtoms>
   36.9387   34.4773   40.8751 H   0  0  0  0  0  0  0  0  0  0  0  0  # atno 496  bound_to 491 

> <Gold.Score>
     Score     S(PLP)   S(hbond)     S(cho)   S(metal)  DE(clash)   DE(tors)     intcor
     51.76     -49.80       1.00       0.00       0.00       0.00       0.53       0.01

> <Gold.PLP.Fitness>
51.7558

> <Gold.PLP.PLP>
-49.7992

> <Gold.PLP.part.hbond>
-2.0000

> <Gold.PLP.part.metal>
0.0000

> <Gold.PLP.part.buried>
-1.8597

> <Gold.PLP.part.nonpolar>
-47.0443

> <Gold.PLP.part.repulsive>
0.0643

> <Gold.PLP.ligand.clash>
0.0000

> <Gold.PLP.ligand.torsion>
0.5281

> <Gold.PLP.Chemscore.Hbond>
1.0000

> <Gold.PLP.Chemscore.CHOScore>
0.0000

> <Gold.PLP.Chemscore.Metal>
0.0000

> <Gold.Chemscore.Hbonds>
donor molecule, donor type, donor heavy atom, donor atom, acceptor molecule, acceptor atom, score
      L1  H    13    38       P1   582  1.00

> <Gold.PLP.Chemscore.Internal.Correction>
0.0128

