#       Name:                EN300-64604_i001
#       Creating user name   aseyller
#       Creation time:       Fri Apr 21 15:36:28 2023


#       File generated by GOLD software.
#

@<TRIPOS>MOLECULE
EN300-64604_i001|amine_1|mol2|960|dock11
    38    38     1
SMALL
USER_CHARGES


@<TRIPOS>ATOM
      1 C1          26.0464  36.5836  38.9926 C.3            1 <1>                0.0000
      2 C2          27.1471  36.9982  39.9710 C.3            1 <1>                0.0000
      3 C3          26.6573  36.7946  41.4061 C.3            1 <1>                0.0000
      4 C4          28.3921  36.1420  39.7307 C.3            1 <1>                0.0000
      5 C5          29.2840  36.8197  38.6887 C.3            1 <1>                0.0000
      6 N6          28.5733  36.8861  37.4046 N.4            1 <1>                1.0000
      7 C7          30.5529  36.0245  38.5199 C.2            1 <1>                0.0000
      8 O8          30.6771  34.9549  39.0780 O.2            1 <1>                0.0000
      9 N9          31.5498  36.5020  37.7487 N.am           1 <1>                0.0000
     10 C10         32.7929  35.7382  37.5744 C.3            1 <1>                0.0000
     11 C11         33.0578  35.5627  36.0758 C.3            1 <1>                0.0000
     12 C12         33.0630  36.9351  35.3986 C.3            1 <1>                0.0000
     13 O13         33.3419  36.7777  34.0060 O.3            1 <1>                0.0000
     14 C14         31.6943  37.5971  35.5728 C.3            1 <1>                0.0000
     15 C15         31.4116  37.7931  37.0613 C.3            1 <1>                0.0000
     16 H16         25.8006  35.5328  39.1463 H              1 <1>                0.0000
     17 H17         25.1591  37.1930  39.1644 H              1 <1>                0.0000
     18 H18         26.3950  36.7294  37.9703 H              1 <1>                0.0000
     19 H19         27.3934  38.0488  39.8167 H              1 <1>                0.0000
     20 H20         26.4110  35.7441  41.5604 H              1 <1>                0.0000
     21 H21         27.4415  37.0901  42.1030 H              1 <1>                0.0000
     22 H22         25.7704  37.4047  41.5772 H              1 <1>                0.0000
     23 H23         28.9434  36.0323  40.6646 H              1 <1>                0.0000
     24 H24         28.0924  35.1587  39.3682 H              1 <1>                0.0000
     25 H25         29.5288  37.8285  39.0209 H              1 <1>                0.0000
     26 H26         33.6214  36.2797  38.0310 H              1 <1>                0.0000
     27 H27         32.6898  34.7602  38.0443 H              1 <1>                0.0000
     28 H28         34.0253  35.0820  35.9313 H              1 <1>                0.0000
     29 H29         32.2745  34.9439  35.6379 H              1 <1>                0.0000
     30 H30         33.8299  37.5618  35.8539 H              1 <1>                0.0000
     31 H31         31.6913  38.5644  35.0703 H              1 <1>                0.0000
     32 H32         30.9239  36.9592  35.1398 H              1 <1>                0.0000
     33 H33         30.3985  38.1725  37.1939 H              1 <1>                0.0000
     34 H34         32.1270  38.5016  37.4788 H              1 <1>                0.0000
     35 H35         27.9204  37.6551  37.4209 H              1 <1>                0.0000
     36 H36         29.2386  37.0255  36.6589 H              1 <1>                0.0000
     37 H37         28.0731  36.0232  37.2520 H              1 <1>                0.0000
     38 H38         33.8654  37.4964  33.6260 H              1 <1>                0.0000
@<TRIPOS>BOND
    1    1    2 1     
    2    1   16 1     
    3    1   17 1     
    4    1   18 1     
    5    2    3 1     
    6    2    4 1     
    7    2   19 1     
    8    3   20 1     
    9    3   21 1     
   10    3   22 1     
   11    4    5 1     
   12    4   23 1     
   13    4   24 1     
   14    5    6 1     
   15    5    7 1     
   16    5   25 1     
   17    6   35 1     
   18    6   36 1     
   19    6   37 1     
   20    7    8 2     
   21    7    9 am    
   22    9   10 1     
   23    9   15 1     
   24   10   11 1     
   25   10   26 1     
   26   10   27 1     
   27   11   12 1     
   28   11   28 1     
   29   11   29 1     
   30   12   13 1     
   31   12   14 1     
   32   12   30 1     
   33   13   38 1     
   34   14   15 1     
   35   14   31 1     
   36   14   32 1     
   37   15   33 1     
   38   15   34 1     
@<TRIPOS>SUBSTRUCTURE
      1 ****           1
@<TRIPOS>SET
DONOR_HYDROGENS      STATIC     ATOMS    <user>   **** ""
4 35 36 37 38
ATOM$RED        STATIC     ATOMS    COLORGROUP SYSTEM
4 35 36 37 38
@<TRIPOS>COMMENT
> <Gold.Version>
2022.2.0

> <Gold.Id.Protein>
1qkm|1qkm_protein|mol2

> <Gold.Protein.RotatedTorsions>
[  496  491  490  487 ] final  108.85 input  -89.99 | X-H torsion

> <Gold.Protein.ActiveResidues>
 MET295  LEU298  THR299  LEU301  ALA302  GLU305  TRP335  MET336  LEU339  MET340 
 GLY342  LEU343  ARG346  PHE356  ILE373  ILE376  PHE377  LEU380  LYS471  GLY472 
 MET473  HIS475  LEU476  LEU477  ASN478  MET479  VAL484  VAL487 

> <Gold.Protein.RotatedAtoms>
   36.9895   32.9442   41.7778 H   0  0  0  0  0  0  0  0  0  0  0  0  # atno 496  bound_to 491 

> <Gold.Score>
     Score     S(PLP)   S(hbond)     S(cho)   S(metal)  DE(clash)   DE(tors)     intcor
     51.09     -49.06       0.99       0.00       0.00       0.02       0.46       0.01

> <Gold.PLP.Fitness>
51.0925

> <Gold.PLP.PLP>
-49.0566

> <Gold.PLP.part.hbond>
-2.5308

> <Gold.PLP.part.metal>
0.0000

> <Gold.PLP.part.buried>
-5.2191

> <Gold.PLP.part.nonpolar>
-42.3122

> <Gold.PLP.part.repulsive>
0.0958

> <Gold.PLP.ligand.clash>
0.0248

> <Gold.PLP.ligand.torsion>
0.4597

> <Gold.PLP.Chemscore.Hbond>
0.9913

> <Gold.PLP.Chemscore.CHOScore>
0.0000

> <Gold.PLP.Chemscore.Metal>
0.0000

> <Gold.Chemscore.Hbonds>
donor molecule, donor type, donor heavy atom, donor atom, acceptor molecule, acceptor atom, score
      L1  H    13    38       P1  3229  0.99

> <Gold.PLP.Chemscore.Internal.Correction>
0.0064

