#       Name:                EN300-64604_i001
#       Creating user name   aseyller
#       Creation time:       Fri Apr 21 15:36:25 2023


#       File generated by GOLD software.
#

@<TRIPOS>MOLECULE
EN300-64604_i001|amine_1|mol2|960|dock9
    38    38     1
SMALL
USER_CHARGES


@<TRIPOS>ATOM
      1 C1          32.9899  37.7836  34.8533 C.3            1 <1>                0.0000
      2 C2          31.9285  36.9568  35.5818 C.3            1 <1>                0.0000
      3 C3          32.4377  35.5266  35.7719 C.3            1 <1>                0.0000
      4 C4          31.6438  37.5827  36.9486 C.3            1 <1>                0.0000
      5 C5          30.1359  37.5789  37.2072 C.3            1 <1>                0.0000
      6 N6          29.7140  38.9101  37.6637 N.4            1 <1>                1.0000
      7 C7          29.8105  36.5582  38.2670 C.2            1 <1>                0.0000
      8 O8          30.7047  36.0103  38.8762 O.2            1 <1>                0.0000
      9 N9          28.5257  36.2541  38.5378 N.am           1 <1>                0.0000
     10 C10         28.1926  35.2610  39.5682 C.3            1 <1>                0.0000
     11 C11         27.2130  35.8920  40.5627 C.3            1 <1>                0.0000
     12 C12         26.0027  36.4395  39.8029 C.3            1 <1>                0.0000
     13 O13         25.0718  37.0001  40.7309 O.3            1 <1>                0.0000
     14 C14         26.4605  37.5222  38.8229 C.3            1 <1>                0.0000
     15 C15         27.4315  36.9138  37.8125 C.3            1 <1>                0.0000
     16 H16         33.9059  37.8003  35.4438 H              1 <1>                0.0000
     17 H17         33.1933  37.3371  33.8799 H              1 <1>                0.0000
     18 H18         32.6267  38.8022  34.7171 H              1 <1>                0.0000
     19 H19         31.0122  36.9408  34.9916 H              1 <1>                0.0000
     20 H20         33.3540  35.5426  36.3621 H              1 <1>                0.0000
     21 H21         31.6816  34.9376  36.2909 H              1 <1>                0.0000
     22 H22         32.6405  35.0807  34.7982 H              1 <1>                0.0000
     23 H23         32.1470  37.0055  37.7244 H              1 <1>                0.0000
     24 H24         32.0123  38.6084  36.9623 H              1 <1>                0.0000
     25 H25         29.6100  37.3271  36.2864 H              1 <1>                0.0000
     26 H26         27.7301  34.3914  39.1015 H              1 <1>                0.0000
     27 H27         29.1000  34.9584  40.0910 H              1 <1>                0.0000
     28 H28         26.8833  35.1375  41.2770 H              1 <1>                0.0000
     29 H29         27.7074  36.7053  41.0941 H              1 <1>                0.0000
     30 H30         25.5235  35.6303  39.2517 H              1 <1>                0.0000
     31 H31         25.5952  37.9281  38.2989 H              1 <1>                0.0000
     32 H32         26.9620  38.3201  39.3706 H              1 <1>                0.0000
     33 H33         27.8357  37.7002  37.1752 H              1 <1>                0.0000
     34 H34         26.9092  36.1777  37.2015 H              1 <1>                0.0000
     35 H35         30.1657  39.1238  38.5402 H              1 <1>                0.0000
     36 H36         29.9738  39.5998  36.9746 H              1 <1>                0.0000
     37 H37         28.7130  38.9209  37.7895 H              1 <1>                0.0000
     38 H38         24.2012  36.5794  40.7174 H              1 <1>                0.0000
@<TRIPOS>BOND
    1    1    2 1     
    2    1   16 1     
    3    1   17 1     
    4    1   18 1     
    5    2    3 1     
    6    2    4 1     
    7    2   19 1     
    8    3   20 1     
    9    3   21 1     
   10    3   22 1     
   11    4    5 1     
   12    4   23 1     
   13    4   24 1     
   14    5    6 1     
   15    5    7 1     
   16    5   25 1     
   17    6   35 1     
   18    6   36 1     
   19    6   37 1     
   20    7    8 2     
   21    7    9 am    
   22    9   10 1     
   23    9   15 1     
   24   10   11 1     
   25   10   26 1     
   26   10   27 1     
   27   11   12 1     
   28   11   28 1     
   29   11   29 1     
   30   12   13 1     
   31   12   14 1     
   32   12   30 1     
   33   13   38 1     
   34   14   15 1     
   35   14   31 1     
   36   14   32 1     
   37   15   33 1     
   38   15   34 1     
@<TRIPOS>SUBSTRUCTURE
      1 ****           1
@<TRIPOS>SET
DONOR_HYDROGENS      STATIC     ATOMS    <user>   **** ""
4 35 36 37 38
ATOM$RED        STATIC     ATOMS    COLORGROUP SYSTEM
4 35 36 37 38
@<TRIPOS>COMMENT
> <Gold.Version>
2022.2.0

> <Gold.Id.Protein>
1qkm|1qkm_protein|mol2

> <Gold.Protein.RotatedTorsions>
[  496  491  490  487 ] final  -51.38 input  -89.99 | X-H torsion

> <Gold.Protein.ActiveResidues>
 MET295  LEU298  THR299  LEU301  ALA302  GLU305  TRP335  MET336  LEU339  MET340 
 GLY342  LEU343  ARG346  PHE356  ILE373  ILE376  PHE377  LEU380  LYS471  GLY472 
 MET473  HIS475  LEU476  LEU477  ASN478  MET479  VAL484  VAL487 

> <Gold.Protein.RotatedAtoms>
   36.4340   34.7096   41.6096 H   0  0  0  0  0  0  0  0  0  0  0  0  # atno 496  bound_to 491 

> <Gold.Score>
     Score     S(PLP)   S(hbond)     S(cho)   S(metal)  DE(clash)   DE(tors)     intcor
     47.74     -47.59       1.00       0.00       0.00       0.00       1.43       0.01

> <Gold.PLP.Fitness>
47.7370

> <Gold.PLP.PLP>
-47.5882

> <Gold.PLP.part.hbond>
-1.0000

> <Gold.PLP.part.metal>
0.0000

> <Gold.PLP.part.buried>
-4.0879

> <Gold.PLP.part.nonpolar>
-43.6781

> <Gold.PLP.part.repulsive>
0.0797

> <Gold.PLP.ligand.clash>
0.0000

> <Gold.PLP.ligand.torsion>
1.4288

> <Gold.PLP.Chemscore.Hbond>
1.0000

> <Gold.PLP.Chemscore.CHOScore>
0.0000

> <Gold.PLP.Chemscore.Metal>
0.0000

> <Gold.Chemscore.Hbonds>
donor molecule, donor type, donor heavy atom, donor atom, acceptor molecule, acceptor atom, score
      L1  H    13    38       P1  1131  1.00

> <Gold.PLP.Chemscore.Internal.Correction>
0.0064

