#       Name:                EN300-64604_i001
#       Creating user name   aseyller
#       Creation time:       Fri Apr 21 15:36:29 2023


#       File generated by GOLD software.
#

@<TRIPOS>MOLECULE
EN300-64604_i001|amine_1|mol2|960|dock12
    38    38     1
SMALL
USER_CHARGES


@<TRIPOS>ATOM
      1 C1          32.2017  38.1533  35.2557 C.3            1 <1>                0.0000
      2 C2          32.3218  36.8313  36.0164 C.3            1 <1>                0.0000
      3 C3          33.5959  36.1055  35.5797 C.3            1 <1>                0.0000
      4 C4          32.3840  37.1115  37.5192 C.3            1 <1>                0.0000
      5 C5          31.3793  36.2160  38.2470 C.3            1 <1>                0.0000
      6 N6          31.5981  34.8167  37.8568 N.4            1 <1>                1.0000
      7 C7          29.9781  36.6278  37.8754 C.2            1 <1>                0.0000
      8 O8          29.6584  36.7060  36.7081 O.2            1 <1>                0.0000
      9 N9          29.0803  36.9092  38.8404 N.am           1 <1>                0.0000
     10 C10         27.7104  37.3120  38.4939 C.3            1 <1>                0.0000
     11 C11         26.7264  36.3970  39.2296 C.3            1 <1>                0.0000
     12 C12         27.0304  36.4283  40.7291 C.3            1 <1>                0.0000
     13 O13         26.0939  35.6009  41.4221 O.3            1 <1>                0.0000
     14 C14         28.4489  35.9089  40.9748 C.3            1 <1>                0.0000
     15 C15         29.4509  36.8130  40.2588 C.3            1 <1>                0.0000
     16 H16         33.0678  38.7781  35.4739 H              1 <1>                0.0000
     17 H17         32.1583  37.9538  34.1850 H              1 <1>                0.0000
     18 H18         31.2936  38.6700  35.5661 H              1 <1>                0.0000
     19 H19         31.4552  36.2069  35.7988 H              1 <1>                0.0000
     20 H20         34.4625  36.7298  35.7973 H              1 <1>                0.0000
     21 H21         33.6814  35.1637  36.1216 H              1 <1>                0.0000
     22 H22         33.5515  35.9059  34.5091 H              1 <1>                0.0000
     23 H23         33.3889  36.9031  37.8864 H              1 <1>                0.0000
     24 H24         32.1392  38.1574  37.7043 H              1 <1>                0.0000
     25 H25         31.5147  36.3184  39.3236 H              1 <1>                0.0000
     26 H26         27.5455  38.3456  38.7980 H              1 <1>                0.0000
     27 H27         27.5628  37.2175  37.4181 H              1 <1>                0.0000
     28 H28         25.7078  36.7450  39.0576 H              1 <1>                0.0000
     29 H29         26.8306  35.3774  38.8584 H              1 <1>                0.0000
     30 H30         26.9505  37.4521  41.0946 H              1 <1>                0.0000
     31 H31         28.6564  35.9095  42.0448 H              1 <1>                0.0000
     32 H32         28.5369  34.8940  40.5871 H              1 <1>                0.0000
     33 H33         30.4521  36.3916  40.3484 H              1 <1>                0.0000
     34 H34         29.4294  37.8073  40.7048 H              1 <1>                0.0000
     35 H35         30.9456  34.2246  38.3484 H              1 <1>                0.0000
     36 H36         31.4575  34.7190  36.8625 H              1 <1>                0.0000
     37 H37         32.5412  34.5456  38.0914 H              1 <1>                0.0000
     38 H38         26.3837  35.3329  42.3049 H              1 <1>                0.0000
@<TRIPOS>BOND
    1    1    2 1     
    2    1   16 1     
    3    1   17 1     
    4    1   18 1     
    5    2    3 1     
    6    2    4 1     
    7    2   19 1     
    8    3   20 1     
    9    3   21 1     
   10    3   22 1     
   11    4    5 1     
   12    4   23 1     
   13    4   24 1     
   14    5    6 1     
   15    5    7 1     
   16    5   25 1     
   17    6   35 1     
   18    6   36 1     
   19    6   37 1     
   20    7    8 2     
   21    7    9 am    
   22    9   10 1     
   23    9   15 1     
   24   10   11 1     
   25   10   26 1     
   26   10   27 1     
   27   11   12 1     
   28   11   28 1     
   29   11   29 1     
   30   12   13 1     
   31   12   14 1     
   32   12   30 1     
   33   13   38 1     
   34   14   15 1     
   35   14   31 1     
   36   14   32 1     
   37   15   33 1     
   38   15   34 1     
@<TRIPOS>SUBSTRUCTURE
      1 ****           1
@<TRIPOS>SET
DONOR_HYDROGENS      STATIC     ATOMS    <user>   **** ""
4 35 36 37 38
ATOM$RED        STATIC     ATOMS    COLORGROUP SYSTEM
4 35 36 37 38
@<TRIPOS>COMMENT
> <Gold.Version>
2022.2.0

> <Gold.Id.Protein>
1qkm|1qkm_protein|mol2

> <Gold.Protein.RotatedTorsions>
[  496  491  490  487 ] final -162.78 input  -89.99 | X-H torsion

> <Gold.Protein.ActiveResidues>
 MET295  LEU298  THR299  LEU301  ALA302  GLU305  TRP335  MET336  LEU339  MET340 
 GLY342  LEU343  ARG346  PHE356  ILE373  ILE376  PHE377  LEU380  LYS471  GLY472 
 MET473  HIS475  LEU476  LEU477  ASN478  MET479  VAL484  VAL487 

> <Gold.Protein.RotatedAtoms>
   37.2848   33.7200   40.7582 H   0  0  0  0  0  0  0  0  0  0  0  0  # atno 496  bound_to 491 

> <Gold.Score>
     Score     S(PLP)   S(hbond)     S(cho)   S(metal)  DE(clash)   DE(tors)     intcor
     49.60     -48.24       0.99       0.00       0.00       0.00       0.81       0.01

> <Gold.PLP.Fitness>
49.5986

> <Gold.PLP.PLP>
-48.2378

> <Gold.PLP.part.hbond>
-1.0000

> <Gold.PLP.part.metal>
0.0000

> <Gold.PLP.part.buried>
-4.8064

> <Gold.PLP.part.nonpolar>
-43.0351

> <Gold.PLP.part.repulsive>
0.0203

> <Gold.PLP.ligand.clash>
0.0000

> <Gold.PLP.ligand.torsion>
0.8108

> <Gold.PLP.Chemscore.Hbond>
0.9920

> <Gold.PLP.Chemscore.CHOScore>
0.0000

> <Gold.PLP.Chemscore.Metal>
0.0000

> <Gold.Chemscore.Hbonds>
donor molecule, donor type, donor heavy atom, donor atom, acceptor molecule, acceptor atom, score
      L1  H    13    38       P1   582  0.99

> <Gold.PLP.Chemscore.Internal.Correction>
0.0064

