#       Name:                EN300-64604_i001
#       Creating user name   aseyller
#       Creation time:       Fri Apr 21 15:36:20 2023


#       File generated by GOLD software.
#

@<TRIPOS>MOLECULE
EN300-64604_i001|amine_1|mol2|960|dock5
    38    38     1
SMALL
USER_CHARGES


@<TRIPOS>ATOM
      1 C1          32.7019  36.7625  35.4366 C.3            1 <1>                0.0000
      2 C2          31.5851  36.3984  36.4169 C.3            1 <1>                0.0000
      3 C3          32.1733  35.6153  37.5923 C.3            1 <1>                0.0000
      4 C4          30.9248  37.6775  36.9357 C.3            1 <1>                0.0000
      5 C5          29.4765  37.3804  37.3291 C.3            1 <1>                0.0000
      6 N6          28.6931  38.6225  37.2878 N.4            1 <1>                1.0000
      7 C7          29.4415  36.8107  38.7239 C.2            1 <1>                0.0000
      8 O8          30.4522  36.7847  39.3938 O.2            1 <1>                0.0000
      9 N9          28.2871  36.3302  39.2267 N.am           1 <1>                0.0000
     10 C10         28.2372  35.7717  40.5848 C.3            1 <1>                0.0000
     11 C11         27.1268  36.4788  41.3682 C.3            1 <1>                0.0000
     12 C12         25.8114  36.3675  40.5940 C.3            1 <1>                0.0000
     13 O13         24.7666  36.9982  41.3375 O.3            1 <1>                0.0000
     14 C14         25.9573  37.0560  39.2351 C.3            1 <1>                0.0000
     15 C15         27.0533  36.3605  38.4295 C.3            1 <1>                0.0000
     16 H16         33.4459  37.3758  35.9450 H              1 <1>                0.0000
     17 H17         33.1729  35.8513  35.0677 H              1 <1>                0.0000
     18 H18         32.2828  37.3197  34.5988 H              1 <1>                0.0000
     19 H19         30.8406  35.7859  35.9083 H              1 <1>                0.0000
     20 H20         32.9177  36.2279  38.1009 H              1 <1>                0.0000
     21 H21         31.3776  35.3559  38.2906 H              1 <1>                0.0000
     22 H22         32.6436  34.7041  37.2227 H              1 <1>                0.0000
     23 H23         31.4706  38.0407  37.8065 H              1 <1>                0.0000
     24 H24         30.9405  38.4372  36.1542 H              1 <1>                0.0000
     25 H25         29.0510  36.6592  36.6313 H              1 <1>                0.0000
     26 H26         28.0247  34.7039  40.5331 H              1 <1>                0.0000
     27 H27         29.1940  35.9324  41.0814 H              1 <1>                0.0000
     28 H28         27.0148  36.0087  42.3453 H              1 <1>                0.0000
     29 H29         27.3852  37.5299  41.4972 H              1 <1>                0.0000
     30 H30         25.5663  35.3161  40.4437 H              1 <1>                0.0000
     31 H31         25.0131  36.9967  38.6938 H              1 <1>                0.0000
     32 H32         26.2269  38.1016  39.3841 H              1 <1>                0.0000
     33 H33         27.2287  36.9074  37.5032 H              1 <1>                0.0000
     34 H34         26.7470  35.3397  38.2012 H              1 <1>                0.0000
     35 H35         28.3364  38.8259  38.2094 H              1 <1>                0.0000
     36 H36         29.2824  39.3816  36.9803 H              1 <1>                0.0000
     37 H37         27.9228  38.5132  36.6454 H              1 <1>                0.0000
     38 H38         23.8797  36.8274  40.9921 H              1 <1>                0.0000
@<TRIPOS>BOND
    1    1    2 1     
    2    1   16 1     
    3    1   17 1     
    4    1   18 1     
    5    2    3 1     
    6    2    4 1     
    7    2   19 1     
    8    3   20 1     
    9    3   21 1     
   10    3   22 1     
   11    4    5 1     
   12    4   23 1     
   13    4   24 1     
   14    5    6 1     
   15    5    7 1     
   16    5   25 1     
   17    6   35 1     
   18    6   36 1     
   19    6   37 1     
   20    7    8 2     
   21    7    9 am    
   22    9   10 1     
   23    9   15 1     
   24   10   11 1     
   25   10   26 1     
   26   10   27 1     
   27   11   12 1     
   28   11   28 1     
   29   11   29 1     
   30   12   13 1     
   31   12   14 1     
   32   12   30 1     
   33   13   38 1     
   34   14   15 1     
   35   14   31 1     
   36   14   32 1     
   37   15   33 1     
   38   15   34 1     
@<TRIPOS>SUBSTRUCTURE
      1 ****           1
@<TRIPOS>SET
DONOR_HYDROGENS      STATIC     ATOMS    <user>   **** ""
4 35 36 37 38
ATOM$RED        STATIC     ATOMS    COLORGROUP SYSTEM
4 35 36 37 38
@<TRIPOS>COMMENT
> <Gold.Version>
2022.2.0

> <Gold.Id.Protein>
1qkm|1qkm_protein|mol2

> <Gold.Protein.RotatedTorsions>
[  496  491  490  487 ] final -178.16 input  -89.99 | X-H torsion

> <Gold.Protein.ActiveResidues>
 MET295  LEU298  THR299  LEU301  ALA302  GLU305  TRP335  MET336  LEU339  MET340 
 GLY342  LEU343  ARG346  PHE356  ILE373  ILE376  PHE377  LEU380  LYS471  GLY472 
 MET473  HIS475  LEU476  LEU477  ASN478  MET479  VAL484  VAL487 

> <Gold.Protein.RotatedAtoms>
   37.3166   33.4881   40.8526 H   0  0  0  0  0  0  0  0  0  0  0  0  # atno 496  bound_to 491 

> <Gold.Score>
     Score     S(PLP)   S(hbond)     S(cho)   S(metal)  DE(clash)   DE(tors)     intcor
     51.93     -50.30       0.99       0.00       0.00       0.00       0.68       0.01

> <Gold.PLP.Fitness>
51.9276

> <Gold.PLP.PLP>
-50.3002

> <Gold.PLP.part.hbond>
-2.0000

> <Gold.PLP.part.metal>
0.0000

> <Gold.PLP.part.buried>
-2.2249

> <Gold.PLP.part.nonpolar>
-46.3972

> <Gold.PLP.part.repulsive>
0.0832

> <Gold.PLP.ligand.clash>
0.0000

> <Gold.PLP.ligand.torsion>
0.6796

> <Gold.PLP.Chemscore.Hbond>
0.9913

> <Gold.PLP.Chemscore.CHOScore>
0.0000

> <Gold.PLP.Chemscore.Metal>
0.0000

> <Gold.Chemscore.Hbonds>
donor molecule, donor type, donor heavy atom, donor atom, acceptor molecule, acceptor atom, score
      L1  H    13    38       P1  1131  0.99

> <Gold.PLP.Chemscore.Internal.Correction>
0.0128

