#       Name:                EN300-64604_i001
#       Creating user name   aseyller
#       Creation time:       Fri Apr 21 15:36:15 2023


#       File generated by GOLD software.
#

@<TRIPOS>MOLECULE
EN300-64604_i001|amine_1|mol2|960|dock1
    38    38     1
SMALL
USER_CHARGES


@<TRIPOS>ATOM
      1 C1          25.9125  36.9412  39.0423 C.3            1 <1>                0.0000
      2 C2          27.2966  36.7868  39.6758 C.3            1 <1>                0.0000
      3 C3          27.1443  36.3482  41.1336 C.3            1 <1>                0.0000
      4 C4          28.0948  35.7322  38.9066 C.3            1 <1>                0.0000
      5 C5          29.5720  36.1297  38.8800 C.3            1 <1>                0.0000
      6 N6          30.0011  36.5103  40.2324 N.4            1 <1>                1.0000
      7 C7          29.7614  37.2969  37.9458 C.2            1 <1>                0.0000
      8 O8          28.8541  38.0808  37.7630 O.2            1 <1>                0.0000
      9 N9          30.9391  37.4697  37.3136 N.am           1 <1>                0.0000
     10 C10         32.0474  36.5285  37.5251 C.3            1 <1>                0.0000
     11 C11         32.5258  36.0161  36.1630 C.3            1 <1>                0.0000
     12 C12         32.8750  37.2075  35.2682 C.3            1 <1>                0.0000
     13 O13         33.3523  36.7324  34.0078 O.3            1 <1>                0.0000
     14 C14         31.6275  38.0668  35.0500 C.3            1 <1>                0.0000
     15 C15         31.1370  38.5993  36.3952 C.3            1 <1>                0.0000
     16 H16         25.3868  35.9871  39.0808 H              1 <1>                0.0000
     17 H17         25.3436  37.6919  39.5908 H              1 <1>                0.0000
     18 H18         26.0210  37.2545  38.0040 H              1 <1>                0.0000
     19 H19         27.8226  37.7407  39.6364 H              1 <1>                0.0000
     20 H20         26.6183  35.3943  41.1730 H              1 <1>                0.0000
     21 H21         28.1303  36.2382  41.5849 H              1 <1>                0.0000
     22 H22         26.5756  37.0996  41.6815 H              1 <1>                0.0000
     23 H23         27.9875  34.7653  39.3983 H              1 <1>                0.0000
     24 H24         27.7183  35.6645  37.8860 H              1 <1>                0.0000
     25 H25         30.1690  35.2862  38.5333 H              1 <1>                0.0000
     26 H26         32.8670  37.0372  38.0325 H              1 <1>                0.0000
     27 H27         31.7041  35.6900  38.1310 H              1 <1>                0.0000
     28 H28         33.4090  35.3919  36.2989 H              1 <1>                0.0000
     29 H29         31.7339  35.4302  35.6961 H              1 <1>                0.0000
     30 H30         33.6493  37.8068  35.7473 H              1 <1>                0.0000
     31 H31         31.8714  38.9022  34.3937 H              1 <1>                0.0000
     32 H32         30.8442  37.4616  34.5937 H              1 <1>                0.0000
     33 H33         30.1945  39.1288  36.2568 H              1 <1>                0.0000
     34 H34         31.8814  39.2770  36.8132 H              1 <1>                0.0000
     35 H35         30.5274  37.3700  40.1888 H              1 <1>                0.0000
     36 H36         29.1901  36.6419  40.8180 H              1 <1>                0.0000
     37 H37         30.5805  35.7805  40.6194 H              1 <1>                0.0000
     38 H38         33.8955  37.3716  33.5267 H              1 <1>                0.0000
@<TRIPOS>BOND
    1    1    2 1     
    2    1   16 1     
    3    1   17 1     
    4    1   18 1     
    5    2    3 1     
    6    2    4 1     
    7    2   19 1     
    8    3   20 1     
    9    3   21 1     
   10    3   22 1     
   11    4    5 1     
   12    4   23 1     
   13    4   24 1     
   14    5    6 1     
   15    5    7 1     
   16    5   25 1     
   17    6   35 1     
   18    6   36 1     
   19    6   37 1     
   20    7    8 2     
   21    7    9 am    
   22    9   10 1     
   23    9   15 1     
   24   10   11 1     
   25   10   26 1     
   26   10   27 1     
   27   11   12 1     
   28   11   28 1     
   29   11   29 1     
   30   12   13 1     
   31   12   14 1     
   32   12   30 1     
   33   13   38 1     
   34   14   15 1     
   35   14   31 1     
   36   14   32 1     
   37   15   33 1     
   38   15   34 1     
@<TRIPOS>SUBSTRUCTURE
      1 ****           1
@<TRIPOS>SET
DONOR_HYDROGENS      STATIC     ATOMS    <user>   **** ""
4 35 36 37 38
ATOM$RED        STATIC     ATOMS    COLORGROUP SYSTEM
4 35 36 37 38
@<TRIPOS>COMMENT
> <Gold.Version>
2022.2.0

> <Gold.Id.Protein>
1qkm|1qkm_protein|mol2

> <Gold.Protein.RotatedTorsions>
[  496  491  490  487 ] final   65.89 input  -89.99 | X-H torsion

> <Gold.Protein.ActiveResidues>
 MET295  LEU298  THR299  LEU301  ALA302  GLU305  TRP335  MET336  LEU339  MET340 
 GLY342  LEU343  ARG346  PHE356  ILE373  ILE376  PHE377  LEU380  LYS471  GLY472 
 MET473  HIS475  LEU476  LEU477  ASN478  MET479  VAL484  VAL487 

> <Gold.Protein.RotatedAtoms>
   36.6014   33.2466   42.2625 H   0  0  0  0  0  0  0  0  0  0  0  0  # atno 496  bound_to 491 

> <Gold.Score>
     Score     S(PLP)   S(hbond)     S(cho)   S(metal)  DE(clash)   DE(tors)     intcor
     53.69     -50.30       1.98       0.00       0.00       0.00       1.29       0.02

> <Gold.PLP.Fitness>
53.6922

> <Gold.PLP.PLP>
-50.3001

> <Gold.PLP.part.hbond>
-3.6288

> <Gold.PLP.part.metal>
0.0000

> <Gold.PLP.part.buried>
-3.5742

> <Gold.PLP.part.nonpolar>
-43.5864

> <Gold.PLP.part.repulsive>
0.0389

> <Gold.PLP.ligand.clash>
0.0003

> <Gold.PLP.ligand.torsion>
1.2896

> <Gold.PLP.Chemscore.Hbond>
1.9833

> <Gold.PLP.Chemscore.CHOScore>
0.0000

> <Gold.PLP.Chemscore.Metal>
0.0000

> <Gold.Chemscore.Hbonds>
donor molecule, donor type, donor heavy atom, donor atom, acceptor molecule, acceptor atom, score
      L1  H     6    37       P1   470  0.99
      L1  H    13    38       P1  3229  0.99

> <Gold.PLP.Chemscore.Internal.Correction>
0.0219

