#       Name:                EN300-64604_i001
#       Creating user name   aseyller
#       Creation time:       Fri Apr 21 15:36:24 2023


#       File generated by GOLD software.
#

@<TRIPOS>MOLECULE
EN300-64604_i001|amine_1|mol2|960|dock8
    38    38     1
SMALL
USER_CHARGES


@<TRIPOS>ATOM
      1 C1          26.7117  36.2565  40.9450 C.3            1 <1>                0.0000
      2 C2          27.5820  35.8585  39.7513 C.3            1 <1>                0.0000
      3 C3          27.0222  36.4944  38.4773 C.3            1 <1>                0.0000
      4 C4          29.0139  36.3473  39.9787 C.3            1 <1>                0.0000
      5 C5          29.8911  35.9227  38.7993 C.3            1 <1>                0.0000
      6 N6          31.1940  35.4630  39.2985 N.4            1 <1>                1.0000
      7 C7          30.0929  37.0960  37.8753 C.2            1 <1>                0.0000
      8 O8          29.6918  38.1952  38.1943 O.2            1 <1>                0.0000
      9 N9          30.7190  36.9236  36.6943 N.am           1 <1>                0.0000
     10 C10         30.9232  38.0578  35.7827 C.3            1 <1>                0.0000
     11 C11         32.4110  38.1434  35.4278 C.3            1 <1>                0.0000
     12 C12         32.8765  36.7967  34.8696 C.3            1 <1>                0.0000
     13 O13         34.2561  36.8828  34.5073 O.3            1 <1>                0.0000
     14 C14         32.6954  35.7115  35.9334 C.3            1 <1>                0.0000
     15 C15         31.2158  35.5994  36.2966 C.3            1 <1>                0.0000
     16 H16         26.7135  37.3414  41.0503 H              1 <1>                0.0000
     17 H17         25.6914  35.9090  40.7827 H              1 <1>                0.0000
     18 H18         27.1099  35.8028  41.8525 H              1 <1>                0.0000
     19 H19         27.5809  34.7735  39.6466 H              1 <1>                0.0000
     20 H20         27.0234  37.5794  38.5820 H              1 <1>                0.0000
     21 H21         27.6423  36.2108  37.6270 H              1 <1>                0.0000
     22 H22         26.0021  36.1461  38.3154 H              1 <1>                0.0000
     23 H23         29.0179  37.4342  40.0617 H              1 <1>                0.0000
     24 H24         29.4051  35.9113  40.8979 H              1 <1>                0.0000
     25 H25         29.4035  35.1127  38.2569 H              1 <1>                0.0000
     26 H26         30.3391  37.9067  34.8750 H              1 <1>                0.0000
     27 H27         30.6105  38.9804  36.2716 H              1 <1>                0.0000
     28 H28         32.5619  38.9199  34.6778 H              1 <1>                0.0000
     29 H29         32.9852  38.3845  36.3224 H              1 <1>                0.0000
     30 H30         32.2850  36.5444  33.9894 H              1 <1>                0.0000
     31 H31         33.0488  34.7570  35.5433 H              1 <1>                0.0000
     32 H32         33.2669  35.9755  36.8232 H              1 <1>                0.0000
     33 H33         31.0945  34.8990  37.1229 H              1 <1>                0.0000
     34 H34         30.6529  35.2485  35.4317 H              1 <1>                0.0000
     35 H35         31.1211  35.2495  40.2820 H              1 <1>                0.0000
     36 H36         31.4740  34.6349  38.7946 H              1 <1>                0.0000
     37 H37         31.8817  36.1885  39.1619 H              1 <1>                0.0000
     38 H38         34.4821  37.6778  34.0054 H              1 <1>                0.0000
@<TRIPOS>BOND
    1    1    2 1     
    2    1   16 1     
    3    1   17 1     
    4    1   18 1     
    5    2    3 1     
    6    2    4 1     
    7    2   19 1     
    8    3   20 1     
    9    3   21 1     
   10    3   22 1     
   11    4    5 1     
   12    4   23 1     
   13    4   24 1     
   14    5    6 1     
   15    5    7 1     
   16    5   25 1     
   17    6   35 1     
   18    6   36 1     
   19    6   37 1     
   20    7    8 2     
   21    7    9 am    
   22    9   10 1     
   23    9   15 1     
   24   10   11 1     
   25   10   26 1     
   26   10   27 1     
   27   11   12 1     
   28   11   28 1     
   29   11   29 1     
   30   12   13 1     
   31   12   14 1     
   32   12   30 1     
   33   13   38 1     
   34   14   15 1     
   35   14   31 1     
   36   14   32 1     
   37   15   33 1     
   38   15   34 1     
@<TRIPOS>SUBSTRUCTURE
      1 ****           1
@<TRIPOS>SET
DONOR_HYDROGENS      STATIC     ATOMS    <user>   **** ""
4 35 36 37 38
ATOM$RED        STATIC     ATOMS    COLORGROUP SYSTEM
4 35 36 37 38
@<TRIPOS>COMMENT
> <Gold.Version>
2022.2.0

> <Gold.Id.Protein>
1qkm|1qkm_protein|mol2

> <Gold.Protein.RotatedTorsions>
[  496  491  490  487 ] final  -80.98 input  -89.99 | X-H torsion

> <Gold.Protein.ActiveResidues>
 MET295  LEU298  THR299  LEU301  ALA302  GLU305  TRP335  MET336  LEU339  MET340 
 GLY342  LEU343  ARG346  PHE356  ILE373  ILE376  PHE377  LEU380  LYS471  GLY472 
 MET473  HIS475  LEU476  LEU477  ASN478  MET479  VAL484  VAL487 

> <Gold.Protein.RotatedAtoms>
   36.6748   34.7022   41.1923 H   0  0  0  0  0  0  0  0  0  0  0  0  # atno 496  bound_to 491 

> <Gold.Score>
     Score     S(PLP)   S(hbond)     S(cho)   S(metal)  DE(clash)   DE(tors)     intcor
     49.17     -44.52       2.00       0.00       0.00       0.00       0.68       0.01

> <Gold.PLP.Fitness>
49.1686

> <Gold.PLP.PLP>
-44.5166

> <Gold.PLP.part.hbond>
-2.0166

> <Gold.PLP.part.metal>
0.0000

> <Gold.PLP.part.buried>
-2.2502

> <Gold.PLP.part.nonpolar>
-39.8088

> <Gold.PLP.part.repulsive>
0.0700

> <Gold.PLP.ligand.clash>
0.0000

> <Gold.PLP.ligand.torsion>
0.6772

> <Gold.PLP.Chemscore.Hbond>
2.0000

> <Gold.PLP.Chemscore.CHOScore>
0.0000

> <Gold.PLP.Chemscore.Metal>
0.0000

> <Gold.Chemscore.Hbonds>
donor molecule, donor type, donor heavy atom, donor atom, acceptor molecule, acceptor atom, score
      L1  H     6    35       P1   470  1.00
      L1  H    13    38       P1  3229  1.00

> <Gold.PLP.Chemscore.Internal.Correction>
0.0064

