#       Name:                EN300-64604_i001
#       Creating user name   aseyller
#       Creation time:       Fri Apr 21 15:36:37 2023


#       File generated by GOLD software.
#

@<TRIPOS>MOLECULE
EN300-64604_i001|amine_1|mol2|960|dock18
    38    38     1
SMALL
USER_CHARGES


@<TRIPOS>ATOM
      1 C1          31.7564  33.1353  38.2054 C.3            1 <1>                0.0000
      2 C2          31.6744  34.6340  38.5018 C.3            1 <1>                0.0000
      3 C3          32.6595  35.3861  37.6046 C.3            1 <1>                0.0000
      4 C4          30.2535  35.1311  38.2280 C.3            1 <1>                0.0000
      5 C5          30.1344  36.5956  38.6542 C.3            1 <1>                0.0000
      6 N6          30.3754  36.7062  40.0991 N.4            1 <1>                1.0000
      7 C7          28.7507  37.1006  38.3357 C.2            1 <1>                0.0000
      8 O8          28.6016  37.9907  37.5255 O.2            1 <1>                0.0000
      9 N9          27.6790  36.5631  38.9513 N.am           1 <1>                0.0000
     10 C10         27.8439  35.4842  39.9351 C.3            1 <1>                0.0000
     11 C11         27.1400  35.8895  41.2340 C.3            1 <1>                0.0000
     12 C12         25.6831  36.2460  40.9302 C.3            1 <1>                0.0000
     13 O13         25.0149  36.5935  42.1446 O.3            1 <1>                0.0000
     14 C14         25.6370  37.4329  39.9652 C.3            1 <1>                0.0000
     15 C15         26.3243  37.0489  38.6560 C.3            1 <1>                0.0000
     16 H16         31.5036  32.9572  37.1602 H              1 <1>                0.0000
     17 H17         32.7689  32.7814  38.3997 H              1 <1>                0.0000
     18 H18         31.0553  32.5995  38.8452 H              1 <1>                0.0000
     19 H19         31.9263  34.8120  39.5472 H              1 <1>                0.0000
     20 H20         32.4075  35.2081  36.5592 H              1 <1>                0.0000
     21 H21         32.6010  36.4537  37.8157 H              1 <1>                0.0000
     22 H22         33.6717  35.0319  37.7997 H              1 <1>                0.0000
     23 H23         30.0369  35.0438  37.1632 H              1 <1>                0.0000
     24 H24         29.5426  34.5290  38.7938 H              1 <1>                0.0000
     25 H25         30.8715  37.1916  38.1163 H              1 <1>                0.0000
     26 H26         27.3990  34.5669  39.5493 H              1 <1>                0.0000
     27 H27         28.9047  35.3250  40.1285 H              1 <1>                0.0000
     28 H28         27.1720  35.0592  41.9394 H              1 <1>                0.0000
     29 H29         27.6437  36.7543  41.6661 H              1 <1>                0.0000
     30 H30         25.1868  35.3888  40.4751 H              1 <1>                0.0000
     31 H31         24.5991  37.7011  39.7676 H              1 <1>                0.0000
     32 H32         26.1548  38.2831  40.4092 H              1 <1>                0.0000
     33 H33         26.3814  37.9205  38.0041 H              1 <1>                0.0000
     34 H34         25.7576  36.2584  38.1641 H              1 <1>                0.0000
     35 H35         29.5022  36.8818  40.5733 H              1 <1>                0.0000
     36 H36         30.7760  35.8452  40.4401 H              1 <1>                0.0000
     37 H37         31.0135  37.4674  40.2764 H              1 <1>                0.0000
     38 H38         25.3715  36.1549  42.9292 H              1 <1>                0.0000
@<TRIPOS>BOND
    1    1    2 1     
    2    1   16 1     
    3    1   17 1     
    4    1   18 1     
    5    2    3 1     
    6    2    4 1     
    7    2   19 1     
    8    3   20 1     
    9    3   21 1     
   10    3   22 1     
   11    4    5 1     
   12    4   23 1     
   13    4   24 1     
   14    5    6 1     
   15    5    7 1     
   16    5   25 1     
   17    6   35 1     
   18    6   36 1     
   19    6   37 1     
   20    7    8 2     
   21    7    9 am    
   22    9   10 1     
   23    9   15 1     
   24   10   11 1     
   25   10   26 1     
   26   10   27 1     
   27   11   12 1     
   28   11   28 1     
   29   11   29 1     
   30   12   13 1     
   31   12   14 1     
   32   12   30 1     
   33   13   38 1     
   34   14   15 1     
   35   14   31 1     
   36   14   32 1     
   37   15   33 1     
   38   15   34 1     
@<TRIPOS>SUBSTRUCTURE
      1 ****           1
@<TRIPOS>SET
DONOR_HYDROGENS      STATIC     ATOMS    <user>   **** ""
4 35 36 37 38
ATOM$RED        STATIC     ATOMS    COLORGROUP SYSTEM
4 35 36 37 38
@<TRIPOS>COMMENT
> <Gold.Version>
2022.2.0

> <Gold.Id.Protein>
1qkm|1qkm_protein|mol2

> <Gold.Protein.RotatedTorsions>
[  496  491  490  487 ] final  -76.81 input  -89.99 | X-H torsion

> <Gold.Protein.ActiveResidues>
 MET295  LEU298  THR299  LEU301  ALA302  GLU305  TRP335  MET336  LEU339  MET340 
 GLY342  LEU343  ARG346  PHE356  ILE373  ILE376  PHE377  LEU380  LYS471  GLY472 
 MET473  HIS475  LEU476  LEU477  ASN478  MET479  VAL484  VAL487 

> <Gold.Protein.RotatedAtoms>
   36.6375   34.7176   41.2478 H   0  0  0  0  0  0  0  0  0  0  0  0  # atno 496  bound_to 491 

> <Gold.Score>
     Score     S(PLP)   S(hbond)     S(cho)   S(metal)  DE(clash)   DE(tors)     intcor
     51.01     -51.72       2.06       0.00       0.00       6.81       0.05       0.01

> <Gold.PLP.Fitness>
51.0143

> <Gold.PLP.PLP>
-51.7239

> <Gold.PLP.part.hbond>
-2.9372

> <Gold.PLP.part.metal>
0.0000

> <Gold.PLP.part.buried>
0.1712

> <Gold.PLP.part.nonpolar>
-50.9528

> <Gold.PLP.part.repulsive>
0.0492

> <Gold.PLP.ligand.clash>
6.8107

> <Gold.PLP.ligand.torsion>
0.0486

> <Gold.PLP.Chemscore.Hbond>
2.0640

> <Gold.PLP.Chemscore.CHOScore>
0.0000

> <Gold.PLP.Chemscore.Metal>
0.0000

> <Gold.Chemscore.Hbonds>
donor molecule, donor type, donor heavy atom, donor atom, acceptor molecule, acceptor atom, score
      L1  H     6    36       P1   470  0.73
      L1  H    13    38       P1   582  1.00
      P1  H  1258  1270       L1    13  0.34

> <Gold.PLP.Chemscore.Internal.Correction>
0.0064

