#       Name:                EN300-64604_i001
#       Creating user name   aseyller
#       Creation time:       Fri Apr 21 15:36:32 2023


#       File generated by GOLD software.
#

@<TRIPOS>MOLECULE
EN300-64604_i001|amine_1|mol2|960|dock14
    38    38     1
SMALL
USER_CHARGES


@<TRIPOS>ATOM
      1 C1          30.3019  36.7547  34.9426 C.3            1 <1>                0.0000
      2 C2          30.8989  37.7186  35.9699 C.3            1 <1>                0.0000
      3 C3          32.1329  38.3990  35.3740 C.3            1 <1>                0.0000
      4 C4          29.8596  38.7794  36.3382 C.3            1 <1>                0.0000
      5 C5          28.6579  38.1064  37.0044 C.3            1 <1>                0.0000
      6 N6          27.6169  39.1097  37.2648 N.4            1 <1>                1.0000
      7 C7          29.0898  37.4814  38.3058 C.2            1 <1>                0.0000
      8 O8          30.2131  37.6663  38.7241 O.2            1 <1>                0.0000
      9 N9          28.2277  36.7169  39.0050 N.am           1 <1>                0.0000
     10 C10         28.6342  36.1007  40.2755 C.3            1 <1>                0.0000
     11 C11         27.6199  36.4860  41.3570 C.3            1 <1>                0.0000
     12 C12         26.2137  36.0999  40.8926 C.3            1 <1>                0.0000
     13 O13         25.2685  36.4285  41.9128 O.3            1 <1>                0.0000
     14 C14         25.8691  36.8651  39.6128 C.3            1 <1>                0.0000
     15 C15         26.8618  36.4887  38.5143 C.3            1 <1>                0.0000
     16 H16         30.0145  37.3085  34.0488 H              1 <1>                0.0000
     17 H17         31.0426  35.9995  34.6796 H              1 <1>                0.0000
     18 H18         29.4232  36.2694  35.3674 H              1 <1>                0.0000
     19 H19         31.1854  37.1649  36.8640 H              1 <1>                0.0000
     20 H20         31.8464  38.9527  34.4799 H              1 <1>                0.0000
     21 H21         32.5582  39.0856  36.1059 H              1 <1>                0.0000
     22 H22         32.8733  37.6432  35.1117 H              1 <1>                0.0000
     23 H23         30.3024  39.4977  37.0282 H              1 <1>                0.0000
     24 H24         29.5326  39.2962  35.4360 H              1 <1>                0.0000
     25 H25         28.2617  37.3347  36.3445 H              1 <1>                0.0000
     26 H26         28.6565  35.0166  40.1651 H              1 <1>                0.0000
     27 H27         29.6233  36.4620  40.5568 H              1 <1>                0.0000
     28 H28         27.8555  35.9583  42.2812 H              1 <1>                0.0000
     29 H29         27.6634  37.5613  41.5301 H              1 <1>                0.0000
     30 H30         26.1776  35.0284  40.6957 H              1 <1>                0.0000
     31 H31         24.8586  36.6073  39.2956 H              1 <1>                0.0000
     32 H32         25.9292  37.9368  39.8024 H              1 <1>                0.0000
     33 H33         26.6814  37.1037  37.6326 H              1 <1>                0.0000
     34 H34         26.7421  35.4359  38.2588 H              1 <1>                0.0000
     35 H35         26.8956  38.7040  37.8420 H              1 <1>                0.0000
     36 H36         28.0238  39.9005  37.7414 H              1 <1>                0.0000
     37 H37         27.2165  39.4139  36.3901 H              1 <1>                0.0000
     38 H38         25.3074  35.8494  42.6863 H              1 <1>                0.0000
@<TRIPOS>BOND
    1    1    2 1     
    2    1   16 1     
    3    1   17 1     
    4    1   18 1     
    5    2    3 1     
    6    2    4 1     
    7    2   19 1     
    8    3   20 1     
    9    3   21 1     
   10    3   22 1     
   11    4    5 1     
   12    4   23 1     
   13    4   24 1     
   14    5    6 1     
   15    5    7 1     
   16    5   25 1     
   17    6   35 1     
   18    6   36 1     
   19    6   37 1     
   20    7    8 2     
   21    7    9 am    
   22    9   10 1     
   23    9   15 1     
   24   10   11 1     
   25   10   26 1     
   26   10   27 1     
   27   11   12 1     
   28   11   28 1     
   29   11   29 1     
   30   12   13 1     
   31   12   14 1     
   32   12   30 1     
   33   13   38 1     
   34   14   15 1     
   35   14   31 1     
   36   14   32 1     
   37   15   33 1     
   38   15   34 1     
@<TRIPOS>SUBSTRUCTURE
      1 ****           1
@<TRIPOS>SET
DONOR_HYDROGENS      STATIC     ATOMS    <user>   **** ""
4 35 36 37 38
ATOM$RED        STATIC     ATOMS    COLORGROUP SYSTEM
4 35 36 37 38
@<TRIPOS>COMMENT
> <Gold.Version>
2022.2.0

> <Gold.Id.Protein>
1qkm|1qkm_protein|mol2

> <Gold.Protein.RotatedTorsions>
[  496  491  490  487 ] final   95.63 input  -89.99 | X-H torsion

> <Gold.Protein.ActiveResidues>
 MET295  LEU298  THR299  LEU301  ALA302  GLU305  TRP335  MET336  LEU339  MET340 
 GLY342  LEU343  ARG346  PHE356  ILE373  ILE376  PHE377  LEU380  LYS471  GLY472 
 MET473  HIS475  LEU476  LEU477  ASN478  MET479  VAL484  VAL487 

> <Gold.Protein.RotatedAtoms>
   36.8720   32.9890   41.9548 H   0  0  0  0  0  0  0  0  0  0  0  0  # atno 496  bound_to 491 

> <Gold.Score>
     Score     S(PLP)   S(hbond)     S(cho)   S(metal)  DE(clash)   DE(tors)     intcor
     50.30     -47.50       1.00       0.00       0.00       0.00       0.10       0.01

> <Gold.PLP.Fitness>
50.3033

> <Gold.PLP.PLP>
-47.4984

> <Gold.PLP.part.hbond>
-2.0000

> <Gold.PLP.part.metal>
0.0000

> <Gold.PLP.part.buried>
-3.0125

> <Gold.PLP.part.nonpolar>
-43.4826

> <Gold.PLP.part.repulsive>
0.0242

> <Gold.PLP.ligand.clash>
0.0000

> <Gold.PLP.ligand.torsion>
0.1007

> <Gold.PLP.Chemscore.Hbond>
1.0000

> <Gold.PLP.Chemscore.CHOScore>
0.0000

> <Gold.PLP.Chemscore.Metal>
0.0000

> <Gold.Chemscore.Hbonds>
donor molecule, donor type, donor heavy atom, donor atom, acceptor molecule, acceptor atom, score
      L1  H    13    38       P1   582  1.00

> <Gold.PLP.Chemscore.Internal.Correction>
0.0064

