#       Name:                EN300-64604_i001
#       Creating user name   aseyller
#       Creation time:       Fri Apr 21 15:36:40 2023


#       File generated by GOLD software.
#

@<TRIPOS>MOLECULE
EN300-64604_i001|amine_1|mol2|960|dock20
    38    38     1
SMALL
USER_CHARGES


@<TRIPOS>ATOM
      1 C1          33.8872  37.3012  37.8105 C.3            1 <1>                0.0000
      2 C2          32.8036  36.6597  36.9415 C.3            1 <1>                0.0000
      3 C3          33.3629  36.3932  35.5426 C.3            1 <1>                0.0000
      4 C4          32.3589  35.3389  37.5731 C.3            1 <1>                0.0000
      5 C5          31.4030  35.6245  38.7329 C.3            1 <1>                0.0000
      6 N6          31.0471  34.3630  39.3963 N.4            1 <1>                1.0000
      7 C7          30.1549  36.2836  38.2046 C.2            1 <1>                0.0000
      8 O8          29.9882  36.3958  37.0085 O.2            1 <1>                0.0000
      9 N9          29.2241  36.7483  39.0614 N.am           1 <1>                0.0000
     10 C10         28.0021  37.3932  38.5615 C.3            1 <1>                0.0000
     11 C11         26.7873  36.6943  39.1801 C.3            1 <1>                0.0000
     12 C12         26.9223  36.6996  40.7045 C.3            1 <1>                0.0000
     13 O13         25.7751  36.0769  41.2862 O.3            1 <1>                0.0000
     14 C14         28.1810  35.9290  41.1096 C.3            1 <1>                0.0000
     15 C15         29.4090  36.6142  40.5127 C.3            1 <1>                0.0000
     16 H16         34.7407  36.6271  37.8835 H              1 <1>                0.0000
     17 H17         34.2047  38.2416  37.3601 H              1 <1>                0.0000
     18 H18         33.4885  37.4918  38.8068 H              1 <1>                0.0000
     19 H19         31.9498  37.3334  36.8692 H              1 <1>                0.0000
     20 H20         34.2167  35.7195  35.6149 H              1 <1>                0.0000
     21 H21         32.5910  35.9362  34.9236 H              1 <1>                0.0000
     22 H22         33.6797  37.3341  35.0927 H              1 <1>                0.0000
     23 H23         31.8506  34.7312  36.8245 H              1 <1>                0.0000
     24 H24         33.2316  34.8022  37.9452 H              1 <1>                0.0000
     25 H25         31.8884  36.2873  39.4492 H              1 <1>                0.0000
     26 H26         28.0020  38.4455  38.8454 H              1 <1>                0.0000
     27 H27         27.9605  37.3055  37.4758 H              1 <1>                0.0000
     28 H28         25.8783  37.2232  38.8935 H              1 <1>                0.0000
     29 H29         26.7383  35.6657  38.8228 H              1 <1>                0.0000
     30 H30         26.9964  37.7277  41.0590 H              1 <1>                0.0000
     31 H31         28.2640  35.9132  42.1963 H              1 <1>                0.0000
     32 H32         28.1189  34.9077  40.7340 H              1 <1>                0.0000
     33 H33         30.2965  36.0147  40.7153 H              1 <1>                0.0000
     34 H34         29.5256  37.6041  40.9538 H              1 <1>                0.0000
     35 H35         30.0445  34.3049  39.4928 H              1 <1>                0.0000
     36 H36         31.3771  33.5870  38.8422 H              1 <1>                0.0000
     37 H37         31.4754  34.3306  40.3093 H              1 <1>                0.0000
     38 H38         25.9859  35.3724  41.9140 H              1 <1>                0.0000
@<TRIPOS>BOND
    1    1    2 1     
    2    1   16 1     
    3    1   17 1     
    4    1   18 1     
    5    2    3 1     
    6    2    4 1     
    7    2   19 1     
    8    3   20 1     
    9    3   21 1     
   10    3   22 1     
   11    4    5 1     
   12    4   23 1     
   13    4   24 1     
   14    5    6 1     
   15    5    7 1     
   16    5   25 1     
   17    6   35 1     
   18    6   36 1     
   19    6   37 1     
   20    7    8 2     
   21    7    9 am    
   22    9   10 1     
   23    9   15 1     
   24   10   11 1     
   25   10   26 1     
   26   10   27 1     
   27   11   12 1     
   28   11   28 1     
   29   11   29 1     
   30   12   13 1     
   31   12   14 1     
   32   12   30 1     
   33   13   38 1     
   34   14   15 1     
   35   14   31 1     
   36   14   32 1     
   37   15   33 1     
   38   15   34 1     
@<TRIPOS>SUBSTRUCTURE
      1 ****           1
@<TRIPOS>SET
DONOR_HYDROGENS      STATIC     ATOMS    <user>   **** ""
4 35 36 37 38
ATOM$RED        STATIC     ATOMS    COLORGROUP SYSTEM
4 35 36 37 38
@<TRIPOS>COMMENT
> <Gold.Version>
2022.2.0

> <Gold.Id.Protein>
1qkm|1qkm_protein|mol2

> <Gold.Protein.RotatedTorsions>
[  496  491  490  487 ] final -152.32 input  -89.99 | X-H torsion

> <Gold.Protein.ActiveResidues>
 MET295  LEU298  THR299  LEU301  ALA302  GLU305  TRP335  MET336  LEU339  MET340 
 GLY342  LEU343  ARG346  PHE356  ILE373  ILE376  PHE377  LEU380  LYS471  GLY472 
 MET473  HIS475  LEU476  LEU477  ASN478  MET479  VAL484  VAL487 

> <Gold.Protein.RotatedAtoms>
   37.2427   33.8836   40.7262 H   0  0  0  0  0  0  0  0  0  0  0  0  # atno 496  bound_to 491 

> <Gold.Score>
     Score     S(PLP)   S(hbond)     S(cho)   S(metal)  DE(clash)   DE(tors)     intcor
     49.83     -44.37       1.99       0.00       0.00       0.01       0.26       0.01

> <Gold.PLP.Fitness>
49.8261

> <Gold.PLP.PLP>
-44.3738

> <Gold.PLP.part.hbond>
-2.0000

> <Gold.PLP.part.metal>
0.0000

> <Gold.PLP.part.buried>
-2.1565

> <Gold.PLP.part.nonpolar>
-39.6560

> <Gold.PLP.part.repulsive>
0.0929

> <Gold.PLP.ligand.clash>
0.0132

> <Gold.PLP.ligand.torsion>
0.2573

> <Gold.PLP.Chemscore.Hbond>
1.9913

> <Gold.PLP.Chemscore.CHOScore>
0.0000

> <Gold.PLP.Chemscore.Metal>
0.0000

> <Gold.Chemscore.Hbonds>
donor molecule, donor type, donor heavy atom, donor atom, acceptor molecule, acceptor atom, score
      L1  H     6    37       P1   470  1.00
      L1  H    13    38       P1   582  0.99

> <Gold.PLP.Chemscore.Internal.Correction>
0.0064

