#       Name:                EN300-64604_i001
#       Creating user name   aseyller
#       Creation time:       Fri Apr 21 15:36:27 2023


#       File generated by GOLD software.
#

@<TRIPOS>MOLECULE
EN300-64604_i001|amine_1|mol2|960|dock10
    38    38     1
SMALL
USER_CHARGES


@<TRIPOS>ATOM
      1 C1          30.6950  39.1294  35.1402 C.3            1 <1>                0.0000
      2 C2          30.7009  37.8286  35.9456 C.3            1 <1>                0.0000
      3 C3          31.8624  36.9471  35.4823 C.3            1 <1>                0.0000
      4 C4          30.8661  38.1500  37.4324 C.3            1 <1>                0.0000
      5 C5          30.0267  37.1758  38.2611 C.3            1 <1>                0.0000
      6 N6          30.2653  35.8036  37.7937 N.4            1 <1>                1.0000
      7 C7          28.5661  37.5126  38.1052 C.2            1 <1>                0.0000
      8 O8          28.2199  38.3526  37.3018 O.2            1 <1>                0.0000
      9 N9          27.6447  36.8802  38.8586 N.am           1 <1>                0.0000
     10 C10         28.0489  35.8603  39.8360 C.3            1 <1>                0.0000
     11 C11         27.4641  36.2285  41.2032 C.3            1 <1>                0.0000
     12 C12         25.9501  36.4101  41.0739 C.3            1 <1>                0.0000
     13 O13         25.3969  36.7221  42.3540 O.3            1 <1>                0.0000
     14 C14         25.6528  37.5512  40.0983 C.3            1 <1>                0.0000
     15 C15         26.2176  37.2020  38.7225 C.3            1 <1>                0.0000
     16 H16         31.6357  39.6576  35.2961 H              1 <1>                0.0000
     17 H17         30.5783  38.9004  34.0810 H              1 <1>                0.0000
     18 H18         29.8671  39.7571  35.4696 H              1 <1>                0.0000
     19 H19         29.7599  37.3010  35.7904 H              1 <1>                0.0000
     20 H20         32.8035  37.4748  35.6376 H              1 <1>                0.0000
     21 H21         31.8666  36.0204  36.0561 H              1 <1>                0.0000
     22 H22         31.7447  36.7181  34.4232 H              1 <1>                0.0000
     23 H23         31.9155  38.0531  37.7106 H              1 <1>                0.0000
     24 H24         30.5324  39.1701  37.6228 H              1 <1>                0.0000
     25 H25         30.3080  37.2559  39.3111 H              1 <1>                0.0000
     26 H26         27.6690  34.8867  39.5264 H              1 <1>                0.0000
     27 H27         29.1364  35.8269  39.9007 H              1 <1>                0.0000
     28 H28         27.6754  35.4313  41.9159 H              1 <1>                0.0000
     29 H29         27.9135  37.1581  41.5527 H              1 <1>                0.0000
     30 H30         25.5043  35.4881  40.7006 H              1 <1>                0.0000
     31 H31         24.5749  37.6954  40.0245 H              1 <1>                0.0000
     32 H32         26.1193  38.4682  40.4581 H              1 <1>                0.0000
     33 H33         26.0958  38.0519  38.0511 H              1 <1>                0.0000
     34 H34         25.6903  36.3371  38.3199 H              1 <1>                0.0000
     35 H35         30.6534  35.2547  38.5462 H              1 <1>                0.0000
     36 H36         29.3932  35.3941  37.4940 H              1 <1>                0.0000
     37 H37         30.9128  35.8195  37.0202 H              1 <1>                0.0000
     38 H38         25.6263  36.0876  43.0468 H              1 <1>                0.0000
@<TRIPOS>BOND
    1    1    2 1     
    2    1   16 1     
    3    1   17 1     
    4    1   18 1     
    5    2    3 1     
    6    2    4 1     
    7    2   19 1     
    8    3   20 1     
    9    3   21 1     
   10    3   22 1     
   11    4    5 1     
   12    4   23 1     
   13    4   24 1     
   14    5    6 1     
   15    5    7 1     
   16    5   25 1     
   17    6   35 1     
   18    6   36 1     
   19    6   37 1     
   20    7    8 2     
   21    7    9 am    
   22    9   10 1     
   23    9   15 1     
   24   10   11 1     
   25   10   26 1     
   26   10   27 1     
   27   11   12 1     
   28   11   28 1     
   29   11   29 1     
   30   12   13 1     
   31   12   14 1     
   32   12   30 1     
   33   13   38 1     
   34   14   15 1     
   35   14   31 1     
   36   14   32 1     
   37   15   33 1     
   38   15   34 1     
@<TRIPOS>SUBSTRUCTURE
      1 ****           1
@<TRIPOS>SET
DONOR_HYDROGENS      STATIC     ATOMS    <user>   **** ""
4 35 36 37 38
ATOM$RED        STATIC     ATOMS    COLORGROUP SYSTEM
4 35 36 37 38
@<TRIPOS>COMMENT
> <Gold.Version>
2022.2.0

> <Gold.Id.Protein>
1qkm|1qkm_protein|mol2

> <Gold.Protein.RotatedTorsions>
[  496  491  490  487 ] final  178.71 input  -89.99 | X-H torsion

> <Gold.Protein.ActiveResidues>
 MET295  LEU298  THR299  LEU301  ALA302  GLU305  TRP335  MET336  LEU339  MET340 
 GLY342  LEU343  ARG346  PHE356  ILE373  ILE376  PHE377  LEU380  LYS471  GLY472 
 MET473  HIS475  LEU476  LEU477  ASN478  MET479  VAL484  VAL487 

> <Gold.Protein.RotatedAtoms>
   37.3184   33.4433   40.8782 H   0  0  0  0  0  0  0  0  0  0  0  0  # atno 496  bound_to 491 

> <Gold.Score>
     Score     S(PLP)   S(hbond)     S(cho)   S(metal)  DE(clash)   DE(tors)     intcor
     51.21     -48.69       1.29       0.00       0.00       0.00       0.68       0.01

> <Gold.PLP.Fitness>
51.2115

> <Gold.PLP.PLP>
-48.6854

> <Gold.PLP.part.hbond>
-2.0000

> <Gold.PLP.part.metal>
0.0000

> <Gold.PLP.part.buried>
-4.5491

> <Gold.PLP.part.nonpolar>
-42.3119

> <Gold.PLP.part.repulsive>
0.0000

> <Gold.PLP.ligand.clash>
0.0000

> <Gold.PLP.ligand.torsion>
0.6817

> <Gold.PLP.Chemscore.Hbond>
1.2944

> <Gold.PLP.Chemscore.CHOScore>
0.0000

> <Gold.PLP.Chemscore.Metal>
0.0000

> <Gold.Chemscore.Hbonds>
donor molecule, donor type, donor heavy atom, donor atom, acceptor molecule, acceptor atom, score
      L1  H    13    38       P1   582  1.00
      P1  H  1258  1270       L1    13  0.29

> <Gold.PLP.Chemscore.Internal.Correction>
0.0064

