#       Name:                EN300-64604_i001
#       Creating user name   aseyller
#       Creation time:       Fri Apr 21 15:36:18 2023


#       File generated by GOLD software.
#

@<TRIPOS>MOLECULE
EN300-64604_i001|amine_1|mol2|960|dock3
    38    38     1
SMALL
USER_CHARGES


@<TRIPOS>ATOM
      1 C1          30.5802  38.4831  34.5836 C.3            1 <1>                0.0000
      2 C2          31.1879  37.3116  35.3577 C.3            1 <1>                0.0000
      3 C3          32.6803  37.2076  35.0370 C.3            1 <1>                0.0000
      4 C4          31.0037  37.5419  36.8590 C.3            1 <1>                0.0000
      5 C5          29.5376  37.3163  37.2335 C.3            1 <1>                0.0000
      6 N6          28.8308  38.6041  37.2431 N.4            1 <1>                1.0000
      7 C7          29.4593  36.6903  38.6021 C.2            1 <1>                0.0000
      8 O8          30.4626  36.5720  39.2732 O.2            1 <1>                0.0000
      9 N9          28.2743  36.2619  39.0803 N.am           1 <1>                0.0000
     10 C10         28.1820  35.6494  40.4127 C.3            1 <1>                0.0000
     11 C11         27.1136  36.3904  41.2229 C.3            1 <1>                0.0000
     12 C12         25.7982  36.3953  40.4409 C.3            1 <1>                0.0000
     13 O13         24.7907  37.0577  41.2080 O.3            1 <1>                0.0000
     14 C14         25.9945  37.1313  39.1135 C.3            1 <1>                0.0000
     15 C15         27.0493  36.4039  38.2817 C.3            1 <1>                0.0000
     16 H16         31.0788  39.4080  34.8738 H              1 <1>                0.0000
     17 H17         30.7123  38.3194  33.5141 H              1 <1>                0.0000
     18 H18         29.5169  38.5566  34.8114 H              1 <1>                0.0000
     19 H19         30.6888  36.3868  35.0681 H              1 <1>                0.0000
     20 H20         33.1794  38.1324  35.3266 H              1 <1>                0.0000
     21 H21         33.1132  36.3731  35.5884 H              1 <1>                0.0000
     22 H22         32.8115  37.0435  33.9674 H              1 <1>                0.0000
     23 H23         31.6318  36.8445  37.4133 H              1 <1>                0.0000
     24 H24         31.2890  38.5642  37.1074 H              1 <1>                0.0000
     25 H25         29.0740  36.6529  36.5035 H              1 <1>                0.0000
     26 H26         27.9035  34.6003  40.3141 H              1 <1>                0.0000
     27 H27         29.1442  35.7283  40.9186 H              1 <1>                0.0000
     28 H28         26.9670  35.8865  42.1783 H              1 <1>                0.0000
     29 H29         27.4366  37.4167  41.3982 H              1 <1>                0.0000
     30 H30         25.4887  35.3688  40.2444 H              1 <1>                0.0000
     31 H31         25.0514  37.1548  38.5676 H              1 <1>                0.0000
     32 H32         26.3280  38.1505  39.3086 H              1 <1>                0.0000
     33 H33         27.2637  36.9782  37.3805 H              1 <1>                0.0000
     34 H34         26.6810  35.4151  38.0084 H              1 <1>                0.0000
     35 H35         29.5027  39.3564  37.2686 H              1 <1>                0.0000
     36 H36         28.2674  38.6846  36.4099 H              1 <1>                0.0000
     37 H37         28.2368  38.6558  38.0570 H              1 <1>                0.0000
     38 H38         23.8869  36.8315  40.9490 H              1 <1>                0.0000
@<TRIPOS>BOND
    1    1    2 1     
    2    1   16 1     
    3    1   17 1     
    4    1   18 1     
    5    2    3 1     
    6    2    4 1     
    7    2   19 1     
    8    3   20 1     
    9    3   21 1     
   10    3   22 1     
   11    4    5 1     
   12    4   23 1     
   13    4   24 1     
   14    5    6 1     
   15    5    7 1     
   16    5   25 1     
   17    6   35 1     
   18    6   36 1     
   19    6   37 1     
   20    7    8 2     
   21    7    9 am    
   22    9   10 1     
   23    9   15 1     
   24   10   11 1     
   25   10   26 1     
   26   10   27 1     
   27   11   12 1     
   28   11   28 1     
   29   11   29 1     
   30   12   13 1     
   31   12   14 1     
   32   12   30 1     
   33   13   38 1     
   34   14   15 1     
   35   14   31 1     
   36   14   32 1     
   37   15   33 1     
   38   15   34 1     
@<TRIPOS>SUBSTRUCTURE
      1 ****           1
@<TRIPOS>SET
DONOR_HYDROGENS      STATIC     ATOMS    <user>   **** ""
4 35 36 37 38
ATOM$RED        STATIC     ATOMS    COLORGROUP SYSTEM
4 35 36 37 38
@<TRIPOS>COMMENT
> <Gold.Version>
2022.2.0

> <Gold.Id.Protein>
1qkm|1qkm_protein|mol2

> <Gold.Protein.RotatedTorsions>
[  496  491  490  487 ] final  172.12 input  -89.99 | X-H torsion

> <Gold.Protein.ActiveResidues>
 MET295  LEU298  THR299  LEU301  ALA302  GLU305  TRP335  MET336  LEU339  MET340 
 GLY342  LEU343  ARG346  PHE356  ILE373  ILE376  PHE377  LEU380  LYS471  GLY472 
 MET473  HIS475  LEU476  LEU477  ASN478  MET479  VAL484  VAL487 

> <Gold.Protein.RotatedAtoms>
   37.3172   33.3534   40.9386 H   0  0  0  0  0  0  0  0  0  0  0  0  # atno 496  bound_to 491 

> <Gold.Score>
     Score     S(PLP)   S(hbond)     S(cho)   S(metal)  DE(clash)   DE(tors)     intcor
     52.15     -50.49       1.00       0.00       0.00       0.00       0.68       0.02

> <Gold.PLP.Fitness>
52.1536

> <Gold.PLP.PLP>
-50.4903

> <Gold.PLP.part.hbond>
-2.0000

> <Gold.PLP.part.metal>
0.0000

> <Gold.PLP.part.buried>
-3.0763

> <Gold.PLP.part.nonpolar>
-46.0948

> <Gold.PLP.part.repulsive>
0.0834

> <Gold.PLP.ligand.clash>
0.0000

> <Gold.PLP.ligand.torsion>
0.6793

> <Gold.PLP.Chemscore.Hbond>
1.0000

> <Gold.PLP.Chemscore.CHOScore>
0.0000

> <Gold.PLP.Chemscore.Metal>
0.0000

> <Gold.Chemscore.Hbonds>
donor molecule, donor type, donor heavy atom, donor atom, acceptor molecule, acceptor atom, score
      L1  H    13    38       P1  1131  1.00

> <Gold.PLP.Chemscore.Internal.Correction>
0.0219

