#       Name:                EN300-64604_i001
#       Creating user name   aseyller
#       Creation time:       Fri Apr 21 15:36:17 2023


#       File generated by GOLD software.
#

@<TRIPOS>MOLECULE
EN300-64604_i001|amine_1|mol2|960|dock2
    38    38     1
SMALL
USER_CHARGES


@<TRIPOS>ATOM
      1 C1          30.9335  37.7024  35.1304 C.3            1 <1>                0.0000
      2 C2          31.5629  36.7028  36.1028 C.3            1 <1>                0.0000
      3 C3          32.9950  36.3944  35.6613 C.3            1 <1>                0.0000
      4 C4          31.5812  37.3027  37.5102 C.3            1 <1>                0.0000
      5 C5          30.6734  36.4803  38.4269 C.3            1 <1>                0.0000
      6 N6          30.9872  35.0532  38.2747 N.4            1 <1>                1.0000
      7 C7          29.2330  36.7203  38.0543 C.2            1 <1>                0.0000
      8 O8          28.9621  37.3334  37.0435 O.2            1 <1>                0.0000
      9 N9          28.2460  36.2537  38.8446 N.am           1 <1>                0.0000
     10 C10         28.5586  35.5093  40.0723 C.3            1 <1>                0.0000
     11 C11         27.8337  36.1713  41.2483 C.3            1 <1>                0.0000
     12 C12         26.3390  36.2652  40.9335 C.3            1 <1>                0.0000
     13 O13         25.6550  36.8529  42.0420 O.3            1 <1>                0.0000
     14 C14         26.1313  37.1312  39.6889 C.3            1 <1>                0.0000
     15 C15         26.8370  36.4850  38.4981 C.3            1 <1>                0.0000
     16 H16         31.5179  38.6225  35.1264 H              1 <1>                0.0000
     17 H17         30.9213  37.2754  34.1276 H              1 <1>                0.0000
     18 H18         29.9130  37.9214  35.4444 H              1 <1>                0.0000
     19 H19         30.9781  35.7830  36.1074 H              1 <1>                0.0000
     20 H20         33.5799  37.3141  35.6566 H              1 <1>                0.0000
     21 H21         33.4434  35.6823  36.3539 H              1 <1>                0.0000
     22 H22         32.9820  35.9670  34.6586 H              1 <1>                0.0000
     23 H23         32.5996  37.2873  37.8985 H              1 <1>                0.0000
     24 H24         31.2226  38.3312  37.4714 H              1 <1>                0.0000
     25 H25         30.8356  36.7795  39.4623 H              1 <1>                0.0000
     26 H26         28.2222  34.4777  39.9697 H              1 <1>                0.0000
     27 H27         29.6341  35.5295  40.2479 H              1 <1>                0.0000
     28 H28         27.9792  35.5737  42.1482 H              1 <1>                0.0000
     29 H29         28.2356  37.1721  41.4067 H              1 <1>                0.0000
     30 H30         25.9430  35.2662  40.7507 H              1 <1>                0.0000
     31 H31         25.0652  37.2168  39.4789 H              1 <1>                0.0000
     32 H32         26.5494  38.1229  39.8619 H              1 <1>                0.0000
     33 H33         26.7758  37.1466  37.6341 H              1 <1>                0.0000
     34 H34         26.3624  35.5318  38.2654 H              1 <1>                0.0000
     35 H35         31.2963  34.8756  37.3308 H              1 <1>                0.0000
     36 H36         31.7186  34.7989  38.9216 H              1 <1>                0.0000
     37 H37         30.1623  34.5050  38.4673 H              1 <1>                0.0000
     38 H38         25.5358  36.2549  42.7925 H              1 <1>                0.0000
@<TRIPOS>BOND
    1    1    2 1     
    2    1   16 1     
    3    1   17 1     
    4    1   18 1     
    5    2    3 1     
    6    2    4 1     
    7    2   19 1     
    8    3   20 1     
    9    3   21 1     
   10    3   22 1     
   11    4    5 1     
   12    4   23 1     
   13    4   24 1     
   14    5    6 1     
   15    5    7 1     
   16    5   25 1     
   17    6   35 1     
   18    6   36 1     
   19    6   37 1     
   20    7    8 2     
   21    7    9 am    
   22    9   10 1     
   23    9   15 1     
   24   10   11 1     
   25   10   26 1     
   26   10   27 1     
   27   11   12 1     
   28   11   28 1     
   29   11   29 1     
   30   12   13 1     
   31   12   14 1     
   32   12   30 1     
   33   13   38 1     
   34   14   15 1     
   35   14   31 1     
   36   14   32 1     
   37   15   33 1     
   38   15   34 1     
@<TRIPOS>SUBSTRUCTURE
      1 ****           1
@<TRIPOS>SET
DONOR_HYDROGENS      STATIC     ATOMS    <user>   **** ""
4 35 36 37 38
ATOM$RED        STATIC     ATOMS    COLORGROUP SYSTEM
4 35 36 37 38
@<TRIPOS>COMMENT
> <Gold.Version>
2022.2.0

> <Gold.Id.Protein>
1qkm|1qkm_protein|mol2

> <Gold.Protein.RotatedTorsions>
[  496  491  490  487 ] final   15.41 input  -89.99 | X-H torsion

> <Gold.Protein.ActiveResidues>
 MET295  LEU298  THR299  LEU301  ALA302  GLU305  TRP335  MET336  LEU339  MET340 
 GLY342  LEU343  ARG346  PHE356  ILE373  ILE376  PHE377  LEU380  LYS471  GLY472 
 MET473  HIS475  LEU476  LEU477  ASN478  MET479  VAL484  VAL487 

> <Gold.Protein.RotatedAtoms>
   36.2871   33.9834   42.3370 H   0  0  0  0  0  0  0  0  0  0  0  0  # atno 496  bound_to 491 

> <Gold.Score>
     Score     S(PLP)   S(hbond)     S(cho)   S(metal)  DE(clash)   DE(tors)     intcor
     52.30     -51.22       1.00       0.00       0.00       0.00       0.97       0.02

> <Gold.PLP.Fitness>
52.2988

> <Gold.PLP.PLP>
-51.2239

> <Gold.PLP.part.hbond>
-2.0000

> <Gold.PLP.part.metal>
0.0000

> <Gold.PLP.part.buried>
-5.4363

> <Gold.PLP.part.nonpolar>
-44.7658

> <Gold.PLP.part.repulsive>
0.0188

> <Gold.PLP.ligand.clash>
0.0000

> <Gold.PLP.ligand.torsion>
0.9736

> <Gold.PLP.Chemscore.Hbond>
1.0000

> <Gold.PLP.Chemscore.CHOScore>
0.0000

> <Gold.PLP.Chemscore.Metal>
0.0000

> <Gold.Chemscore.Hbonds>
donor molecule, donor type, donor heavy atom, donor atom, acceptor molecule, acceptor atom, score
      L1  H    13    38       P1   582  1.00

> <Gold.PLP.Chemscore.Internal.Correction>
0.0219

