#       Name:                EN300-34862_i002
#       Creating user name   fsindt
#       Creation time:       Tue Feb 28 18:42:02 2023


#       File generated by GOLD software.
#

@<TRIPOS>MOLECULE
EN300-34862_i002|acide_2|mol2|6525|dock17
    13    13     1
SMALL
USER_CHARGES


@<TRIPOS>ATOM
      1 O1           0.3644 -15.6065  14.1844 O.co2          1 <1>               -1.0000
      2 C2           0.2545 -16.7999  13.9606 C.2            1 <1>                0.0000
      3 O3          -0.6399 -17.4391  14.4879 O.co2          1 <1>                0.0000
      4 C4           1.2203 -17.4838  13.0276 C.3            1 <1>                0.0000
      5 C5           1.8588 -18.6753  13.7533 C.3            1 <1>                0.0000
      6 S6           1.4028 -20.1089  12.7277 S.3            1 <1>                0.0000
      7 C7           0.4939 -19.1909  11.5220 C.2            1 <1>                0.0000
      8 O8          -0.0639 -19.6677  10.5521 O.2            1 <1>                0.0000
      9 N9           0.5126 -17.8990  11.8376 N.am           1 <1>                0.0000
     10 H10          2.0022 -16.7783  12.7462 H              1 <1>                0.0000
     11 H11          2.9423 -18.5627  13.7931 H              1 <1>                0.0000
     12 H12          1.4469 -18.7768  14.7573 H              1 <1>                0.0000
     13 H13          0.0593 -17.2477  11.2799 H              1 <1>                0.0000
@<TRIPOS>BOND
    1    1    2 ar    
    2    2    3 ar    
    3    2    4 1     
    4    4    5 1     
    5    4    9 1     
    6    4   10 1     
    7    5    6 1     
    8    5   11 1     
    9    5   12 1     
   10    6    7 1     
   11    7    8 2     
   12    7    9 am    
   13    9   13 1     
@<TRIPOS>SUBSTRUCTURE
      1 ****           1
@<TRIPOS>SET
DONOR_HYDROGENS      STATIC     ATOMS    <user>   **** ""
1 13
ATOM$RED        STATIC     ATOMS    COLORGROUP SYSTEM
1 13
@<TRIPOS>COMMENT
> <Gold.Version>
2022.2.0

> <Gold.Id.Protein>
3pbl|protein|mol2

> <Gold.Protein.RotatedTorsions>
[ 1303 1298 1297 1294 ] final  157.01 input  179.99 | X-H torsion
[ 2461 2456 2455 2452 ] final -124.56 input   30.03 | X-H torsion
[ 2515 2510 2509 2506 ] final   85.75 input  -89.99 | X-H torsion
[ 3721 3712 3711 3710 ] final  -19.30 input -179.91 | X-H torsion
[ 3841 3832 3831 3830 ] final  -18.83 input -179.91 | X-H torsion
[ 3767 3762 3761 3758 ] final   65.82 input  -89.99 | X-H torsion
[ 2472 2467 2466 2463 ] final -174.83 input  -89.97 | X-H torsion

> <Gold.Protein.ActiveResidues>
 VAL82   VAL86   LEU89   PHE106  VAL107  ASP110  VAL111  MET112  CYS114  THR115 
 CYS181  SER182  ILE183  PHE188  VAL189  ILE190  SER192  SER193  SER196  TRP342 
 PHE345  PHE346  HIS349  VAL350  TYR365  THR369  GLY372  TYR373 

> <Gold.Protein.RotatedAtoms>
    4.9115   -9.2061    4.8487 H   0  0  0  0  0  0  0  0  0  0  0  0  # atno 1303 bound_to 1298
    0.6273   -9.2025    8.0993 H   0  0  0  0  0  0  0  0  0  0  0  0  # atno 2461 bound_to 2456
   -5.2959   -5.4054    9.0849 H   0  0  0  0  0  0  0  0  0  0  0  0  # atno 2472 bound_to 2467
    2.0528   -7.6833    5.7926 H   0  0  0  0  0  0  0  0  0  0  0  0  # atno 2515 bound_to 2510
   -2.5502  -17.8087   14.4840 H   0  0  0  0  0  0  0  0  0  0  0  0  # atno 3721 bound_to 3712
   -4.4898  -23.3052   10.2419 H   0  0  0  0  0  0  0  0  0  0  0  0  # atno 3767 bound_to 3762
    1.6096  -20.2642    9.4380 H   0  0  0  0  0  0  0  0  0  0  0  0  # atno 3841 bound_to 3832
    3.7113  -10.2219    4.4082 LP  0  0  0  0  0  0  0  0  0  0  0  0  # atno 4297 bound_to 1298
    3.7391   -8.6933    3.8344 LP  0  0  0  0  0  0  0  0  0  0  0  0  # atno 4298 bound_to 1298
    2.1395   -8.5912    8.0164 LP  0  0  0  0  0  0  0  0  0  0  0  0  # atno 4299 bound_to 2456
    0.9708   -8.0146    7.0325 LP  0  0  0  0  0  0  0  0  0  0  0  0  # atno 4300 bound_to 2456
    2.7408   -8.0884    4.3684 LP  0  0  0  0  0  0  0  0  0  0  0  0  # atno 4301 bound_to 2510
    2.5033   -9.2277    5.5139 LP  0  0  0  0  0  0  0  0  0  0  0  0  # atno 4302 bound_to 2510
   -3.5290  -16.5765   14.1654 LP  0  0  0  0  0  0  0  0  0  0  0  0  # atno 4306 bound_to 3712
   -3.0544  -17.5893   12.9756 LP  0  0  0  0  0  0  0  0  0  0  0  0  # atno 4307 bound_to 3712
    2.4289  -19.7489    8.1576 LP  0  0  0  0  0  0  0  0  0  0  0  0  # atno 4314 bound_to 3832
    2.9411  -21.0482    9.0037 LP  0  0  0  0  0  0  0  0  0  0  0  0  # atno 4315 bound_to 3832
   -5.4870  -22.1077   10.7301 LP  0  0  0  0  0  0  0  0  0  0  0  0  # atno 4318 bound_to 3762
   -4.1505  -22.4623   11.5988 LP  0  0  0  0  0  0  0  0  0  0  0  0  # atno 4319 bound_to 3762
   -4.7271   -4.8308    7.6663 LP  0  0  0  0  0  0  0  0  0  0  0  0  # atno 4320 bound_to 2467
   -3.6940   -5.1574    8.8880 LP  0  0  0  0  0  0  0  0  0  0  0  0  # atno 4321 bound_to 2467

> <Gold.Score>
     Score     S(PLP)   S(hbond)     S(cho)   S(metal)  DE(clash)   DE(tors)     intcor
     25.83     -17.82       2.72       0.00       0.00       0.00       0.08       0.01

> <Gold.PLP.Fitness>
25.8292

> <Gold.PLP.PLP>
-17.8243

> <Gold.PLP.part.hbond>
-3.7498

> <Gold.PLP.part.metal>
0.0000

> <Gold.PLP.part.buried>
-3.8821

> <Gold.PLP.part.nonpolar>
-11.0378

> <Gold.PLP.part.repulsive>
0.1706

> <Gold.PLP.ligand.clash>
0.0000

> <Gold.PLP.ligand.torsion>
0.0801

> <Gold.PLP.Chemscore.Hbond>
2.7200

> <Gold.PLP.Chemscore.CHOScore>
0.0000

> <Gold.PLP.Chemscore.Metal>
0.0000

> <Gold.Chemscore.Hbonds>
donor molecule, donor type, donor heavy atom, donor atom, acceptor molecule, acceptor atom, score
      P1  H  2305  2313       L1     1  1.00
      P1  H  3712  3721       L1     3  0.72
      P1  H  3832  3841       L1     8  1.00

> <Gold.PLP.Chemscore.Internal.Correction>
0.0052

