#       Name:                EN300-34862_i002
#       Creating user name   fsindt
#       Creation time:       Tue Feb 28 18:42:00 2023


#       File generated by GOLD software.
#

@<TRIPOS>MOLECULE
EN300-34862_i002|acide_2|mol2|6525|dock11
    13    13     1
SMALL
USER_CHARGES


@<TRIPOS>ATOM
      1 O1          -1.2656 -12.0483  11.1067 O.co2          1 <1>               -1.0000
      2 C2          -0.8969 -11.6478  10.0158 C.2            1 <1>                0.0000
      3 O3          -1.6541 -10.9944   9.3185 O.co2          1 <1>                0.0000
      4 C4           0.4969 -11.9548   9.5320 C.3            1 <1>                0.0000
      5 C5           0.6827 -13.4766   9.4739 C.3            1 <1>                0.0000
      6 S6           1.0781 -13.8037   7.7270 S.3            1 <1>                0.0000
      7 C7           0.9936 -12.1190   7.2006 C.2            1 <1>                0.0000
      8 O8           1.1814 -11.7295   6.0640 O.2            1 <1>                0.0000
      9 N9           0.6924 -11.3423   8.2374 N.am           1 <1>                0.0000
     10 H10          1.2172 -11.5352  10.2343 H              1 <1>                0.0000
     11 H11          1.5067 -13.7860  10.1169 H              1 <1>                0.0000
     12 H12         -0.2380 -13.9854   9.7593 H              1 <1>                0.0000
     13 H13          0.6051 -10.3826   8.1267 H              1 <1>                0.0000
@<TRIPOS>BOND
    1    1    2 ar    
    2    2    3 ar    
    3    2    4 1     
    4    4    5 1     
    5    4    9 1     
    6    4   10 1     
    7    5    6 1     
    8    5   11 1     
    9    5   12 1     
   10    6    7 1     
   11    7    8 2     
   12    7    9 am    
   13    9   13 1     
@<TRIPOS>SUBSTRUCTURE
      1 ****           1
@<TRIPOS>SET
DONOR_HYDROGENS      STATIC     ATOMS    <user>   **** ""
1 13
ATOM$RED        STATIC     ATOMS    COLORGROUP SYSTEM
1 13
@<TRIPOS>COMMENT
> <Gold.Version>
2022.2.0

> <Gold.Id.Protein>
3pbl|protein|mol2

> <Gold.Protein.RotatedTorsions>
[ 1303 1298 1297 1294 ] final  -16.29 input  179.99 | X-H torsion
[ 2461 2456 2455 2452 ] final   -2.72 input   30.03 | X-H torsion
[ 2515 2510 2509 2506 ] final  -84.41 input  -89.99 | X-H torsion
[ 3721 3712 3711 3710 ] final   49.47 input -179.91 | X-H torsion
[ 3841 3832 3831 3830 ] final  -26.63 input -179.91 | X-H torsion
[ 3767 3762 3761 3758 ] final -127.02 input  -89.99 | X-H torsion
[ 2472 2467 2466 2463 ] final  152.27 input  -89.97 | X-H torsion

> <Gold.Protein.ActiveResidues>
 VAL82   VAL86   LEU89   PHE106  VAL107  ASP110  VAL111  MET112  CYS114  THR115 
 CYS181  SER182  ILE183  PHE188  VAL189  ILE190  SER192  SER193  SER196  TRP342 
 PHE345  PHE346  HIS349  VAL350  TYR365  THR369  GLY372  TYR373 

> <Gold.Protein.RotatedAtoms>
    3.3331   -9.6431    3.9215 H   0  0  0  0  0  0  0  0  0  0  0  0  # atno 1303 bound_to 1298
    0.9988   -8.0034    7.0311 H   0  0  0  0  0  0  0  0  0  0  0  0  # atno 2461 bound_to 2456
   -5.5038   -5.2591    8.6155 H   0  0  0  0  0  0  0  0  0  0  0  0  # atno 2472 bound_to 2467
    2.8297   -8.8608    4.5530 H   0  0  0  0  0  0  0  0  0  0  0  0  # atno 2515 bound_to 2510
   -2.5415  -17.9736   13.5198 H   0  0  0  0  0  0  0  0  0  0  0  0  # atno 3721 bound_to 3712
   -4.7510  -22.0067   11.5677 H   0  0  0  0  0  0  0  0  0  0  0  0  # atno 3767 bound_to 3762
    1.5796  -20.1708    9.3729 H   0  0  0  0  0  0  0  0  0  0  0  0  # atno 3841 bound_to 3832
    4.4485   -8.4969    4.2512 LP  0  0  0  0  0  0  0  0  0  0  0  0  # atno 4297 bound_to 1298
    4.5808   -9.9812    4.9191 LP  0  0  0  0  0  0  0  0  0  0  0  0  # atno 4298 bound_to 1298
    0.6062   -9.1914    8.0808 LP  0  0  0  0  0  0  0  0  0  0  0  0  # atno 4299 bound_to 2456
    2.1327   -8.6132    8.0360 LP  0  0  0  0  0  0  0  0  0  0  0  0  # atno 4300 bound_to 2456
    2.1726   -8.7266    6.0416 LP  0  0  0  0  0  0  0  0  0  0  0  0  # atno 4301 bound_to 2510
    2.2942   -7.4116    5.0811 LP  0  0  0  0  0  0  0  0  0  0  0  0  # atno 4302 bound_to 2510
   -3.0715  -17.2670   14.8605 LP  0  0  0  0  0  0  0  0  0  0  0  0  # atno 4306 bound_to 3712
   -3.5220  -16.7085   13.3937 LP  0  0  0  0  0  0  0  0  0  0  0  0  # atno 4307 bound_to 3712
    2.5430  -19.8094    8.1411 LP  0  0  0  0  0  0  0  0  0  0  0  0  # atno 4314 bound_to 3832
    2.8617  -21.0956    9.0954 LP  0  0  0  0  0  0  0  0  0  0  0  0  # atno 4315 bound_to 3832
   -3.9945  -23.2379   10.8070 LP  0  0  0  0  0  0  0  0  0  0  0  0  # atno 4318 bound_to 3762
   -5.3819  -22.6303   10.1966 LP  0  0  0  0  0  0  0  0  0  0  0  0  # atno 4319 bound_to 3762
   -4.2000   -4.8013    7.7455 LP  0  0  0  0  0  0  0  0  0  0  0  0  # atno 4320 bound_to 2467
   -4.0132   -5.3331    9.2781 LP  0  0  0  0  0  0  0  0  0  0  0  0  # atno 4321 bound_to 2467

> <Gold.Score>
     Score     S(PLP)   S(hbond)     S(cho)   S(metal)  DE(clash)   DE(tors)     intcor
     27.26     -24.26       1.00       0.00       0.00       0.00       0.00       0.01

> <Gold.PLP.Fitness>
27.2585

> <Gold.PLP.PLP>
-24.2588

> <Gold.PLP.part.hbond>
-1.0000

> <Gold.PLP.part.metal>
0.0000

> <Gold.PLP.part.buried>
-5.3946

> <Gold.PLP.part.nonpolar>
-18.0895

> <Gold.PLP.part.repulsive>
0.0977

> <Gold.PLP.ligand.clash>
0.0000

> <Gold.PLP.ligand.torsion>
0.0027

> <Gold.PLP.Chemscore.Hbond>
1.0000

> <Gold.PLP.Chemscore.CHOScore>
0.0000

> <Gold.PLP.Chemscore.Metal>
0.0000

> <Gold.Chemscore.Hbonds>
donor molecule, donor type, donor heavy atom, donor atom, acceptor molecule, acceptor atom, score
      L1  H     9    13       P1  2456  1.00

> <Gold.PLP.Chemscore.Internal.Correction>
0.0052

