#       Name:                EN300-34862_i002
#       Creating user name   fsindt
#       Creation time:       Tue Feb 28 18:41:59 2023


#       File generated by GOLD software.
#

@<TRIPOS>MOLECULE
EN300-34862_i002|acide_2|mol2|6525|dock4
    13    13     1
SMALL
USER_CHARGES


@<TRIPOS>ATOM
      1 O1           0.0768 -15.6008  14.3598 O.co2          1 <1>               -1.0000
      2 C2           0.4217 -16.2811  13.4086 C.2            1 <1>                0.0000
      3 O3          -0.1845 -16.2055  12.3535 O.co2          1 <1>                0.0000
      4 C4           1.6010 -17.2107  13.5351 C.3            1 <1>                0.0000
      5 C5           1.4164 -18.0867  14.7810 C.3            1 <1>                0.0000
      6 S6           1.4167 -19.7857  14.1264 S.3            1 <1>                0.0000
      7 C7           1.6347 -19.3303  12.4330 C.2            1 <1>                0.0000
      8 O8           1.7078 -20.1089  11.5015 O.2            1 <1>                0.0000
      9 N9           1.7057 -18.0060  12.3327 N.am           1 <1>                0.0000
     10 H10          2.5093 -16.6187  13.6480 H              1 <1>                0.0000
     11 H11          2.2449 -17.9441  15.4749 H              1 <1>                0.0000
     12 H12          0.4666 -17.8645  15.2674 H              1 <1>                0.0000
     13 H13          1.8252 -17.5817  11.4687 H              1 <1>                0.0000
@<TRIPOS>BOND
    1    1    2 ar    
    2    2    3 ar    
    3    2    4 1     
    4    4    5 1     
    5    4    9 1     
    6    4   10 1     
    7    5    6 1     
    8    5   11 1     
    9    5   12 1     
   10    6    7 1     
   11    7    8 2     
   12    7    9 am    
   13    9   13 1     
@<TRIPOS>SUBSTRUCTURE
      1 ****           1
@<TRIPOS>SET
DONOR_HYDROGENS      STATIC     ATOMS    <user>   **** ""
1 13
ATOM$RED        STATIC     ATOMS    COLORGROUP SYSTEM
1 13
@<TRIPOS>COMMENT
> <Gold.Version>
2022.2.0

> <Gold.Id.Protein>
3pbl|protein|mol2

> <Gold.Protein.RotatedTorsions>
[ 1303 1298 1297 1294 ] final -173.11 input  179.99 | X-H torsion
[ 2461 2456 2455 2452 ] final  -56.74 input   30.03 | X-H torsion
[ 2515 2510 2509 2506 ] final   33.86 input  -89.99 | X-H torsion
[ 3721 3712 3711 3710 ] final  -36.59 input -179.91 | X-H torsion
[ 3841 3832 3831 3830 ] final    8.11 input -179.91 | X-H torsion
[ 3767 3762 3761 3758 ] final  122.72 input  -89.99 | X-H torsion
[ 2472 2467 2466 2463 ] final  -41.45 input  -89.97 | X-H torsion

> <Gold.Protein.ActiveResidues>
 VAL82   VAL86   LEU89   PHE106  VAL107  ASP110  VAL111  MET112  CYS114  THR115 
 CYS181  SER182  ILE183  PHE188  VAL189  ILE190  SER192  SER193  SER196  TRP342 
 PHE345  PHE346  HIS349  VAL350  TYR365  THR369  GLY372  TYR373 

> <Gold.Protein.RotatedAtoms>
    4.8143   -8.7888    4.6193 H   0  0  0  0  0  0  0  0  0  0  0  0  # atno 1303 bound_to 1298
    0.3873   -8.5208    7.3346 H   0  0  0  0  0  0  0  0  0  0  0  0  # atno 2461 bound_to 2456
   -3.6417   -5.0807    8.6888 H   0  0  0  0  0  0  0  0  0  0  0  0  # atno 2472 bound_to 2467
    2.3060   -7.4147    5.0552 H   0  0  0  0  0  0  0  0  0  0  0  0  # atno 2515 bound_to 2510
   -2.6410  -17.6252   14.6450 H   0  0  0  0  0  0  0  0  0  0  0  0  # atno 3721 bound_to 3712
   -3.9427  -23.1679   10.9412 H   0  0  0  0  0  0  0  0  0  0  0  0  # atno 3767 bound_to 3762
    1.8127  -20.5767    9.5920 H   0  0  0  0  0  0  0  0  0  0  0  0  # atno 3841 bound_to 3832
    4.1031  -10.2568    4.6940 LP  0  0  0  0  0  0  0  0  0  0  0  0  # atno 4297 bound_to 1298
    3.4445   -9.0760    3.7782 LP  0  0  0  0  0  0  0  0  0  0  0  0  # atno 4298 bound_to 1298
    1.3998   -9.2334    8.3998 LP  0  0  0  0  0  0  0  0  0  0  0  0  # atno 4299 bound_to 2456
    1.9504   -8.0539    7.4137 LP  0  0  0  0  0  0  0  0  0  0  0  0  # atno 4300 bound_to 2456
    2.8274   -8.8837    4.5697 LP  0  0  0  0  0  0  0  0  0  0  0  0  # atno 4301 bound_to 2510
    2.1634   -8.7012    6.0504 LP  0  0  0  0  0  0  0  0  0  0  0  0  # atno 4302 bound_to 2510
   -3.5651  -16.5578   13.8804 LP  0  0  0  0  0  0  0  0  0  0  0  0  # atno 4306 bound_to 3712
   -2.9135  -17.8199   13.0748 LP  0  0  0  0  0  0  0  0  0  0  0  0  # atno 4307 bound_to 3712
    2.0242  -19.6371    8.3081 LP  0  0  0  0  0  0  0  0  0  0  0  0  # atno 4314 bound_to 3832
    3.1112  -20.7990    8.6753 LP  0  0  0  0  0  0  0  0  0  0  0  0  # atno 4315 bound_to 3832
   -5.2982  -22.7505   10.1317 LP  0  0  0  0  0  0  0  0  0  0  0  0  # atno 4318 bound_to 3762
   -4.8862  -21.9569   11.4981 LP  0  0  0  0  0  0  0  0  0  0  0  0  # atno 4319 bound_to 3762
   -5.1382   -5.4409    9.2339 LP  0  0  0  0  0  0  0  0  0  0  0  0  # atno 4320 bound_to 2467
   -4.9369   -4.8719    7.7165 LP  0  0  0  0  0  0  0  0  0  0  0  0  # atno 4321 bound_to 2467

> <Gold.Score>
     Score     S(PLP)   S(hbond)     S(cho)   S(metal)  DE(clash)   DE(tors)     intcor
     29.29     -20.52       3.00       0.00       0.00       0.00       0.12       0.01

> <Gold.PLP.Fitness>
29.2901

> <Gold.PLP.PLP>
-20.5209

> <Gold.PLP.part.hbond>
-3.0000

> <Gold.PLP.part.metal>
0.0000

> <Gold.PLP.part.buried>
-4.4797

> <Gold.PLP.part.nonpolar>
-13.4127

> <Gold.PLP.part.repulsive>
0.2826

> <Gold.PLP.ligand.clash>
0.0000

> <Gold.PLP.ligand.torsion>
0.1180

> <Gold.PLP.Chemscore.Hbond>
3.0000

> <Gold.PLP.Chemscore.CHOScore>
0.0000

> <Gold.PLP.Chemscore.Metal>
0.0000

> <Gold.Chemscore.Hbonds>
donor molecule, donor type, donor heavy atom, donor atom, acceptor molecule, acceptor atom, score
      L1  H     9    13       P1  1227  1.00
      P1  H  2305  2313       L1     1  1.00
      P1  H  3832  3841       L1     8  1.00

> <Gold.PLP.Chemscore.Internal.Correction>
0.0052

