#       Name:                EN300-34862_i002
#       Creating user name   fsindt
#       Creation time:       Tue Feb 28 18:41:59 2023


#       File generated by GOLD software.
#

@<TRIPOS>MOLECULE
EN300-34862_i002|acide_2|mol2|6525|dock5
    13    13     1
SMALL
USER_CHARGES


@<TRIPOS>ATOM
      1 O1          -2.0417 -10.7447  11.2419 O.co2          1 <1>               -1.0000
      2 C2          -1.4324 -10.6046  10.1953 C.2            1 <1>                0.0000
      3 O3          -1.8663  -9.8607   9.3322 O.co2          1 <1>                0.0000
      4 C4          -0.1397 -11.3459   9.9708 C.3            1 <1>                0.0000
      5 C5          -0.4015 -12.8535  10.0822 C.3            1 <1>                0.0000
      6 S6           0.0998 -13.5068   8.4583 S.3            1 <1>                0.0000
      7 C7           0.5795 -11.9499   7.7738 C.2            1 <1>                0.0000
      8 O8           1.0161 -11.7823   6.6512 O.2            1 <1>                0.0000
      9 N9           0.3894 -10.9893   8.6738 N.am           1 <1>                0.0000
     10 H10          0.5763 -11.0517  10.7382 H              1 <1>                0.0000
     11 H11          0.2071 -13.2898  10.8743 H              1 <1>                0.0000
     12 H12         -1.4593 -13.0457  10.2617 H              1 <1>                0.0000
     13 H13          0.6015 -10.0665   8.4636 H              1 <1>                0.0000
@<TRIPOS>BOND
    1    1    2 ar    
    2    2    3 ar    
    3    2    4 1     
    4    4    5 1     
    5    4    9 1     
    6    4   10 1     
    7    5    6 1     
    8    5   11 1     
    9    5   12 1     
   10    6    7 1     
   11    7    8 2     
   12    7    9 am    
   13    9   13 1     
@<TRIPOS>SUBSTRUCTURE
      1 ****           1
@<TRIPOS>SET
DONOR_HYDROGENS      STATIC     ATOMS    <user>   **** ""
1 13
ATOM$RED        STATIC     ATOMS    COLORGROUP SYSTEM
1 13
@<TRIPOS>COMMENT
> <Gold.Version>
2022.2.0

> <Gold.Id.Protein>
3pbl|protein|mol2

> <Gold.Protein.RotatedTorsions>
[ 1303 1298 1297 1294 ] final  125.54 input  179.99 | X-H torsion
[ 2461 2456 2455 2452 ] final  -18.16 input   30.03 | X-H torsion
[ 2515 2510 2509 2506 ] final -165.17 input  -89.99 | X-H torsion
[ 3721 3712 3711 3710 ] final -151.26 input -179.91 | X-H torsion
[ 3841 3832 3831 3830 ] final  153.78 input -179.91 | X-H torsion
[ 3767 3762 3761 3758 ] final   97.29 input  -89.99 | X-H torsion
[ 2472 2467 2466 2463 ] final   59.97 input  -89.97 | X-H torsion

> <Gold.Protein.ActiveResidues>
 VAL82   VAL86   LEU89   PHE106  VAL107  ASP110  VAL111  MET112  CYS114  THR115 
 CYS181  SER182  ILE183  PHE188  VAL189  ILE190  SER192  SER193  SER196  TRP342 
 PHE345  PHE346  HIS349  VAL350  TYR365  THR369  GLY372  TYR373 

> <Gold.Protein.RotatedAtoms>
    4.7867   -9.6915    4.9504 H   0  0  0  0  0  0  0  0  0  0  0  0  # atno 1303 bound_to 1298
    0.7730   -8.1139    7.0627 H   0  0  0  0  0  0  0  0  0  0  0  0  # atno 2461 bound_to 2456
   -4.6425   -4.8197    7.6593 H   0  0  0  0  0  0  0  0  0  0  0  0  # atno 2472 bound_to 2467
    2.4269   -9.1669    5.6643 H   0  0  0  0  0  0  0  0  0  0  0  0  # atno 2515 bound_to 2510
   -3.3283  -16.5305   13.9697 H   0  0  0  0  0  0  0  0  0  0  0  0  # atno 3721 bound_to 3712
   -4.1190  -23.3120   10.5943 H   0  0  0  0  0  0  0  0  0  0  0  0  # atno 3767 bound_to 3762
    3.1137  -20.3612    8.5935 H   0  0  0  0  0  0  0  0  0  0  0  0  # atno 3841 bound_to 3832
    3.4180   -9.9425    4.0960 LP  0  0  0  0  0  0  0  0  0  0  0  0  # atno 4297 bound_to 1298
    4.1572   -8.4873    4.0450 LP  0  0  0  0  0  0  0  0  0  0  0  0  # atno 4298 bound_to 1298
    0.8035   -9.2639    8.2221 LP  0  0  0  0  0  0  0  0  0  0  0  0  # atno 4299 bound_to 2456
    2.1611   -8.4302    7.8632 LP  0  0  0  0  0  0  0  0  0  0  0  0  # atno 4300 bound_to 2456
    2.0854   -7.5703    5.6573 LP  0  0  0  0  0  0  0  0  0  0  0  0  # atno 4301 bound_to 2510
    2.7845   -8.2616    4.3535 LP  0  0  0  0  0  0  0  0  0  0  0  0  # atno 4302 bound_to 2510
   -2.9321  -17.7902   13.0564 LP  0  0  0  0  0  0  0  0  0  0  0  0  # atno 4306 bound_to 3712
   -2.7529  -17.8513   14.6784 LP  0  0  0  0  0  0  0  0  0  0  0  0  # atno 4307 bound_to 3712
    1.9807  -20.9863    9.5430 LP  0  0  0  0  0  0  0  0  0  0  0  0  # atno 4314 bound_to 3832
    1.6518  -19.6988    8.5939 LP  0  0  0  0  0  0  0  0  0  0  0  0  # atno 4315 bound_to 3832
   -5.4749  -22.4381   10.3399 LP  0  0  0  0  0  0  0  0  0  0  0  0  # atno 4318 bound_to 3762
   -4.5332  -22.1252   11.6368 LP  0  0  0  0  0  0  0  0  0  0  0  0  # atno 4319 bound_to 3762
   -3.7273   -5.1873    8.9607 LP  0  0  0  0  0  0  0  0  0  0  0  0  # atno 4320 bound_to 2467
   -5.3471   -5.3865    9.0190 LP  0  0  0  0  0  0  0  0  0  0  0  0  # atno 4321 bound_to 2467

> <Gold.Score>
     Score     S(PLP)   S(hbond)     S(cho)   S(metal)  DE(clash)   DE(tors)     intcor
     26.75     -23.75       1.00       0.00       0.00       0.00       0.00       0.01

> <Gold.PLP.Fitness>
26.7452

> <Gold.PLP.PLP>
-23.7453

> <Gold.PLP.part.hbond>
-1.0000

> <Gold.PLP.part.metal>
0.0000

> <Gold.PLP.part.buried>
-5.3432

> <Gold.PLP.part.nonpolar>
-17.8168

> <Gold.PLP.part.repulsive>
0.1653

> <Gold.PLP.ligand.clash>
0.0000

> <Gold.PLP.ligand.torsion>
0.0026

> <Gold.PLP.Chemscore.Hbond>
1.0000

> <Gold.PLP.Chemscore.CHOScore>
0.0000

> <Gold.PLP.Chemscore.Metal>
0.0000

> <Gold.Chemscore.Hbonds>
donor molecule, donor type, donor heavy atom, donor atom, acceptor molecule, acceptor atom, score
      L1  H     9    13       P1  2456  1.00

> <Gold.PLP.Chemscore.Internal.Correction>
0.0052

