#       Name:                EN300-34862_i002
#       Creating user name   fsindt
#       Creation time:       Tue Feb 28 18:42:00 2023


#       File generated by GOLD software.
#

@<TRIPOS>MOLECULE
EN300-34862_i002|acide_2|mol2|6525|dock9
    13    13     1
SMALL
USER_CHARGES


@<TRIPOS>ATOM
      1 O1          -2.0000 -11.7028   9.3181 O.co2          1 <1>               -1.0000
      2 C2          -0.8951 -11.1974   9.4198 C.2            1 <1>                0.0000
      3 O3          -0.7846 -10.0465   9.8068 O.co2          1 <1>                0.0000
      4 C4           0.3342 -11.9971   9.0732 C.3            1 <1>                0.0000
      5 C5          -0.0787 -13.4429   8.7682 C.3            1 <1>                0.0000
      6 S6           0.4840 -13.7080   7.0570 S.3            1 <1>                0.0000
      7 C7           1.1630 -12.0919   6.8342 C.2            1 <1>                0.0000
      8 O8           1.7006 -11.6911   5.8196 O.2            1 <1>                0.0000
      9 N9           0.9955 -11.3805   7.9455 N.am           1 <1>                0.0000
     10 H10          1.0125 -11.9935   9.9264 H              1 <1>                0.0000
     11 H11          0.4211 -14.1345   9.4466 H              1 <1>                0.0000
     12 H12         -1.1609 -13.5540   8.8364 H              1 <1>                0.0000
     13 H13          1.3109 -10.4648   7.9980 H              1 <1>                0.0000
@<TRIPOS>BOND
    1    1    2 ar    
    2    2    3 ar    
    3    2    4 1     
    4    4    5 1     
    5    4    9 1     
    6    4   10 1     
    7    5    6 1     
    8    5   11 1     
    9    5   12 1     
   10    6    7 1     
   11    7    8 2     
   12    7    9 am    
   13    9   13 1     
@<TRIPOS>SUBSTRUCTURE
      1 ****           1
@<TRIPOS>SET
DONOR_HYDROGENS      STATIC     ATOMS    <user>   **** ""
1 13
ATOM$RED        STATIC     ATOMS    COLORGROUP SYSTEM
1 13
@<TRIPOS>COMMENT
> <Gold.Version>
2022.2.0

> <Gold.Id.Protein>
3pbl|protein|mol2

> <Gold.Protein.RotatedTorsions>
[ 1303 1298 1297 1294 ] final    8.97 input  179.99 | X-H torsion
[ 2461 2456 2455 2452 ] final   56.98 input   30.03 | X-H torsion
[ 2515 2510 2509 2506 ] final  -61.26 input  -89.99 | X-H torsion
[ 3721 3712 3711 3710 ] final -174.78 input -179.91 | X-H torsion
[ 3841 3832 3831 3830 ] final   92.38 input -179.91 | X-H torsion
[ 3767 3762 3761 3758 ] final   97.81 input  -89.99 | X-H torsion
[ 2472 2467 2466 2463 ] final -104.38 input  -89.97 | X-H torsion

> <Gold.Protein.ActiveResidues>
 VAL82   VAL86   LEU89   PHE106  VAL107  ASP110  VAL111  MET112  CYS114  THR115 
 CYS181  SER182  ILE183  PHE188  VAL189  ILE190  SER192  SER193  SER196  TRP342 
 PHE345  PHE346  HIS349  VAL350  TYR365  THR369  GLY372  TYR373 

> <Gold.Protein.RotatedAtoms>
    3.4410   -9.9829    4.1283 H   0  0  0  0  0  0  0  0  0  0  0  0  # atno 1303 bound_to 1298
    1.8824   -8.0120    7.3481 H   0  0  0  0  0  0  0  0  0  0  0  0  # atno 2461 bound_to 2456
   -4.2523   -5.4010    9.3912 H   0  0  0  0  0  0  0  0  0  0  0  0  # atno 2472 bound_to 2467
    2.8253   -8.5199    4.3892 H   0  0  0  0  0  0  0  0  0  0  0  0  # atno 2515 bound_to 2510
   -3.3310  -16.5801   13.6200 H   0  0  0  0  0  0  0  0  0  0  0  0  # atno 3721 bound_to 3712
   -4.1142  -23.3104   10.6010 H   0  0  0  0  0  0  0  0  0  0  0  0  # atno 3767 bound_to 3762
    2.8673  -20.9120    9.2393 H   0  0  0  0  0  0  0  0  0  0  0  0  # atno 3841 bound_to 3832
    4.1098   -8.4975    4.0161 LP  0  0  0  0  0  0  0  0  0  0  0  0  # atno 4297 bound_to 1298
    4.8116   -9.6407    4.9473 LP  0  0  0  0  0  0  0  0  0  0  0  0  # atno 4298 bound_to 1298
    0.3580   -8.5959    7.3992 LP  0  0  0  0  0  0  0  0  0  0  0  0  # atno 4299 bound_to 2456
    1.4976   -9.2001    8.4006 LP  0  0  0  0  0  0  0  0  0  0  0  0  # atno 4300 bound_to 2456
    2.3150   -9.0239    5.8559 LP  0  0  0  0  0  0  0  0  0  0  0  0  # atno 4301 bound_to 2510
    2.1562   -7.4553    5.4306 LP  0  0  0  0  0  0  0  0  0  0  0  0  # atno 4302 bound_to 2510
   -2.7636  -18.0470   13.2974 LP  0  0  0  0  0  0  0  0  0  0  0  0  # atno 4306 bound_to 3712
   -2.9183  -17.5374   14.8411 LP  0  0  0  0  0  0  0  0  0  0  0  0  # atno 4307 bound_to 3712
    1.4026  -20.2557    9.2468 LP  0  0  0  0  0  0  0  0  0  0  0  0  # atno 4314 bound_to 3832
    2.5146  -19.7930    8.1440 LP  0  0  0  0  0  0  0  0  0  0  0  0  # atno 4315 bound_to 3832
   -5.4728  -22.4443   10.3345 LP  0  0  0  0  0  0  0  0  0  0  0  0  # atno 4318 bound_to 3762
   -4.5402  -22.1207   11.6354 LP  0  0  0  0  0  0  0  0  0  0  0  0  # atno 4319 bound_to 3762
   -5.4957   -5.1651    8.3593 LP  0  0  0  0  0  0  0  0  0  0  0  0  # atno 4320 bound_to 2467
   -3.9688   -4.8275    7.8888 LP  0  0  0  0  0  0  0  0  0  0  0  0  # atno 4321 bound_to 2467

> <Gold.Score>
     Score     S(PLP)   S(hbond)     S(cho)   S(metal)  DE(clash)   DE(tors)     intcor
     26.76     -23.86       1.00       0.00       0.00       0.00       0.05       0.01

> <Gold.PLP.Fitness>
26.7621

> <Gold.PLP.PLP>
-23.8552

> <Gold.PLP.part.hbond>
-1.7608

> <Gold.PLP.part.metal>
0.0000

> <Gold.PLP.part.buried>
-3.8537

> <Gold.PLP.part.nonpolar>
-18.5107

> <Gold.PLP.part.repulsive>
0.1502

> <Gold.PLP.ligand.clash>
0.0000

> <Gold.PLP.ligand.torsion>
0.0491

> <Gold.PLP.Chemscore.Hbond>
1.0000

> <Gold.PLP.Chemscore.CHOScore>
0.0000

> <Gold.PLP.Chemscore.Metal>
0.0000

> <Gold.Chemscore.Hbonds>
donor molecule, donor type, donor heavy atom, donor atom, acceptor molecule, acceptor atom, score
      L1  H     9    13       P1  2456  1.00

> <Gold.PLP.Chemscore.Internal.Correction>
0.0052

