#       Name:                EN300-34862_i002
#       Creating user name   fsindt
#       Creation time:       Tue Feb 28 18:42:01 2023


#       File generated by GOLD software.
#

@<TRIPOS>MOLECULE
EN300-34862_i002|acide_2|mol2|6525|dock12
    13    13     1
SMALL
USER_CHARGES


@<TRIPOS>ATOM
      1 O1           2.7689 -17.1688  13.0739 O.co2          1 <1>               -1.0000
      2 C2           1.7817 -16.5019  13.3331 C.2            1 <1>                0.0000
      3 O3           1.6946 -15.9347  14.4088 O.co2          1 <1>                0.0000
      4 C4           0.6721 -16.3736  12.3215 C.3            1 <1>                0.0000
      5 C5          -0.4223 -15.4621  12.8920 C.3            1 <1>                0.0000
      6 S6          -0.5216 -14.0940  11.6948 S.3            1 <1>                0.0000
      7 C7           0.7362 -14.7037  10.6138 C.2            1 <1>                0.0000
      8 O8           1.1071 -14.1585   9.5919 O.2            1 <1>                0.0000
      9 N9           1.2158 -15.8497  11.0890 N.am           1 <1>                0.0000
     10 H10          0.2496 -17.3601  12.1307 H              1 <1>                0.0000
     11 H11         -1.3727 -15.9932  12.9455 H              1 <1>                0.0000
     12 H12         -0.1355 -15.0897  13.8754 H              1 <1>                0.0000
     13 H13          1.9177 -16.3247  10.6174 H              1 <1>                0.0000
@<TRIPOS>BOND
    1    1    2 ar    
    2    2    3 ar    
    3    2    4 1     
    4    4    5 1     
    5    4    9 1     
    6    4   10 1     
    7    5    6 1     
    8    5   11 1     
    9    5   12 1     
   10    6    7 1     
   11    7    8 2     
   12    7    9 am    
   13    9   13 1     
@<TRIPOS>SUBSTRUCTURE
      1 ****           1
@<TRIPOS>SET
DONOR_HYDROGENS      STATIC     ATOMS    <user>   **** ""
1 13
ATOM$RED        STATIC     ATOMS    COLORGROUP SYSTEM
1 13
@<TRIPOS>COMMENT
> <Gold.Version>
2022.2.0

> <Gold.Id.Protein>
3pbl|protein|mol2

> <Gold.Protein.RotatedTorsions>
[ 1303 1298 1297 1294 ] final -178.85 input  179.99 | X-H torsion
[ 2461 2456 2455 2452 ] final  -74.68 input   30.03 | X-H torsion
[ 2515 2510 2509 2506 ] final  140.38 input  -89.99 | X-H torsion
[ 3721 3712 3711 3710 ] final  103.85 input -179.91 | X-H torsion
[ 3841 3832 3831 3830 ] final -151.94 input -179.91 | X-H torsion
[ 3767 3762 3761 3758 ] final  176.73 input  -89.99 | X-H torsion
[ 2472 2467 2466 2463 ] final  178.80 input  -89.97 | X-H torsion

> <Gold.Protein.ActiveResidues>
 VAL82   VAL86   LEU89   PHE106  VAL107  ASP110  VAL111  MET112  CYS114  THR115 
 CYS181  SER182  ILE183  PHE188  VAL189  ILE190  SER192  SER193  SER196  TRP342 
 PHE345  PHE346  HIS349  VAL350  TYR365  THR369  GLY372  TYR373 

> <Gold.Protein.RotatedAtoms>
    4.8489   -8.8600    4.6709 H   0  0  0  0  0  0  0  0  0  0  0  0  # atno 1303 bound_to 1298
    0.3311   -8.7346    7.5285 H   0  0  0  0  0  0  0  0  0  0  0  0  # atno 2461 bound_to 2456
   -5.3576   -5.3828    9.0035 H   0  0  0  0  0  0  0  0  0  0  0  0  # atno 2472 bound_to 2467
    2.1009   -8.4932    6.0927 H   0  0  0  0  0  0  0  0  0  0  0  0  # atno 2515 bound_to 2510
   -2.8872  -17.4440   13.0438 H   0  0  0  0  0  0  0  0  0  0  0  0  # atno 3721 bound_to 3712
   -4.0661  -22.5731   11.5448 H   0  0  0  0  0  0  0  0  0  0  0  0  # atno 3767 bound_to 3762
    2.6531  -19.7684    8.3479 H   0  0  0  0  0  0  0  0  0  0  0  0  # atno 3841 bound_to 3832
    4.0240  -10.2689    4.6438 LP  0  0  0  0  0  0  0  0  0  0  0  0  # atno 4297 bound_to 1298
    3.4890   -8.9927    3.7768 LP  0  0  0  0  0  0  0  0  0  0  0  0  # atno 4298 bound_to 1298
    1.6702   -9.1197    8.3806 LP  0  0  0  0  0  0  0  0  0  0  0  0  # atno 4299 bound_to 2456
    1.7362   -7.9539    7.2390 LP  0  0  0  0  0  0  0  0  0  0  0  0  # atno 4300 bound_to 2456
    2.3986   -7.4642    4.8605 LP  0  0  0  0  0  0  0  0  0  0  0  0  # atno 4301 bound_to 2510
    2.7974   -9.0417    4.7216 LP  0  0  0  0  0  0  0  0  0  0  0  0  # atno 4302 bound_to 2510
   -2.6879  -17.9860   14.5419 LP  0  0  0  0  0  0  0  0  0  0  0  0  # atno 4306 bound_to 3712
   -3.5064  -16.6009   14.2619 LP  0  0  0  0  0  0  0  0  0  0  0  0  # atno 4307 bound_to 3712
    2.7653  -21.1318    9.1875 LP  0  0  0  0  0  0  0  0  0  0  0  0  # atno 4314 bound_to 3832
    1.3993  -20.2380    9.2331 LP  0  0  0  0  0  0  0  0  0  0  0  0  # atno 4315 bound_to 3832
   -4.6148  -23.2647   10.1710 LP  0  0  0  0  0  0  0  0  0  0  0  0  # atno 4318 bound_to 3762
   -5.4462  -22.0372   10.8556 LP  0  0  0  0  0  0  0  0  0  0  0  0  # atno 4319 bound_to 3762
   -4.6237   -4.8168    7.6591 LP  0  0  0  0  0  0  0  0  0  0  0  0  # atno 4320 bound_to 2467
   -3.7358   -5.1940    8.9767 LP  0  0  0  0  0  0  0  0  0  0  0  0  # atno 4321 bound_to 2467

> <Gold.Score>
     Score     S(PLP)   S(hbond)     S(cho)   S(metal)  DE(clash)   DE(tors)     intcor
     28.53     -22.91       1.88       0.00       0.00       0.00       0.01       0.01

> <Gold.PLP.Fitness>
28.5265

> <Gold.PLP.PLP>
-22.9057

> <Gold.PLP.part.hbond>
-2.0000

> <Gold.PLP.part.metal>
0.0000

> <Gold.PLP.part.buried>
-5.2464

> <Gold.PLP.part.nonpolar>
-15.9429

> <Gold.PLP.part.repulsive>
0.1910

> <Gold.PLP.ligand.clash>
0.0000

> <Gold.PLP.ligand.torsion>
0.0122

> <Gold.PLP.Chemscore.Hbond>
1.8800

> <Gold.PLP.Chemscore.CHOScore>
0.0000

> <Gold.PLP.Chemscore.Metal>
0.0000

> <Gold.Chemscore.Hbonds>
donor molecule, donor type, donor heavy atom, donor atom, acceptor molecule, acceptor atom, score
      L1  H     9    13       P1  1227  1.00
      P1  H  2305  2313       L1     3  0.88

> <Gold.PLP.Chemscore.Internal.Correction>
0.0052

