#       Name:                EN300-34862_i002
#       Creating user name   fsindt
#       Creation time:       Tue Feb 28 18:41:58 2023


#       File generated by GOLD software.
#

@<TRIPOS>MOLECULE
EN300-34862_i002|acide_2|mol2|6525|dock3
    13    13     1
SMALL
USER_CHARGES


@<TRIPOS>ATOM
      1 O1           0.8494 -16.1347  14.3982 O.co2          1 <1>               -1.0000
      2 C2           1.5373 -16.5492  13.4809 C.2            1 <1>                0.0000
      3 O3           2.0061 -15.7689  12.6698 O.co2          1 <1>                0.0000
      4 C4           1.8134 -18.0252  13.3532 C.3            1 <1>                0.0000
      5 C5           1.0261 -18.7770  14.4343 C.3            1 <1>                0.0000
      6 S6          -0.0426 -19.9094  13.4907 S.3            1 <1>                0.0000
      7 C7           0.5226 -19.4077  11.8934 C.2            1 <1>                0.0000
      8 O8           0.1265 -19.8593  10.8359 O.2            1 <1>                0.0000
      9 N9           1.4468 -18.4603  12.0245 N.am           1 <1>                0.0000
     10 H10          2.8788 -18.2013  13.5019 H              1 <1>                0.0000
     11 H11          1.7025 -19.3380  15.0793 H              1 <1>                0.0000
     12 H12          0.4242 -18.0832  15.0212 H              1 <1>                0.0000
     13 H13          1.8667 -18.0683  11.2429 H              1 <1>                0.0000
@<TRIPOS>BOND
    1    1    2 ar    
    2    2    3 ar    
    3    2    4 1     
    4    4    5 1     
    5    4    9 1     
    6    4   10 1     
    7    5    6 1     
    8    5   11 1     
    9    5   12 1     
   10    6    7 1     
   11    7    8 2     
   12    7    9 am    
   13    9   13 1     
@<TRIPOS>SUBSTRUCTURE
      1 ****           1
@<TRIPOS>SET
DONOR_HYDROGENS      STATIC     ATOMS    <user>   **** ""
1 13
ATOM$RED        STATIC     ATOMS    COLORGROUP SYSTEM
1 13
@<TRIPOS>COMMENT
> <Gold.Version>
2022.2.0

> <Gold.Id.Protein>
3pbl|protein|mol2

> <Gold.Protein.RotatedTorsions>
[ 1303 1298 1297 1294 ] final  -16.57 input  179.99 | X-H torsion
[ 2461 2456 2455 2452 ] final  169.18 input   30.03 | X-H torsion
[ 2515 2510 2509 2506 ] final  -58.57 input  -89.99 | X-H torsion
[ 3721 3712 3711 3710 ] final -162.82 input -179.91 | X-H torsion
[ 3841 3832 3831 3830 ] final  -28.89 input -179.91 | X-H torsion
[ 3767 3762 3761 3758 ] final  150.04 input  -89.99 | X-H torsion
[ 2472 2467 2466 2463 ] final -116.22 input  -89.97 | X-H torsion

> <Gold.Protein.ActiveResidues>
 VAL82   VAL86   LEU89   PHE106  VAL107  ASP110  VAL111  MET112  CYS114  THR115 
 CYS181  SER182  ILE183  PHE188  VAL189  ILE190  SER192  SER193  SER196  TRP342 
 PHE345  PHE346  HIS349  VAL350  TYR365  THR369  GLY372  TYR373 

> <Gold.Protein.RotatedAtoms>
    3.3328   -9.6389    3.9196 H   0  0  0  0  0  0  0  0  0  0  0  0  # atno 1303 bound_to 1298
    1.6148   -9.1490    8.3905 H   0  0  0  0  0  0  0  0  0  0  0  0  # atno 2461 bound_to 2456
   -4.4399   -5.4352    9.4289 H   0  0  0  0  0  0  0  0  0  0  0  0  # atno 2472 bound_to 2467
    2.8206   -8.4772    4.3786 H   0  0  0  0  0  0  0  0  0  0  0  0  # atno 2515 bound_to 2510
   -3.3388  -16.5393   13.7958 H   0  0  0  0  0  0  0  0  0  0  0  0  # atno 3721 bound_to 3712
   -3.9190  -22.8969   11.2939 H   0  0  0  0  0  0  0  0  0  0  0  0  # atno 3767 bound_to 3762
    1.5735  -20.1439    9.3526 H   0  0  0  0  0  0  0  0  0  0  0  0  # atno 3841 bound_to 3832
    4.4520   -8.4979    4.2540 LP  0  0  0  0  0  0  0  0  0  0  0  0  # atno 4297 bound_to 1298
    4.5777   -9.9844    4.9182 LP  0  0  0  0  0  0  0  0  0  0  0  0  # atno 4298 bound_to 1298
    1.7871   -7.9703    7.2732 LP  0  0  0  0  0  0  0  0  0  0  0  0  # atno 4299 bound_to 2456
    0.3361   -8.6890    7.4846 LP  0  0  0  0  0  0  0  0  0  0  0  0  # atno 4300 bound_to 2456
    2.3333   -9.0520    5.8270 LP  0  0  0  0  0  0  0  0  0  0  0  0  # atno 4301 bound_to 2510
    2.1427   -7.4699    5.4701 LP  0  0  0  0  0  0  0  0  0  0  0  0  # atno 4302 bound_to 2510
   -2.8442  -17.9278   13.1591 LP  0  0  0  0  0  0  0  0  0  0  0  0  # atno 4306 bound_to 3712
   -2.8288  -17.7037   14.7765 LP  0  0  0  0  0  0  0  0  0  0  0  0  # atno 4307 bound_to 3712
    2.5752  -19.8290    8.1387 LP  0  0  0  0  0  0  0  0  0  0  0  0  # atno 4314 bound_to 3832
    2.8365  -21.1070    9.1212 LP  0  0  0  0  0  0  0  0  0  0  0  0  # atno 4315 bound_to 3832
   -4.9826  -23.0575   10.0652 LP  0  0  0  0  0  0  0  0  0  0  0  0  # atno 4318 bound_to 3762
   -5.2255  -21.9207   11.2121 LP  0  0  0  0  0  0  0  0  0  0  0  0  # atno 4319 bound_to 3762
   -5.4425   -5.0965    8.1854 LP  0  0  0  0  0  0  0  0  0  0  0  0  # atno 4320 bound_to 2467
   -3.8345   -4.8618    8.0250 LP  0  0  0  0  0  0  0  0  0  0  0  0  # atno 4321 bound_to 2467

> <Gold.Score>
     Score     S(PLP)   S(hbond)     S(cho)   S(metal)  DE(clash)   DE(tors)     intcor
     27.43     -18.55       3.00       0.00       0.00       0.00       0.06       0.01

> <Gold.PLP.Fitness>
27.4308

> <Gold.PLP.PLP>
-18.5457

> <Gold.PLP.part.hbond>
-3.0000

> <Gold.PLP.part.metal>
0.0000

> <Gold.PLP.part.buried>
-4.3403

> <Gold.PLP.part.nonpolar>
-11.4836

> <Gold.PLP.part.repulsive>
0.1818

> <Gold.PLP.ligand.clash>
0.0000

> <Gold.PLP.ligand.torsion>
0.0600

> <Gold.PLP.Chemscore.Hbond>
3.0000

> <Gold.PLP.Chemscore.CHOScore>
0.0000

> <Gold.PLP.Chemscore.Metal>
0.0000

> <Gold.Chemscore.Hbonds>
donor molecule, donor type, donor heavy atom, donor atom, acceptor molecule, acceptor atom, score
      L1  H     9    13       P1  1227  1.00
      P1  H  2305  2313       L1     1  1.00
      P1  H  3832  3841       L1     8  1.00

> <Gold.PLP.Chemscore.Internal.Correction>
0.0052

