#       Name:                EN300-34862_i002
#       Creating user name   fsindt
#       Creation time:       Tue Feb 28 18:42:03 2023


#       File generated by GOLD software.
#

@<TRIPOS>MOLECULE
EN300-34862_i002|acide_2|mol2|6525|dock19
    13    13     1
SMALL
USER_CHARGES


@<TRIPOS>ATOM
      1 O1           1.0908 -15.6777   7.0299 O.co2          1 <1>               -1.0000
      2 C2           0.4547 -14.7572   7.5138 C.2            1 <1>                0.0000
      3 O3          -0.5909 -14.4011   6.9976 O.co2          1 <1>                0.0000
      4 C4           0.9573 -14.0635   8.7537 C.3            1 <1>                0.0000
      5 C5           0.0333 -12.8818   9.0756 C.3            1 <1>                0.0000
      6 S6          -0.5907 -13.2552  10.7447 S.3            1 <1>                0.0000
      7 C7           0.2873 -14.7770  10.9333 C.2            1 <1>                0.0000
      8 O8           0.2410 -15.4963  11.9128 O.2            1 <1>                0.0000
      9 N9           1.0060 -15.0158   9.8399 N.am           1 <1>                0.0000
     10 H10          1.9634 -13.6877   8.5672 H              1 <1>                0.0000
     11 H11          0.5943 -11.9472   9.0772 H              1 <1>                0.0000
     12 H12         -0.7890 -12.8339   8.3617 H              1 <1>                0.0000
     13 H13          1.5523 -15.8144   9.7726 H              1 <1>                0.0000
@<TRIPOS>BOND
    1    1    2 ar    
    2    2    3 ar    
    3    2    4 1     
    4    4    5 1     
    5    4    9 1     
    6    4   10 1     
    7    5    6 1     
    8    5   11 1     
    9    5   12 1     
   10    6    7 1     
   11    7    8 2     
   12    7    9 am    
   13    9   13 1     
@<TRIPOS>SUBSTRUCTURE
      1 ****           1
@<TRIPOS>SET
DONOR_HYDROGENS      STATIC     ATOMS    <user>   **** ""
1 13
ATOM$RED        STATIC     ATOMS    COLORGROUP SYSTEM
1 13
@<TRIPOS>COMMENT
> <Gold.Version>
2022.2.0

> <Gold.Id.Protein>
3pbl|protein|mol2

> <Gold.Protein.RotatedTorsions>
[ 1303 1298 1297 1294 ] final -146.06 input  179.99 | X-H torsion
[ 2461 2456 2455 2452 ] final  161.65 input   30.03 | X-H torsion
[ 2515 2510 2509 2506 ] final    0.06 input  -89.99 | X-H torsion
[ 3721 3712 3711 3710 ] final  -46.02 input -179.91 | X-H torsion
[ 3841 3832 3831 3830 ] final -179.50 input -179.91 | X-H torsion
[ 3767 3762 3761 3758 ] final  179.35 input  -89.99 | X-H torsion
[ 2472 2467 2466 2463 ] final  147.91 input  -89.97 | X-H torsion

> <Gold.Protein.ActiveResidues>
 VAL82   VAL86   LEU89   PHE106  VAL107  ASP110  VAL111  MET112  CYS114  THR115 
 CYS181  SER182  ILE183  PHE188  VAL189  ILE190  SER192  SER193  SER196  TRP342 
 PHE345  PHE346  HIS349  VAL350  TYR365  THR369  GLY372  TYR373 

> <Gold.Protein.RotatedAtoms>
    4.5656   -8.5429    4.3510 H   0  0  0  0  0  0  0  0  0  0  0  0  # atno 1303 bound_to 1298
    1.7214   -9.0899    8.3687 H   0  0  0  0  0  0  0  0  0  0  0  0  # atno 2461 bound_to 2456
   -5.5093   -5.2354    8.5480 H   0  0  0  0  0  0  0  0  0  0  0  0  # atno 2472 bound_to 2467
    2.5405   -7.6284    4.6086 H   0  0  0  0  0  0  0  0  0  0  0  0  # atno 2515 bound_to 2510
   -2.7012  -17.5108   14.7049 H   0  0  0  0  0  0  0  0  0  0  0  0  # atno 3721 bound_to 3712
   -4.0888  -22.5407   11.5622 H   0  0  0  0  0  0  0  0  0  0  0  0  # atno 3767 bound_to 3762
    2.9534  -20.0443    8.4090 H   0  0  0  0  0  0  0  0  0  0  0  0  # atno 3841 bound_to 3832
    4.4647  -10.0849    4.8786 LP  0  0  0  0  0  0  0  0  0  0  0  0  # atno 4297 bound_to 1298
    3.3317   -9.4939    3.8619 LP  0  0  0  0  0  0  0  0  0  0  0  0  # atno 4298 bound_to 1298
    1.6856   -7.9410    7.2085 LP  0  0  0  0  0  0  0  0  0  0  0  0  # atno 4299 bound_to 2456
    0.3309   -8.7775    7.5711 LP  0  0  0  0  0  0  0  0  0  0  0  0  # atno 4300 bound_to 2456
    2.7149   -9.2039    5.0001 LP  0  0  0  0  0  0  0  0  0  0  0  0  # atno 4301 bound_to 2510
    2.0413   -8.1671    6.0668 LP  0  0  0  0  0  0  0  0  0  0  0  0  # atno 4302 bound_to 2510
   -3.5666  -16.5793   13.7244 LP  0  0  0  0  0  0  0  0  0  0  0  0  # atno 4306 bound_to 3712
   -2.8425  -17.9304   13.1616 LP  0  0  0  0  0  0  0  0  0  0  0  0  # atno 4307 bound_to 3712
    2.3808  -21.1399    9.4328 LP  0  0  0  0  0  0  0  0  0  0  0  0  # atno 4314 bound_to 3832
    1.4368  -19.9112    8.9172 LP  0  0  0  0  0  0  0  0  0  0  0  0  # atno 4315 bound_to 3832
   -4.5784  -23.2782   10.1899 LP  0  0  0  0  0  0  0  0  0  0  0  0  # atno 4318 bound_to 3762
   -5.4599  -22.0561   10.8192 LP  0  0  0  0  0  0  0  0  0  0  0  0  # atno 4319 bound_to 3762
   -4.1357   -4.8056    7.7769 LP  0  0  0  0  0  0  0  0  0  0  0  0  # atno 4320 bound_to 2467
   -4.0721   -5.3526    9.3142 LP  0  0  0  0  0  0  0  0  0  0  0  0  # atno 4321 bound_to 2467

> <Gold.Score>
     Score     S(PLP)   S(hbond)     S(cho)   S(metal)  DE(clash)   DE(tors)     intcor
     26.13     -23.19       1.00       0.00       0.00       0.00       0.03       0.01

> <Gold.PLP.Fitness>
26.1348

> <Gold.PLP.PLP>
-23.1850

> <Gold.PLP.part.hbond>
-1.0000

> <Gold.PLP.part.metal>
0.0000

> <Gold.PLP.part.buried>
-4.9028

> <Gold.PLP.part.nonpolar>
-18.0565

> <Gold.PLP.part.repulsive>
0.3133

> <Gold.PLP.ligand.clash>
0.0000

> <Gold.PLP.ligand.torsion>
0.0277

> <Gold.PLP.Chemscore.Hbond>
1.0000

> <Gold.PLP.Chemscore.CHOScore>
0.0000

> <Gold.PLP.Chemscore.Metal>
0.0000

> <Gold.Chemscore.Hbonds>
donor molecule, donor type, donor heavy atom, donor atom, acceptor molecule, acceptor atom, score
      L1  H     9    13       P1  1227  1.00

> <Gold.PLP.Chemscore.Internal.Correction>
0.0052

