#       Name:                EN300-34862_i002
#       Creating user name   fsindt
#       Creation time:       Tue Feb 28 18:41:59 2023


#       File generated by GOLD software.
#

@<TRIPOS>MOLECULE
EN300-34862_i002|acide_2|mol2|6525|dock6
    13    13     1
SMALL
USER_CHARGES


@<TRIPOS>ATOM
      1 O1          -0.7447 -17.8504  14.6271 O.co2          1 <1>               -1.0000
      2 C2           0.3644 -17.3784  14.4436 C.2            1 <1>                0.0000
      3 O3           0.5579 -16.1883  14.6243 O.co2          1 <1>                0.0000
      4 C4           1.4976 -18.2671  13.9997 C.3            1 <1>                0.0000
      5 C5           1.6526 -19.4187  15.0015 C.3            1 <1>                0.0000
      6 S6           1.4055 -20.9140  13.9925 S.3            1 <1>                0.0000
      7 C7           1.1385 -20.0641  12.4665 C.2            1 <1>                0.0000
      8 O8           0.9121 -20.5976  11.3973 O.2            1 <1>                0.0000
      9 N9           1.2222 -18.7518  12.6661 N.am           1 <1>                0.0000
     10 H10          2.4191 -17.6852  13.9815 H              1 <1>                0.0000
     11 H11          2.6510 -19.4132  15.4390 H              1 <1>                0.0000
     12 H12          0.8927 -19.3530  15.7802 H              1 <1>                0.0000
     13 H13          1.1004 -18.1315  11.9305 H              1 <1>                0.0000
@<TRIPOS>BOND
    1    1    2 ar    
    2    2    3 ar    
    3    2    4 1     
    4    4    5 1     
    5    4    9 1     
    6    4   10 1     
    7    5    6 1     
    8    5   11 1     
    9    5   12 1     
   10    6    7 1     
   11    7    8 2     
   12    7    9 am    
   13    9   13 1     
@<TRIPOS>SUBSTRUCTURE
      1 ****           1
@<TRIPOS>SET
DONOR_HYDROGENS      STATIC     ATOMS    <user>   **** ""
1 13
ATOM$RED        STATIC     ATOMS    COLORGROUP SYSTEM
1 13
@<TRIPOS>COMMENT
> <Gold.Version>
2022.2.0

> <Gold.Id.Protein>
3pbl|protein|mol2

> <Gold.Protein.RotatedTorsions>
[ 1303 1298 1297 1294 ] final   30.47 input  179.99 | X-H torsion
[ 2461 2456 2455 2452 ] final   28.28 input   30.03 | X-H torsion
[ 2515 2510 2509 2506 ] final  113.54 input  -89.99 | X-H torsion
[ 3721 3712 3711 3710 ] final  -12.90 input -179.91 | X-H torsion
[ 3841 3832 3831 3830 ] final   -2.87 input -179.91 | X-H torsion
[ 3767 3762 3761 3758 ] final -166.83 input  -89.99 | X-H torsion
[ 2472 2467 2466 2463 ] final   92.40 input  -89.97 | X-H torsion

> <Gold.Protein.ActiveResidues>
 VAL82   VAL86   LEU89   PHE106  VAL107  ASP110  VAL111  MET112  CYS114  THR115 
 CYS181  SER182  ILE183  PHE188  VAL189  ILE190  SER192  SER193  SER196  TRP342 
 PHE345  PHE346  HIS349  VAL350  TYR365  THR369  GLY372  TYR373 

> <Gold.Protein.RotatedAtoms>
    3.6367  -10.1823    4.3417 H   0  0  0  0  0  0  0  0  0  0  0  0  # atno 1303 bound_to 1298
    1.4883   -7.9170    7.1157 H   0  0  0  0  0  0  0  0  0  0  0  0  # atno 2461 bound_to 2456
   -5.1331   -4.9301    7.8156 H   0  0  0  0  0  0  0  0  0  0  0  0  # atno 2472 bound_to 2467
    2.0327   -8.0649    6.0354 H   0  0  0  0  0  0  0  0  0  0  0  0  # atno 2515 bound_to 2510
   -2.5244  -17.8653   14.4101 H   0  0  0  0  0  0  0  0  0  0  0  0  # atno 3721 bound_to 3712
   -4.2283  -22.3745   11.6286 H   0  0  0  0  0  0  0  0  0  0  0  0  # atno 3767 bound_to 3762
    1.7127  -20.4537    9.5438 H   0  0  0  0  0  0  0  0  0  0  0  0  # atno 3841 bound_to 3832
    3.8207   -8.6308    3.8669 LP  0  0  0  0  0  0  0  0  0  0  0  0  # atno 4297 bound_to 1298
    4.9050   -9.3079    4.8831 LP  0  0  0  0  0  0  0  0  0  0  0  0  # atno 4298 bound_to 1298
    0.3604   -8.9260    7.7298 LP  0  0  0  0  0  0  0  0  0  0  0  0  # atno 4299 bound_to 2456
    1.8892   -8.9650    8.3024 LP  0  0  0  0  0  0  0  0  0  0  0  0  # atno 4300 bound_to 2456
    2.5839   -7.7008    4.5423 LP  0  0  0  0  0  0  0  0  0  0  0  0  # atno 4301 bound_to 2510
    2.6803   -9.2336    5.0972 LP  0  0  0  0  0  0  0  0  0  0  0  0  # atno 4302 bound_to 2510
   -3.5052  -16.6023   14.2663 LP  0  0  0  0  0  0  0  0  0  0  0  0  # atno 4306 bound_to 3712
   -3.1080  -17.4982   12.9601 LP  0  0  0  0  0  0  0  0  0  0  0  0  # atno 4307 bound_to 3712
    2.1879  -19.6634    8.2302 LP  0  0  0  0  0  0  0  0  0  0  0  0  # atno 4314 bound_to 3832
    3.0630  -20.9148    8.8089 LP  0  0  0  0  0  0  0  0  0  0  0  0  # atno 4315 bound_to 3832
   -4.3932  -23.3262   10.3118 LP  0  0  0  0  0  0  0  0  0  0  0  0  # atno 4318 bound_to 3762
   -5.5057  -22.1742   10.6310 LP  0  0  0  0  0  0  0  0  0  0  0  0  # atno 4319 bound_to 3762
   -3.6410   -5.0028    8.4752 LP  0  0  0  0  0  0  0  0  0  0  0  0  # atno 4320 bound_to 2467
   -4.9429   -5.4607    9.3482 LP  0  0  0  0  0  0  0  0  0  0  0  0  # atno 4321 bound_to 2467

> <Gold.Score>
     Score     S(PLP)   S(hbond)     S(cho)   S(metal)  DE(clash)   DE(tors)     intcor
     27.64     -18.77       2.99       0.00       0.00       0.00       0.06       0.01

> <Gold.PLP.Fitness>
27.6432

> <Gold.PLP.PLP>
-18.7739

> <Gold.PLP.part.hbond>
-3.0000

> <Gold.PLP.part.metal>
0.0000

> <Gold.PLP.part.buried>
-3.7963

> <Gold.PLP.part.nonpolar>
-12.1217

> <Gold.PLP.part.repulsive>
0.1001

> <Gold.PLP.ligand.clash>
0.0000

> <Gold.PLP.ligand.torsion>
0.0559

> <Gold.PLP.Chemscore.Hbond>
2.9920

> <Gold.PLP.Chemscore.CHOScore>
0.0000

> <Gold.PLP.Chemscore.Metal>
0.0000

> <Gold.Chemscore.Hbonds>
donor molecule, donor type, donor heavy atom, donor atom, acceptor molecule, acceptor atom, score
      P1  H  2305  2313       L1     3  1.00
      P1  H  3712  3721       L1     1  0.99
      P1  H  3832  3841       L1     8  1.00

> <Gold.PLP.Chemscore.Internal.Correction>
0.0052

