#       Name:                EN300-34862_i002
#       Creating user name   fsindt
#       Creation time:       Tue Feb 28 18:42:02 2023


#       File generated by GOLD software.
#

@<TRIPOS>MOLECULE
EN300-34862_i002|acide_2|mol2|6525|dock15
    13    13     1
SMALL
USER_CHARGES


@<TRIPOS>ATOM
      1 O1          -0.2724 -15.2098  12.6585 O.co2          1 <1>               -1.0000
      2 C2          -0.0124 -15.9764  13.5702 C.2            1 <1>                0.0000
      3 O3          -0.0999 -15.6002  14.7266 O.co2          1 <1>                0.0000
      4 C4           0.4111 -17.3907  13.2679 C.3            1 <1>                0.0000
      5 C5           1.8467 -17.6008  13.7666 C.3            1 <1>                0.0000
      6 S6           1.6988 -18.9603  14.9686 S.3            1 <1>                0.0000
      7 C7          -0.0459 -19.1754  14.7894 C.2            1 <1>                0.0000
      8 O8          -0.7166 -19.9937  15.3890 O.2            1 <1>                0.0000
      9 N9          -0.5136 -18.3050  13.8991 N.am           1 <1>                0.0000
     10 H10          0.3827 -17.5471  12.1895 H              1 <1>                0.0000
     11 H11          2.4995 -17.8884  12.9424 H              1 <1>                0.0000
     12 H12          2.2183 -16.6990  14.2531 H              1 <1>                0.0000
     13 H13         -1.4577 -18.2838  13.6778 H              1 <1>                0.0000
@<TRIPOS>BOND
    1    1    2 ar    
    2    2    3 ar    
    3    2    4 1     
    4    4    5 1     
    5    4    9 1     
    6    4   10 1     
    7    5    6 1     
    8    5   11 1     
    9    5   12 1     
   10    6    7 1     
   11    7    8 2     
   12    7    9 am    
   13    9   13 1     
@<TRIPOS>SUBSTRUCTURE
      1 ****           1
@<TRIPOS>SET
DONOR_HYDROGENS      STATIC     ATOMS    <user>   **** ""
1 13
ATOM$RED        STATIC     ATOMS    COLORGROUP SYSTEM
1 13
@<TRIPOS>COMMENT
> <Gold.Version>
2022.2.0

> <Gold.Id.Protein>
3pbl|protein|mol2

> <Gold.Protein.RotatedTorsions>
[ 1303 1298 1297 1294 ] final -106.30 input  179.99 | X-H torsion
[ 2461 2456 2455 2452 ] final  156.97 input   30.03 | X-H torsion
[ 2515 2510 2509 2506 ] final  155.82 input  -89.99 | X-H torsion
[ 3721 3712 3711 3710 ] final -146.74 input -179.91 | X-H torsion
[ 3841 3832 3831 3830 ] final -152.89 input -179.91 | X-H torsion
[ 3767 3762 3761 3758 ] final    6.64 input  -89.99 | X-H torsion
[ 2472 2467 2466 2463 ] final   19.87 input  -89.97 | X-H torsion

> <Gold.Protein.ActiveResidues>
 VAL82   VAL86   LEU89   PHE106  VAL107  ASP110  VAL111  MET112  CYS114  THR115 
 CYS181  SER182  ILE183  PHE188  VAL189  ILE190  SER192  SER193  SER196  TRP342 
 PHE345  PHE346  HIS349  VAL350  TYR365  THR369  GLY372  TYR373 

> <Gold.Protein.RotatedAtoms>
    4.0444   -8.5168    3.9787 H   0  0  0  0  0  0  0  0  0  0  0  0  # atno 1303 bound_to 1298
    1.7836   -9.0489    8.3495 H   0  0  0  0  0  0  0  0  0  0  0  0  # atno 2461 bound_to 2456
   -4.0237   -4.8190    7.8461 H   0  0  0  0  0  0  0  0  0  0  0  0  # atno 2472 bound_to 2467
    2.1741   -8.7297    6.0401 H   0  0  0  0  0  0  0  0  0  0  0  0  # atno 2515 bound_to 2510
   -3.3195  -16.5354   14.0372 H   0  0  0  0  0  0  0  0  0  0  0  0  # atno 3721 bound_to 3712
   -5.2593  -22.7976   10.1109 H   0  0  0  0  0  0  0  0  0  0  0  0  # atno 3767 bound_to 3762
    2.6651  -19.7764    8.3476 H   0  0  0  0  0  0  0  0  0  0  0  0  # atno 3841 bound_to 3832
    4.8410   -9.5693    4.9400 LP  0  0  0  0  0  0  0  0  0  0  0  0  # atno 4297 bound_to 1298
    3.4768  -10.0355    4.1730 LP  0  0  0  0  0  0  0  0  0  0  0  0  # atno 4298 bound_to 1298
    1.6187   -7.9285    7.1726 LP  0  0  0  0  0  0  0  0  0  0  0  0  # atno 4299 bound_to 2456
    0.3356   -8.8309    7.6262 LP  0  0  0  0  0  0  0  0  0  0  0  0  # atno 4300 bound_to 2456
    2.2928   -7.4113    5.0844 LP  0  0  0  0  0  0  0  0  0  0  0  0  # atno 4301 bound_to 2510
    2.8300   -8.8579    4.5504 LP  0  0  0  0  0  0  0  0  0  0  0  0  # atno 4302 bound_to 2510
   -2.9684  -17.7317   13.0256 LP  0  0  0  0  0  0  0  0  0  0  0  0  # atno 4306 bound_to 3712
   -2.7268  -17.9042   14.6313 LP  0  0  0  0  0  0  0  0  0  0  0  0  # atno 4307 bound_to 3712
    2.7535  -21.1349    9.1976 LP  0  0  0  0  0  0  0  0  0  0  0  0  # atno 4314 bound_to 3832
    1.3973  -20.2257    9.2233 LP  0  0  0  0  0  0  0  0  0  0  0  0  # atno 4315 bound_to 3832
   -4.9395  -21.9419   11.4645 LP  0  0  0  0  0  0  0  0  0  0  0  0  # atno 4318 bound_to 3762
   -3.9288  -23.1356   10.9954 LP  0  0  0  0  0  0  0  0  0  0  0  0  # atno 4319 bound_to 3762
   -4.1879   -5.3851    9.3689 LP  0  0  0  0  0  0  0  0  0  0  0  0  # atno 4320 bound_to 2467
   -5.5053   -5.1894    8.4240 LP  0  0  0  0  0  0  0  0  0  0  0  0  # atno 4321 bound_to 2467

> <Gold.Score>
     Score     S(PLP)   S(hbond)     S(cho)   S(metal)  DE(clash)   DE(tors)     intcor
     24.84     -18.87       2.00       0.00       0.00       0.00       0.01       0.01

> <Gold.PLP.Fitness>
24.8432

> <Gold.PLP.PLP>
-18.8671

> <Gold.PLP.part.hbond>
-2.0000

> <Gold.PLP.part.metal>
0.0000

> <Gold.PLP.part.buried>
-3.8835

> <Gold.PLP.part.nonpolar>
-13.0736

> <Gold.PLP.part.repulsive>
0.1913

> <Gold.PLP.ligand.clash>
0.0000

> <Gold.PLP.ligand.torsion>
0.0145

> <Gold.PLP.Chemscore.Hbond>
2.0000

> <Gold.PLP.Chemscore.CHOScore>
0.0000

> <Gold.PLP.Chemscore.Metal>
0.0000

> <Gold.Chemscore.Hbonds>
donor molecule, donor type, donor heavy atom, donor atom, acceptor molecule, acceptor atom, score
      L1  H     9    13       P1  3712  1.00
      P1  H  2305  2313       L1     3  1.00

> <Gold.PLP.Chemscore.Internal.Correction>
0.0052

