#       Name:                EN300-34862_i002
#       Creating user name   fsindt
#       Creation time:       Tue Feb 28 18:42:02 2023


#       File generated by GOLD software.
#

@<TRIPOS>MOLECULE
EN300-34862_i002|acide_2|mol2|6525|dock16
    13    13     1
SMALL
USER_CHARGES


@<TRIPOS>ATOM
      1 O1          -0.6972 -16.6529  13.2951 O.co2          1 <1>               -1.0000
      2 C2           0.4752 -16.6360  13.6291 C.2            1 <1>                0.0000
      3 O3           0.9767 -15.6041  14.0417 O.co2          1 <1>                0.0000
      4 C4           1.3028 -17.8921  13.5381 C.3            1 <1>                0.0000
      5 C5           0.7267 -18.9418  14.4973 C.3            1 <1>                0.0000
      6 S6           0.2961 -20.3385  13.4116 S.3            1 <1>                0.0000
      7 C7           0.8294 -19.5753  11.9097 C.2            1 <1>                0.0000
      8 O8           0.7727 -20.0838  10.8064 O.2            1 <1>                0.0000
      9 N9           1.3016 -18.3596  12.1703 N.am           1 <1>                0.0000
     10 H10          2.3271 -17.6647  13.8334 H              1 <1>                0.0000
     11 H11          1.4762 -19.2432  15.2292 H              1 <1>                0.0000
     12 H12         -0.1627 -18.5568  14.9960 H              1 <1>                0.0000
     13 H13          1.6386 -17.7969  11.4557 H              1 <1>                0.0000
@<TRIPOS>BOND
    1    1    2 ar    
    2    2    3 ar    
    3    2    4 1     
    4    4    5 1     
    5    4    9 1     
    6    4   10 1     
    7    5    6 1     
    8    5   11 1     
    9    5   12 1     
   10    6    7 1     
   11    7    8 2     
   12    7    9 am    
   13    9   13 1     
@<TRIPOS>SUBSTRUCTURE
      1 ****           1
@<TRIPOS>SET
DONOR_HYDROGENS      STATIC     ATOMS    <user>   **** ""
1 13
ATOM$RED        STATIC     ATOMS    COLORGROUP SYSTEM
1 13
@<TRIPOS>COMMENT
> <Gold.Version>
2022.2.0

> <Gold.Id.Protein>
3pbl|protein|mol2

> <Gold.Protein.RotatedTorsions>
[ 1303 1298 1297 1294 ] final  153.57 input  179.99 | X-H torsion
[ 2461 2456 2455 2452 ] final   95.72 input   30.03 | X-H torsion
[ 2515 2510 2509 2506 ] final  -44.14 input  -89.99 | X-H torsion
[ 3721 3712 3711 3710 ] final  -38.71 input -179.91 | X-H torsion
[ 3841 3832 3831 3830 ] final  -12.60 input -179.91 | X-H torsion
[ 3767 3762 3761 3758 ] final -175.99 input  -89.99 | X-H torsion
[ 2472 2467 2466 2463 ] final   82.39 input  -89.97 | X-H torsion

> <Gold.Protein.ActiveResidues>
 VAL82   VAL86   LEU89   PHE106  VAL107  ASP110  VAL111  MET112  CYS114  THR115 
 CYS181  SER182  ILE183  PHE188  VAL189  ILE190  SER192  SER193  SER196  TRP342 
 PHE345  PHE346  HIS349  VAL350  TYR365  THR369  GLY372  TYR373 

> <Gold.Protein.RotatedAtoms>
    4.9091   -9.2593    4.8677 H   0  0  0  0  0  0  0  0  0  0  0  0  # atno 1303 bound_to 1298
    2.1542   -8.3603    7.7910 H   0  0  0  0  0  0  0  0  0  0  0  0  # atno 2461 bound_to 2456
   -4.9939   -4.8872    7.7392 H   0  0  0  0  0  0  0  0  0  0  0  0  # atno 2472 bound_to 2467
    2.7809   -8.2452    4.3539 H   0  0  0  0  0  0  0  0  0  0  0  0  # atno 2515 bound_to 2510
   -2.6540  -17.6003   14.6603 H   0  0  0  0  0  0  0  0  0  0  0  0  # atno 3721 bound_to 3712
   -4.1322  -22.4836   11.5894 H   0  0  0  0  0  0  0  0  0  0  0  0  # atno 3767 bound_to 3762
    1.6435  -20.3390    9.4840 H   0  0  0  0  0  0  0  0  0  0  0  0  # atno 3841 bound_to 3832
    3.6714  -10.2026    4.3731 LP  0  0  0  0  0  0  0  0  0  0  0  0  # atno 4297 bound_to 1298
    3.7813   -8.6594    3.8506 LP  0  0  0  0  0  0  0  0  0  0  0  0  # atno 4298 bound_to 1298
    0.6923   -8.1682    7.0887 LP  0  0  0  0  0  0  0  0  0  0  0  0  # atno 4299 bound_to 2456
    0.8915   -9.2796    8.2684 LP  0  0  0  0  0  0  0  0  0  0  0  0  # atno 4300 bound_to 2456
    2.4339   -9.1742    5.6509 LP  0  0  0  0  0  0  0  0  0  0  0  0  # atno 4301 bound_to 2510
    2.0817   -7.5798    5.6708 LP  0  0  0  0  0  0  0  0  0  0  0  0  # atno 4302 bound_to 2510
   -3.5665  -16.5607   13.8452 LP  0  0  0  0  0  0  0  0  0  0  0  0  # atno 4306 bound_to 3712
   -2.8971  -17.8458   13.0923 LP  0  0  0  0  0  0  0  0  0  0  0  0  # atno 4307 bound_to 3712
    2.3353  -19.7091    8.1799 LP  0  0  0  0  0  0  0  0  0  0  0  0  # atno 4314 bound_to 3832
    2.9956  -21.0016    8.9283 LP  0  0  0  0  0  0  0  0  0  0  0  0  # atno 4315 bound_to 3832
   -4.5145  -23.2988   10.2270 LP  0  0  0  0  0  0  0  0  0  0  0  0  # atno 4318 bound_to 3762
   -5.4804  -22.0926   10.7549 LP  0  0  0  0  0  0  0  0  0  0  0  0  # atno 4319 bound_to 3762
   -3.6361   -5.0581    8.6300 LP  0  0  0  0  0  0  0  0  0  0  0  0  # atno 4320 bound_to 2467
   -5.0870   -5.4483    9.2698 LP  0  0  0  0  0  0  0  0  0  0  0  0  # atno 4321 bound_to 2467

> <Gold.Score>
     Score     S(PLP)   S(hbond)     S(cho)   S(metal)  DE(clash)   DE(tors)     intcor
     26.01     -17.65       2.80       0.00       0.00       0.00       0.02       0.01

> <Gold.PLP.Fitness>
26.0067

> <Gold.PLP.PLP>
-17.6481

> <Gold.PLP.part.hbond>
-4.0000

> <Gold.PLP.part.metal>
0.0000

> <Gold.PLP.part.buried>
-4.0425

> <Gold.PLP.part.nonpolar>
-10.3895

> <Gold.PLP.part.repulsive>
0.1949

> <Gold.PLP.ligand.clash>
0.0000

> <Gold.PLP.ligand.torsion>
0.0177

> <Gold.PLP.Chemscore.Hbond>
2.7963

> <Gold.PLP.Chemscore.CHOScore>
0.0000

> <Gold.PLP.Chemscore.Metal>
0.0000

> <Gold.Chemscore.Hbonds>
donor molecule, donor type, donor heavy atom, donor atom, acceptor molecule, acceptor atom, score
      L1  H     9    13       P1  1227  0.80
      P1  H  2305  2313       L1     3  1.00
      P1  H  3832  3841       L1     8  1.00

> <Gold.PLP.Chemscore.Internal.Correction>
0.0052

