#       Name:                EN300-34862_i002
#       Creating user name   fsindt
#       Creation time:       Tue Feb 28 18:41:59 2023


#       File generated by GOLD software.
#

@<TRIPOS>MOLECULE
EN300-34862_i002|acide_2|mol2|6525|dock8
    13    13     1
SMALL
USER_CHARGES


@<TRIPOS>ATOM
      1 O1          -0.6967 -17.9998  10.5533 O.co2          1 <1>               -1.0000
      2 C2          -0.6698 -17.7126  11.7379 C.2            1 <1>                0.0000
      3 O3          -1.3316 -18.3544  12.5358 O.co2          1 <1>                0.0000
      4 C4           0.1863 -16.5685  12.2168 C.3            1 <1>                0.0000
      5 C5           0.0270 -16.4260  13.7360 C.3            1 <1>                0.0000
      6 S6           1.7164 -16.6499  14.3770 S.3            1 <1>                0.0000
      7 C7           2.4797 -16.8945  12.8022 C.2            1 <1>                0.0000
      8 O8           3.6646 -17.1007  12.6219 O.2            1 <1>                0.0000
      9 N9           1.5601 -16.8194  11.8442 N.am           1 <1>                0.0000
     10 H10         -0.1485 -15.6492  11.7363 H              1 <1>                0.0000
     11 H11         -0.3500 -15.4351  13.9896 H              1 <1>                0.0000
     12 H12         -0.6353 -17.1992  14.1253 H              1 <1>                0.0000
     13 H13          1.8068 -16.9313  10.9128 H              1 <1>                0.0000
@<TRIPOS>BOND
    1    1    2 ar    
    2    2    3 ar    
    3    2    4 1     
    4    4    5 1     
    5    4    9 1     
    6    4   10 1     
    7    5    6 1     
    8    5   11 1     
    9    5   12 1     
   10    6    7 1     
   11    7    8 2     
   12    7    9 am    
   13    9   13 1     
@<TRIPOS>SUBSTRUCTURE
      1 ****           1
@<TRIPOS>SET
DONOR_HYDROGENS      STATIC     ATOMS    <user>   **** ""
1 13
ATOM$RED        STATIC     ATOMS    COLORGROUP SYSTEM
1 13
@<TRIPOS>COMMENT
> <Gold.Version>
2022.2.0

> <Gold.Id.Protein>
3pbl|protein|mol2

> <Gold.Protein.RotatedTorsions>
[ 1303 1298 1297 1294 ] final  -68.96 input  179.99 | X-H torsion
[ 2461 2456 2455 2452 ] final   33.07 input   30.03 | X-H torsion
[ 2515 2510 2509 2506 ] final  136.40 input  -89.99 | X-H torsion
[ 3721 3712 3711 3710 ] final   79.60 input -179.91 | X-H torsion
[ 3841 3832 3831 3830 ] final  -25.11 input -179.91 | X-H torsion
[ 3767 3762 3761 3758 ] final -159.08 input  -89.99 | X-H torsion
[ 2472 2467 2466 2463 ] final  -84.84 input  -89.97 | X-H torsion

> <Gold.Protein.ActiveResidues>
 VAL82   VAL86   LEU89   PHE106  VAL107  ASP110  VAL111  MET112  CYS114  THR115 
 CYS181  SER182  ILE183  PHE188  VAL189  ILE190  SER192  SER193  SER196  TRP342 
 PHE345  PHE346  HIS349  VAL350  TYR365  THR369  GLY372  TYR373 

> <Gold.Protein.RotatedAtoms>
    3.5824   -8.8557    3.7891 H   0  0  0  0  0  0  0  0  0  0  0  0  # atno 1303 bound_to 1298
    1.5611   -7.9213    7.1454 H   0  0  0  0  0  0  0  0  0  0  0  0  # atno 2461 bound_to 2456
   -3.9758   -5.3203    9.2516 H   0  0  0  0  0  0  0  0  0  0  0  0  # atno 2472 bound_to 2467
    2.0857   -8.4296    6.0962 H   0  0  0  0  0  0  0  0  0  0  0  0  # atno 2515 bound_to 2510
   -2.7105  -17.7314   13.1798 H   0  0  0  0  0  0  0  0  0  0  0  0  # atno 3721 bound_to 3712
   -4.3193  -22.2872   11.6464 H   0  0  0  0  0  0  0  0  0  0  0  0  # atno 3767 bound_to 3762
    1.5844  -20.1889    9.3862 H   0  0  0  0  0  0  0  0  0  0  0  0  # atno 3841 bound_to 3832
    4.8923   -8.9974    4.7537 LP  0  0  0  0  0  0  0  0  0  0  0  0  # atno 4297 bound_to 1298
    3.8878  -10.2684    4.5489 LP  0  0  0  0  0  0  0  0  0  0  0  0  # atno 4298 bound_to 1298
    0.3442   -8.8744    7.6726 LP  0  0  0  0  0  0  0  0  0  0  0  0  # atno 4299 bound_to 2456
    1.8326   -9.0123    8.3300 LP  0  0  0  0  0  0  0  0  0  0  0  0  # atno 4300 bound_to 2456
    2.4266   -7.4883    4.8065 LP  0  0  0  0  0  0  0  0  0  0  0  0  # atno 4301 bound_to 2510
    2.7845   -9.0812    4.7722 LP  0  0  0  0  0  0  0  0  0  0  0  0  # atno 4302 bound_to 2510
   -2.8327  -17.6963   14.7804 LP  0  0  0  0  0  0  0  0  0  0  0  0  # atno 4306 bound_to 3712
   -3.5657  -16.5588   13.8664 LP  0  0  0  0  0  0  0  0  0  0  0  0  # atno 4307 bound_to 3712
    2.5211  -19.7967    8.1433 LP  0  0  0  0  0  0  0  0  0  0  0  0  # atno 4314 bound_to 3832
    2.8781  -21.0874    9.0779 LP  0  0  0  0  0  0  0  0  0  0  0  0  # atno 4315 bound_to 3832
   -4.2967  -23.3354   10.3944 LP  0  0  0  0  0  0  0  0  0  0  0  0  # atno 4318 bound_to 3762
   -5.5112  -22.2524   10.5306 LP  0  0  0  0  0  0  0  0  0  0  0  0  # atno 4319 bound_to 3762
   -5.4972   -5.2737    8.6604 LP  0  0  0  0  0  0  0  0  0  0  0  0  # atno 4320 bound_to 2467
   -4.2438   -4.7996    7.7273 LP  0  0  0  0  0  0  0  0  0  0  0  0  # atno 4321 bound_to 2467

> <Gold.Score>
     Score     S(PLP)   S(hbond)     S(cho)   S(metal)  DE(clash)   DE(tors)     intcor
     27.00     -21.00       2.00       0.00       0.00       0.00       0.00       0.01

> <Gold.PLP.Fitness>
27.0004

> <Gold.PLP.PLP>
-21.0028

> <Gold.PLP.part.hbond>
-1.9315

> <Gold.PLP.part.metal>
0.0000

> <Gold.PLP.part.buried>
-3.5940

> <Gold.PLP.part.nonpolar>
-17.3507

> <Gold.PLP.part.repulsive>
0.2814

> <Gold.PLP.ligand.clash>
0.0000

> <Gold.PLP.ligand.torsion>
0.0038

> <Gold.PLP.Chemscore.Hbond>
2.0000

> <Gold.PLP.Chemscore.CHOScore>
0.0000

> <Gold.PLP.Chemscore.Metal>
0.0000

> <Gold.Chemscore.Hbonds>
donor molecule, donor type, donor heavy atom, donor atom, acceptor molecule, acceptor atom, score
      L1  H     9    13       P1  1227  1.00
      P1  H  3712  3721       L1     3  1.00

> <Gold.PLP.Chemscore.Internal.Correction>
0.0052

