#       Name:                EN300-34862_i002
#       Creating user name   fsindt
#       Creation time:       Tue Feb 28 18:42:03 2023


#       File generated by GOLD software.
#

@<TRIPOS>MOLECULE
EN300-34862_i002|acide_2|mol2|6525|dock18
    13    13     1
SMALL
USER_CHARGES


@<TRIPOS>ATOM
      1 O1           0.3468 -11.1054   8.9563 O.co2          1 <1>               -1.0000
      2 C2          -0.2828 -11.8644   9.6731 C.2            1 <1>                0.0000
      3 O3          -0.0625 -13.0629   9.6343 O.co2          1 <1>                0.0000
      4 C4          -1.3290 -11.3206  10.6117 C.3            1 <1>                0.0000
      5 C5          -1.3308  -9.7888  10.5258 C.3            1 <1>                0.0000
      6 S6          -3.0246  -9.3813   9.9966 S.3            1 <1>                0.0000
      7 C7          -3.5993 -11.0505   9.9178 C.2            1 <1>                0.0000
      8 O8          -4.7228 -11.3908   9.6002 O.2            1 <1>                0.0000
      9 N9          -2.6150 -11.8777  10.2583 N.am           1 <1>                0.0000
     10 H10         -1.0818 -11.6193  11.6304 H              1 <1>                0.0000
     11 H11         -1.1192  -9.3508  11.5013 H              1 <1>                0.0000
     12 H12         -0.6065  -9.4464   9.7867 H              1 <1>                0.0000
     13 H13         -2.7575 -12.8371  10.2688 H              1 <1>                0.0000
@<TRIPOS>BOND
    1    1    2 ar    
    2    2    3 ar    
    3    2    4 1     
    4    4    5 1     
    5    4    9 1     
    6    4   10 1     
    7    5    6 1     
    8    5   11 1     
    9    5   12 1     
   10    6    7 1     
   11    7    8 2     
   12    7    9 am    
   13    9   13 1     
@<TRIPOS>SUBSTRUCTURE
      1 ****           1
@<TRIPOS>SET
DONOR_HYDROGENS      STATIC     ATOMS    <user>   **** ""
1 13
ATOM$RED        STATIC     ATOMS    COLORGROUP SYSTEM
1 13
@<TRIPOS>COMMENT
> <Gold.Version>
2022.2.0

> <Gold.Id.Protein>
3pbl|protein|mol2

> <Gold.Protein.RotatedTorsions>
[ 1303 1298 1297 1294 ] final   -4.05 input  179.99 | X-H torsion
[ 2461 2456 2455 2452 ] final -128.81 input   30.03 | X-H torsion
[ 2515 2510 2509 2506 ] final  160.78 input  -89.99 | X-H torsion
[ 3721 3712 3711 3710 ] final    8.21 input -179.91 | X-H torsion
[ 3841 3832 3831 3830 ] final  110.66 input -179.91 | X-H torsion
[ 3767 3762 3761 3758 ] final   20.44 input  -89.99 | X-H torsion
[ 2472 2467 2466 2463 ] final  151.14 input  -89.97 | X-H torsion

> <Gold.Protein.ActiveResidues>
 VAL82   VAL86   LEU89   PHE106  VAL107  ASP110  VAL111  MET112  CYS114  THR115 
 CYS181  SER182  ILE183  PHE188  VAL189  ILE190  SER192  SER193  SER196  TRP342 
 PHE345  PHE346  HIS349  VAL350  TYR365  THR369  GLY372  TYR373 

> <Gold.Protein.RotatedAtoms>
    3.3672   -9.8185    4.0132 H   0  0  0  0  0  0  0  0  0  0  0  0  # atno 1303 bound_to 1298
    0.6790   -9.2256    8.1404 H   0  0  0  0  0  0  0  0  0  0  0  0  # atno 2461 bound_to 2456
   -5.5058   -5.2530    8.5980 H   0  0  0  0  0  0  0  0  0  0  0  0  # atno 2472 bound_to 2467
    2.2019   -8.8005    6.0103 H   0  0  0  0  0  0  0  0  0  0  0  0  # atno 2515 bound_to 2510
   -2.4740  -17.9973   14.1259 H   0  0  0  0  0  0  0  0  0  0  0  0  # atno 3721 bound_to 3712
   -5.1043  -22.9570   10.0678 H   0  0  0  0  0  0  0  0  0  0  0  0  # atno 3767 bound_to 3762
    3.0259  -20.8026    9.0431 H   0  0  0  0  0  0  0  0  0  0  0  0  # atno 3841 bound_to 3832
    4.2885   -8.4755    4.1316 LP  0  0  0  0  0  0  0  0  0  0  0  0  # atno 4297 bound_to 1298
    4.7068   -9.8272    4.9469 LP  0  0  0  0  0  0  0  0  0  0  0  0  # atno 4298 bound_to 1298
    2.1517   -8.5404    7.9700 LP  0  0  0  0  0  0  0  0  0  0  0  0  # atno 4299 bound_to 2456
    0.9069   -8.0424    7.0379 LP  0  0  0  0  0  0  0  0  0  0  0  0  # atno 4300 bound_to 2456
    2.2605   -7.4083    5.1594 LP  0  0  0  0  0  0  0  0  0  0  0  0  # atno 4301 bound_to 2510
    2.8344   -8.7901    4.5052 LP  0  0  0  0  0  0  0  0  0  0  0  0  # atno 4302 bound_to 2510
   -3.3920  -16.7542   14.5615 LP  0  0  0  0  0  0  0  0  0  0  0  0  # atno 4306 bound_to 3712
   -3.2795  -17.1939   12.9929 LP  0  0  0  0  0  0  0  0  0  0  0  0  # atno 4307 bound_to 3712
    1.4929  -20.4977    9.4076 LP  0  0  0  0  0  0  0  0  0  0  0  0  # atno 4314 bound_to 3832
    2.2410  -19.6775    8.2100 LP  0  0  0  0  0  0  0  0  0  0  0  0  # atno 4315 bound_to 3832
   -5.1160  -21.9151   11.3253 LP  0  0  0  0  0  0  0  0  0  0  0  0  # atno 4318 bound_to 3762
   -3.9072  -23.0030   11.1777 LP  0  0  0  0  0  0  0  0  0  0  0  0  # atno 4319 bound_to 3762
   -4.1831   -4.8022    7.7532 LP  0  0  0  0  0  0  0  0  0  0  0  0  # atno 4320 bound_to 2467
   -4.0282   -5.3383    9.2879 LP  0  0  0  0  0  0  0  0  0  0  0  0  # atno 4321 bound_to 2467

> <Gold.Score>
     Score     S(PLP)   S(hbond)     S(cho)   S(metal)  DE(clash)   DE(tors)     intcor
     29.76     -26.78       1.00       0.00       0.00       0.00       0.02       0.01

> <Gold.PLP.Fitness>
29.7570

> <Gold.PLP.PLP>
-26.7829

> <Gold.PLP.part.hbond>
-1.0000

> <Gold.PLP.part.metal>
0.0000

> <Gold.PLP.part.buried>
-1.6071

> <Gold.PLP.part.nonpolar>
-24.8046

> <Gold.PLP.part.repulsive>
0.1509

> <Gold.PLP.ligand.clash>
0.0000

> <Gold.PLP.ligand.torsion>
0.0155

> <Gold.PLP.Chemscore.Hbond>
1.0000

> <Gold.PLP.Chemscore.CHOScore>
0.0000

> <Gold.PLP.Chemscore.Metal>
0.0000

> <Gold.Chemscore.Hbonds>
donor molecule, donor type, donor heavy atom, donor atom, acceptor molecule, acceptor atom, score
      P1  H  2456  2461       L1     1  1.00

> <Gold.PLP.Chemscore.Internal.Correction>
0.0052

