#       Name:                EN300-34862_i002
#       Creating user name   fsindt
#       Creation time:       Tue Feb 28 18:41:58 2023


#       File generated by GOLD software.
#

@<TRIPOS>MOLECULE
EN300-34862_i002|acide_2|mol2|6525|dock2
    13    13     1
SMALL
USER_CHARGES


@<TRIPOS>ATOM
      1 O1          -0.9639 -18.2558  11.1424 O.co2          1 <1>               -1.0000
      2 C2          -0.0714 -18.9820  11.5454 C.2            1 <1>                0.0000
      3 O3           0.4245 -19.8095  10.7998 O.co2          1 <1>                0.0000
      4 C4           0.4232 -18.8528  12.9630 C.3            1 <1>                0.0000
      5 C5           1.9278 -18.5532  12.9428 C.3            1 <1>                0.0000
      6 S6           2.0684 -16.9552  13.8039 S.3            1 <1>                0.0000
      7 C7           0.3405 -16.7645  14.1210 C.2            1 <1>                0.0000
      8 O8          -0.1661 -15.8227  14.7002 O.2            1 <1>                0.0000
      9 N9          -0.3212 -17.8079  13.6288 N.am           1 <1>                0.0000
     10 H10          0.2551 -19.7947  13.4851 H              1 <1>                0.0000
     11 H11          2.4788 -19.3262  13.4787 H              1 <1>                0.0000
     12 H12          2.2870 -18.4679  11.9172 H              1 <1>                0.0000
     13 H13         -1.2856 -17.8664  13.7147 H              1 <1>                0.0000
@<TRIPOS>BOND
    1    1    2 ar    
    2    2    3 ar    
    3    2    4 1     
    4    4    5 1     
    5    4    9 1     
    6    4   10 1     
    7    5    6 1     
    8    5   11 1     
    9    5   12 1     
   10    6    7 1     
   11    7    8 2     
   12    7    9 am    
   13    9   13 1     
@<TRIPOS>SUBSTRUCTURE
      1 ****           1
@<TRIPOS>SET
DONOR_HYDROGENS      STATIC     ATOMS    <user>   **** ""
1 13
ATOM$RED        STATIC     ATOMS    COLORGROUP SYSTEM
1 13
@<TRIPOS>COMMENT
> <Gold.Version>
2022.2.0

> <Gold.Id.Protein>
3pbl|protein|mol2

> <Gold.Protein.RotatedTorsions>
[ 1303 1298 1297 1294 ] final  -66.07 input  179.99 | X-H torsion
[ 2461 2456 2455 2452 ] final  -86.86 input   30.03 | X-H torsion
[ 2515 2510 2509 2506 ] final -116.59 input  -89.99 | X-H torsion
[ 3721 3712 3711 3710 ] final -142.73 input -179.91 | X-H torsion
[ 3841 3832 3831 3830 ] final  -12.53 input -179.91 | X-H torsion
[ 3767 3762 3761 3758 ] final  171.56 input  -89.99 | X-H torsion
[ 2472 2467 2466 2463 ] final   45.24 input  -89.97 | X-H torsion

> <Gold.Protein.ActiveResidues>
 VAL82   VAL86   LEU89   PHE106  VAL107  ASP110  VAL111  MET112  CYS114  THR115 
 CYS181  SER182  ILE183  PHE188  VAL189  ILE190  SER192  SER193  SER196  TRP342 
 PHE345  PHE346  HIS349  VAL350  TYR365  THR369  GLY372  TYR373 

> <Gold.Protein.RotatedAtoms>
    3.5539   -8.8933    3.7839 H   0  0  0  0  0  0  0  0  0  0  0  0  # atno 1303 bound_to 1298
    0.3437   -8.8737    7.6718 H   0  0  0  0  0  0  0  0  0  0  0  0  # atno 2461 bound_to 2456
   -4.4025   -4.8007    7.6799 H   0  0  0  0  0  0  0  0  0  0  0  0  # atno 2472 bound_to 2467
    2.7313   -9.1839    4.9515 H   0  0  0  0  0  0  0  0  0  0  0  0  # atno 2515 bound_to 2510
   -3.3095  -16.5436   14.0964 H   0  0  0  0  0  0  0  0  0  0  0  0  # atno 3721 bound_to 3712
   -4.0255  -22.6371   11.5064 H   0  0  0  0  0  0  0  0  0  0  0  0  # atno 3767 bound_to 3762
    1.6439  -20.3398    9.4844 H   0  0  0  0  0  0  0  0  0  0  0  0  # atno 3841 bound_to 3832
    4.8824   -8.9568    4.7311 LP  0  0  0  0  0  0  0  0  0  0  0  0  # atno 4297 bound_to 1298
    3.9261  -10.2714    4.5767 LP  0  0  0  0  0  0  0  0  0  0  0  0  # atno 4298 bound_to 1298
    1.8317   -9.0130    8.3304 LP  0  0  0  0  0  0  0  0  0  0  0  0  # atno 4299 bound_to 2456
    1.5621   -7.9216    7.1460 LP  0  0  0  0  0  0  0  0  0  0  0  0  # atno 4300 bound_to 2456
    2.0478   -8.2204    6.0786 LP  0  0  0  0  0  0  0  0  0  0  0  0  # atno 4301 bound_to 2510
    2.5175   -7.5944    4.6453 LP  0  0  0  0  0  0  0  0  0  0  0  0  # atno 4302 bound_to 2510
   -3.0013  -17.6779   13.0027 LP  0  0  0  0  0  0  0  0  0  0  0  0  # atno 4306 bound_to 3712
   -2.7055  -17.9485   14.5858 LP  0  0  0  0  0  0  0  0  0  0  0  0  # atno 4307 bound_to 3712
    2.3343  -19.7087    8.1802 LP  0  0  0  0  0  0  0  0  0  0  0  0  # atno 4314 bound_to 3832
    2.9961  -21.0011    8.9275 LP  0  0  0  0  0  0  0  0  0  0  0  0  # atno 4315 bound_to 3832
   -4.6868  -23.2343   10.1379 LP  0  0  0  0  0  0  0  0  0  0  0  0  # atno 4318 bound_to 3762
   -5.4147  -22.0037   10.9269 LP  0  0  0  0  0  0  0  0  0  0  0  0  # atno 4319 bound_to 3762
   -3.8585   -5.2687    9.1467 LP  0  0  0  0  0  0  0  0  0  0  0  0  # atno 4320 bound_to 2467
   -5.4559   -5.3240    8.8125 LP  0  0  0  0  0  0  0  0  0  0  0  0  # atno 4321 bound_to 2467

> <Gold.Score>
     Score     S(PLP)   S(hbond)     S(cho)   S(metal)  DE(clash)   DE(tors)     intcor
     28.51     -19.66       2.95       0.00       0.00       0.00       0.00       0.01

> <Gold.PLP.Fitness>
28.5104

> <Gold.PLP.PLP>
-19.6647

> <Gold.PLP.part.hbond>
-3.0000

> <Gold.PLP.part.metal>
0.0000

> <Gold.PLP.part.buried>
-4.0499

> <Gold.PLP.part.nonpolar>
-13.0444

> <Gold.PLP.part.repulsive>
0.2545

> <Gold.PLP.ligand.clash>
0.0000

> <Gold.PLP.ligand.torsion>
0.0047

> <Gold.PLP.Chemscore.Hbond>
2.9500

> <Gold.PLP.Chemscore.CHOScore>
0.0000

> <Gold.PLP.Chemscore.Metal>
0.0000

> <Gold.Chemscore.Hbonds>
donor molecule, donor type, donor heavy atom, donor atom, acceptor molecule, acceptor atom, score
      L1  H     9    13       P1  3712  0.95
      P1  H  2305  2313       L1     8  1.00
      P1  H  3832  3841       L1     3  1.00

> <Gold.PLP.Chemscore.Internal.Correction>
0.0052

