#       Name:                EN300-34862_i002
#       Creating user name   fsindt
#       Creation time:       Tue Feb 28 18:41:59 2023


#       File generated by GOLD software.
#

@<TRIPOS>MOLECULE
EN300-34862_i002|acide_2|mol2|6525|dock7
    13    13     1
SMALL
USER_CHARGES


@<TRIPOS>ATOM
      1 O1          -0.4096  -9.6308  11.3954 O.co2          1 <1>               -1.0000
      2 C2          -1.0595 -10.5790  10.9893 C.2            1 <1>                0.0000
      3 O3          -1.0037 -11.6497  11.5700 O.co2          1 <1>                0.0000
      4 C4          -1.9367 -10.4261   9.7735 C.3            1 <1>                0.0000
      5 C5          -2.4738 -11.8046   9.3672 C.3            1 <1>                0.0000
      6 S6          -4.2821 -11.6168   9.4644 S.3            1 <1>                0.0000
      7 C7          -4.2642  -9.9258   9.9770 C.2            1 <1>                0.0000
      8 O8          -5.2505  -9.2516  10.2041 O.2            1 <1>                0.0000
      9 N9          -3.0070  -9.5033  10.0772 N.am           1 <1>                0.0000
     10 H10         -1.3417 -10.0209   8.9550 H              1 <1>                0.0000
     11 H11         -2.1688 -12.0491   8.3496 H              1 <1>                0.0000
     12 H12         -2.1308 -12.5693  10.0642 H              1 <1>                0.0000
     13 H13         -2.8120  -8.5930  10.3494 H              1 <1>                0.0000
@<TRIPOS>BOND
    1    1    2 ar    
    2    2    3 ar    
    3    2    4 1     
    4    4    5 1     
    5    4    9 1     
    6    4   10 1     
    7    5    6 1     
    8    5   11 1     
    9    5   12 1     
   10    6    7 1     
   11    7    8 2     
   12    7    9 am    
   13    9   13 1     
@<TRIPOS>SUBSTRUCTURE
      1 ****           1
@<TRIPOS>SET
DONOR_HYDROGENS      STATIC     ATOMS    <user>   **** ""
1 13
ATOM$RED        STATIC     ATOMS    COLORGROUP SYSTEM
1 13
@<TRIPOS>COMMENT
> <Gold.Version>
2022.2.0

> <Gold.Id.Protein>
3pbl|protein|mol2

> <Gold.Protein.RotatedTorsions>
[ 1303 1298 1297 1294 ] final  -63.03 input  179.99 | X-H torsion
[ 2461 2456 2455 2452 ] final -139.00 input   30.03 | X-H torsion
[ 2515 2510 2509 2506 ] final    7.81 input  -89.99 | X-H torsion
[ 3721 3712 3711 3710 ] final   18.39 input -179.91 | X-H torsion
[ 3841 3832 3831 3830 ] final   23.76 input -179.91 | X-H torsion
[ 3767 3762 3761 3758 ] final  -38.45 input  -89.99 | X-H torsion
[ 2472 2467 2466 2463 ] final -168.90 input  -89.97 | X-H torsion

> <Gold.Protein.ActiveResidues>
 VAL82   VAL86   LEU89   PHE106  VAL107  ASP110  VAL111  MET112  CYS114  THR115 
 CYS181  SER182  ILE183  PHE188  VAL189  ILE190  SER192  SER193  SER196  TRP342 
 PHE345  PHE346  HIS349  VAL350  TYR365  THR369  GLY372  TYR373 

> <Gold.Protein.RotatedAtoms>
    3.5253   -8.9343    3.7800 H   0  0  0  0  0  0  0  0  0  0  0  0  # atno 1303 bound_to 1298
    0.8152   -9.2666    8.2290 H   0  0  0  0  0  0  0  0  0  0  0  0  # atno 2461 bound_to 2456
   -5.2304   -5.4234    9.1549 H   0  0  0  0  0  0  0  0  0  0  0  0  # atno 2472 bound_to 2467
    2.4871   -7.5542    4.6973 H   0  0  0  0  0  0  0  0  0  0  0  0  # atno 2515 bound_to 2510
   -2.4702  -18.0273   13.9752 H   0  0  0  0  0  0  0  0  0  0  0  0  # atno 3721 bound_to 3712
   -5.5108  -22.2586   10.5221 H   0  0  0  0  0  0  0  0  0  0  0  0  # atno 3767 bound_to 3762
    1.9880  -20.7315    9.6220 H   0  0  0  0  0  0  0  0  0  0  0  0  # atno 3841 bound_to 3832
    4.8699   -8.9151    4.7063 LP  0  0  0  0  0  0  0  0  0  0  0  0  # atno 4297 bound_to 1298
    3.9671  -10.2721    4.6055 LP  0  0  0  0  0  0  0  0  0  0  0  0  # atno 4298 bound_to 1298
    2.1607   -8.4205    7.8533 LP  0  0  0  0  0  0  0  0  0  0  0  0  # atno 4299 bound_to 2456
    0.7617   -8.1212    7.0660 LP  0  0  0  0  0  0  0  0  0  0  0  0  # atno 4300 bound_to 2456
    2.7512   -9.1540    4.8886 LP  0  0  0  0  0  0  0  0  0  0  0  0  # atno 4301 bound_to 2510
    2.0584   -8.2913    6.0896 LP  0  0  0  0  0  0  0  0  0  0  0  0  # atno 4302 bound_to 2510
   -3.3216  -16.8595   14.6747 LP  0  0  0  0  0  0  0  0  0  0  0  0  # atno 4306 bound_to 3712
   -3.3542  -17.0540   13.0537 LP  0  0  0  0  0  0  0  0  0  0  0  0  # atno 4307 bound_to 3712
    1.8070  -19.6477    8.4521 LP  0  0  0  0  0  0  0  0  0  0  0  0  # atno 4314 bound_to 3832
    3.1259  -20.6096    8.4966 LP  0  0  0  0  0  0  0  0  0  0  0  0  # atno 4315 bound_to 3832
   -4.3276  -22.2808   11.6474 LP  0  0  0  0  0  0  0  0  0  0  0  0  # atno 4318 bound_to 3762
   -4.2892  -23.3356   10.4014 LP  0  0  0  0  0  0  0  0  0  0  0  0  # atno 4319 bound_to 3762
   -4.8219   -4.8471    7.6828 LP  0  0  0  0  0  0  0  0  0  0  0  0  # atno 4320 bound_to 2467
   -3.6648   -5.1230    8.8015 LP  0  0  0  0  0  0  0  0  0  0  0  0  # atno 4321 bound_to 2467

> <Gold.Score>
     Score     S(PLP)   S(hbond)     S(cho)   S(metal)  DE(clash)   DE(tors)     intcor
     29.15     -26.35       1.00       0.00       0.00       0.00       0.10       0.01

> <Gold.PLP.Fitness>
29.1524

> <Gold.PLP.PLP>
-26.3451

> <Gold.PLP.part.hbond>
-1.0000

> <Gold.PLP.part.metal>
0.0000

> <Gold.PLP.part.buried>
-0.9117

> <Gold.PLP.part.nonpolar>
-25.7781

> <Gold.PLP.part.repulsive>
0.3337

> <Gold.PLP.ligand.clash>
0.0000

> <Gold.PLP.ligand.torsion>
0.0989

> <Gold.PLP.Chemscore.Hbond>
1.0000

> <Gold.PLP.Chemscore.CHOScore>
0.0000

> <Gold.PLP.Chemscore.Metal>
0.0000

> <Gold.Chemscore.Hbonds>
donor molecule, donor type, donor heavy atom, donor atom, acceptor molecule, acceptor atom, score
      L1  H     9    13       P1  2398  1.00

> <Gold.PLP.Chemscore.Internal.Correction>
0.0052

