#       Name:                EN300-34862_i002
#       Creating user name   fsindt
#       Creation time:       Tue Feb 28 18:42:01 2023


#       File generated by GOLD software.
#

@<TRIPOS>MOLECULE
EN300-34862_i002|acide_2|mol2|6525|dock14
    13    13     1
SMALL
USER_CHARGES


@<TRIPOS>ATOM
      1 O1           0.6242 -15.5676  12.3308 O.co2          1 <1>               -1.0000
      2 C2           0.8251 -16.2952  13.2882 C.2            1 <1>                0.0000
      3 O3           0.8709 -15.8251  14.4122 O.co2          1 <1>                0.0000
      4 C4           1.0108 -17.7766  13.0830 C.3            1 <1>                0.0000
      5 C5          -0.0651 -18.5304  13.8755 C.3            1 <1>                0.0000
      6 S6          -0.9625 -19.4773  12.6055 S.3            1 <1>                0.0000
      7 C7           0.0017 -18.9102  11.2376 C.2            1 <1>                0.0000
      8 O8          -0.1655 -19.2378  10.0784 O.2            1 <1>                0.0000
      9 N9           0.9376 -18.0697  11.6695 N.am           1 <1>                0.0000
     10 H10          1.9940 -18.0661  13.4540 H              1 <1>                0.0000
     11 H11          0.3944 -19.2026  14.6002 H              1 <1>                0.0000
     12 H12         -0.7345 -17.8292  14.3739 H              1 <1>                0.0000
     13 H13          1.5594 -17.6608  11.0474 H              1 <1>                0.0000
@<TRIPOS>BOND
    1    1    2 ar    
    2    2    3 ar    
    3    2    4 1     
    4    4    5 1     
    5    4    9 1     
    6    4   10 1     
    7    5    6 1     
    8    5   11 1     
    9    5   12 1     
   10    6    7 1     
   11    7    8 2     
   12    7    9 am    
   13    9   13 1     
@<TRIPOS>SUBSTRUCTURE
      1 ****           1
@<TRIPOS>SET
DONOR_HYDROGENS      STATIC     ATOMS    <user>   **** ""
1 13
ATOM$RED        STATIC     ATOMS    COLORGROUP SYSTEM
1 13
@<TRIPOS>COMMENT
> <Gold.Version>
2022.2.0

> <Gold.Id.Protein>
3pbl|protein|mol2

> <Gold.Protein.RotatedTorsions>
[ 1303 1298 1297 1294 ] final  -54.34 input  179.99 | X-H torsion
[ 2461 2456 2455 2452 ] final   73.08 input   30.03 | X-H torsion
[ 2515 2510 2509 2506 ] final  172.98 input  -89.99 | X-H torsion
[ 3721 3712 3711 3710 ] final   16.35 input -179.91 | X-H torsion
[ 3841 3832 3831 3830 ] final  -52.59 input -179.91 | X-H torsion
[ 3767 3762 3761 3758 ] final  130.19 input  -89.99 | X-H torsion
[ 2472 2467 2466 2463 ] final  164.00 input  -89.97 | X-H torsion

> <Gold.Protein.ActiveResidues>
 VAL82   VAL86   LEU89   PHE106  VAL107  ASP110  VAL111  MET112  CYS114  THR115 
 CYS181  SER182  ILE183  PHE188  VAL189  ILE190  SER192  SER193  SER196  TRP342 
 PHE345  PHE346  HIS349  VAL350  TYR365  THR369  GLY372  TYR373 

> <Gold.Protein.RotatedAtoms>
    3.4534   -9.0577    3.7779 H   0  0  0  0  0  0  0  0  0  0  0  0  # atno 1303 bound_to 1298
    2.0399   -8.1319    7.5230 H   0  0  0  0  0  0  0  0  0  0  0  0  # atno 2461 bound_to 2456
   -5.4625   -5.3188    8.7939 H   0  0  0  0  0  0  0  0  0  0  0  0  # atno 2472 bound_to 2467
    2.2771   -8.9585    5.9128 H   0  0  0  0  0  0  0  0  0  0  0  0  # atno 2515 bound_to 2510
   -2.4699  -18.0231   14.0058 H   0  0  0  0  0  0  0  0  0  0  0  0  # atno 3721 bound_to 3712
   -3.9183  -23.1036   11.0431 H   0  0  0  0  0  0  0  0  0  0  0  0  # atno 3767 bound_to 3762
    1.5831  -19.8821    9.1123 H   0  0  0  0  0  0  0  0  0  0  0  0  # atno 3841 bound_to 3832
    4.8228   -8.8036    4.6303 LP  0  0  0  0  0  0  0  0  0  0  0  0  # atno 4297 bound_to 1298
    4.0862  -10.2601    4.6836 LP  0  0  0  0  0  0  0  0  0  0  0  0  # atno 4298 bound_to 1298
    0.4544   -8.4060    7.2432 LP  0  0  0  0  0  0  0  0  0  0  0  0  # atno 4299 bound_to 2456
    1.2437   -9.2701    8.3820 LP  0  0  0  0  0  0  0  0  0  0  0  0  # atno 4300 bound_to 2456
    2.1872   -7.4305    5.3446 LP  0  0  0  0  0  0  0  0  0  0  0  0  # atno 4301 bound_to 2510
    2.8325   -8.6098    4.4176 LP  0  0  0  0  0  0  0  0  0  0  0  0  # atno 4302 bound_to 2510
   -3.3363  -16.8369   14.6539 LP  0  0  0  0  0  0  0  0  0  0  0  0  # atno 4306 bound_to 3712
   -3.3398  -17.0814   13.0393 LP  0  0  0  0  0  0  0  0  0  0  0  0  # atno 4307 bound_to 3712
    2.8740  -20.0813    8.1796 LP  0  0  0  0  0  0  0  0  0  0  0  0  # atno 4314 bound_to 3832
    2.5266  -21.1571    9.3580 LP  0  0  0  0  0  0  0  0  0  0  0  0  # atno 4315 bound_to 3832
   -5.2224  -22.8404   10.0961 LP  0  0  0  0  0  0  0  0  0  0  0  0  # atno 4318 bound_to 3762
   -4.9864  -21.9312   11.4319 LP  0  0  0  0  0  0  0  0  0  0  0  0  # atno 4319 bound_to 3762
   -4.3827   -4.7994    7.6845 LP  0  0  0  0  0  0  0  0  0  0  0  0  # atno 4320 bound_to 2467
   -3.8719   -5.2753    9.1608 LP  0  0  0  0  0  0  0  0  0  0  0  0  # atno 4321 bound_to 2467

> <Gold.Score>
     Score     S(PLP)   S(hbond)     S(cho)   S(metal)  DE(clash)   DE(tors)     intcor
     25.68     -16.68       3.00       0.00       0.00       0.00       0.00       0.01

> <Gold.PLP.Fitness>
25.6836

> <Gold.PLP.PLP>
-16.6837

> <Gold.PLP.part.hbond>
-3.0000

> <Gold.PLP.part.metal>
0.0000

> <Gold.PLP.part.buried>
-3.8843

> <Gold.PLP.part.nonpolar>
-10.3453

> <Gold.PLP.part.repulsive>
0.2074

> <Gold.PLP.ligand.clash>
0.0000

> <Gold.PLP.ligand.torsion>
0.0026

> <Gold.PLP.Chemscore.Hbond>
3.0000

> <Gold.PLP.Chemscore.CHOScore>
0.0000

> <Gold.PLP.Chemscore.Metal>
0.0000

> <Gold.Chemscore.Hbonds>
donor molecule, donor type, donor heavy atom, donor atom, acceptor molecule, acceptor atom, score
      L1  H     9    13       P1  1227  1.00
      P1  H  2305  2313       L1     3  1.00
      P1  H  3832  3841       L1     8  1.00

> <Gold.PLP.Chemscore.Internal.Correction>
0.0052

