#       Name:                EN300-34862_i002
#       Creating user name   fsindt
#       Creation time:       Tue Feb 28 18:42:00 2023


#       File generated by GOLD software.
#

@<TRIPOS>MOLECULE
EN300-34862_i002|acide_2|mol2|6525|dock10
    13    13     1
SMALL
USER_CHARGES


@<TRIPOS>ATOM
      1 O1          -1.0375 -18.9513  12.4219 O.co2          1 <1>               -1.0000
      2 C2          -0.3489 -19.7996  11.8809 C.2            1 <1>                0.0000
      3 O3           0.1780 -19.5632  10.8072 O.co2          1 <1>                0.0000
      4 C4          -0.1440 -21.1381  12.5424 C.3            1 <1>                0.0000
      5 C5          -0.9105 -21.1624  13.8712 C.3            1 <1>                0.0000
      6 S6          -2.0718 -22.5518  13.6823 S.3            1 <1>                0.0000
      7 C7          -1.5627 -22.9965  12.0496 C.2            1 <1>                0.0000
      8 O8          -2.0284 -23.9088  11.3941 O.2            1 <1>                0.0000
      9 N9          -0.5927 -22.1803  11.6470 N.am           1 <1>                0.0000
     10 H10          0.9186 -21.2765  12.7422 H              1 <1>                0.0000
     11 H11         -0.2290 -21.3438  14.7024 H              1 <1>                0.0000
     12 H12         -1.4526 -20.2281  14.0170 H              1 <1>                0.0000
     13 H13         -0.1942 -22.2823  10.7686 H              1 <1>                0.0000
@<TRIPOS>BOND
    1    1    2 ar    
    2    2    3 ar    
    3    2    4 1     
    4    4    5 1     
    5    4    9 1     
    6    4   10 1     
    7    5    6 1     
    8    5   11 1     
    9    5   12 1     
   10    6    7 1     
   11    7    8 2     
   12    7    9 am    
   13    9   13 1     
@<TRIPOS>SUBSTRUCTURE
      1 ****           1
@<TRIPOS>SET
DONOR_HYDROGENS      STATIC     ATOMS    <user>   **** ""
1 13
ATOM$RED        STATIC     ATOMS    COLORGROUP SYSTEM
1 13
@<TRIPOS>COMMENT
> <Gold.Version>
2022.2.0

> <Gold.Id.Protein>
3pbl|protein|mol2

> <Gold.Protein.RotatedTorsions>
[ 1303 1298 1297 1294 ] final  -33.68 input  179.99 | X-H torsion
[ 2461 2456 2455 2452 ] final  -52.32 input   30.03 | X-H torsion
[ 2515 2510 2509 2506 ] final  -23.35 input  -89.99 | X-H torsion
[ 3721 3712 3711 3710 ] final   56.01 input -179.91 | X-H torsion
[ 3841 3832 3831 3830 ] final  -28.56 input -179.91 | X-H torsion
[ 3767 3762 3761 3758 ] final  125.68 input  -89.99 | X-H torsion
[ 2472 2467 2466 2463 ] final  124.52 input  -89.97 | X-H torsion

> <Gold.Protein.ActiveResidues>
 VAL82   VAL86   LEU89   PHE106  VAL107  ASP110  VAL111  MET112  CYS114  THR115 
 CYS181  SER182  ILE183  PHE188  VAL189  ILE190  SER192  SER193  SER196  TRP342 
 PHE345  PHE346  HIS349  VAL350  TYR365  THR369  GLY372  TYR373 

> <Gold.Protein.RotatedAtoms>
    3.3463   -9.3746    3.8265 H   0  0  0  0  0  0  0  0  0  0  0  0  # atno 1303 bound_to 1298
    0.4144   -8.4685    7.2918 H   0  0  0  0  0  0  0  0  0  0  0  0  # atno 2461 bound_to 2456
   -5.4469   -5.1015    8.1956 H   0  0  0  0  0  0  0  0  0  0  0  0  # atno 2472 bound_to 2467
    2.6861   -7.9242    4.4148 H   0  0  0  0  0  0  0  0  0  0  0  0  # atno 2515 bound_to 2510
   -2.5710  -17.9354   13.4336 H   0  0  0  0  0  0  0  0  0  0  0  0  # atno 3721 bound_to 3712
   -3.9314  -23.1435   10.9819 H   0  0  0  0  0  0  0  0  0  0  0  0  # atno 3767 bound_to 3762
    1.5743  -20.1478    9.3556 H   0  0  0  0  0  0  0  0  0  0  0  0  # atno 3841 bound_to 3832
    4.6488   -8.5954    4.4286 LP  0  0  0  0  0  0  0  0  0  0  0  0  # atno 4297 bound_to 1298
    4.3673  -10.1513    4.8367 LP  0  0  0  0  0  0  0  0  0  0  0  0  # atno 4298 bound_to 1298
    1.3297   -9.2523    8.3942 LP  0  0  0  0  0  0  0  0  0  0  0  0  # atno 4299 bound_to 2456
    1.9934   -8.0873    7.4621 LP  0  0  0  0  0  0  0  0  0  0  0  0  # atno 4300 bound_to 2456
    2.5771   -9.2558    5.3532 LP  0  0  0  0  0  0  0  0  0  0  0  0  # atno 4301 bound_to 2510
    2.0334   -7.8193    5.9077 LP  0  0  0  0  0  0  0  0  0  0  0  0  # atno 4302 bound_to 2510
   -3.0170  -17.3615   14.8653 LP  0  0  0  0  0  0  0  0  0  0  0  0  # atno 4306 bound_to 3712
   -3.5424  -16.6581   13.4884 LP  0  0  0  0  0  0  0  0  0  0  0  0  # atno 4307 bound_to 3712
    2.5706  -19.8261    8.1390 LP  0  0  0  0  0  0  0  0  0  0  0  0  # atno 4314 bound_to 3832
    2.8402  -21.1054    9.1175 LP  0  0  0  0  0  0  0  0  0  0  0  0  # atno 4315 bound_to 3832
   -5.2693  -22.7865   10.1161 LP  0  0  0  0  0  0  0  0  0  0  0  0  # atno 4318 bound_to 3762
   -4.9264  -21.9453   11.4731 LP  0  0  0  0  0  0  0  0  0  0  0  0  # atno 4319 bound_to 3762
   -3.8421   -4.8593    8.0156 LP  0  0  0  0  0  0  0  0  0  0  0  0  # atno 4320 bound_to 2467
   -4.4281   -5.4327    9.4279 LP  0  0  0  0  0  0  0  0  0  0  0  0  # atno 4321 bound_to 2467

> <Gold.Score>
     Score     S(PLP)   S(hbond)     S(cho)   S(metal)  DE(clash)   DE(tors)     intcor
     26.98     -17.98       3.00       0.00       0.00       0.00       0.01       0.01

> <Gold.PLP.Fitness>
26.9772

> <Gold.PLP.PLP>
-17.9828

> <Gold.PLP.part.hbond>
-4.0000

> <Gold.PLP.part.metal>
0.0000

> <Gold.PLP.part.buried>
-3.7012

> <Gold.PLP.part.nonpolar>
-11.0222

> <Gold.PLP.part.repulsive>
0.1895

> <Gold.PLP.ligand.clash>
0.0000

> <Gold.PLP.ligand.torsion>
0.0054

> <Gold.PLP.Chemscore.Hbond>
3.0000

> <Gold.PLP.Chemscore.CHOScore>
0.0000

> <Gold.PLP.Chemscore.Metal>
0.0000

> <Gold.Chemscore.Hbonds>
donor molecule, donor type, donor heavy atom, donor atom, acceptor molecule, acceptor atom, score
      P1  H  3712  3721       L1     1  1.00
      P1  H  3832  3841       L1     3  1.00
      P1  H  3762  3767       L1     8  1.00

> <Gold.PLP.Chemscore.Internal.Correction>
0.0052

