#       Name:                EN300-34862_i002
#       Creating user name   fsindt
#       Creation time:       Tue Feb 28 18:41:58 2023


#       File generated by GOLD software.
#

@<TRIPOS>MOLECULE
EN300-34862_i002|acide_2|mol2|6525|dock1
    13    13     1
SMALL
USER_CHARGES


@<TRIPOS>ATOM
      1 O1           0.9775 -15.9087  14.1996 O.co2          1 <1>               -1.0000
      2 C2           1.7110 -16.2827  13.3004 C.2            1 <1>                0.0000
      3 O3           1.8462 -15.5991  12.2999 O.co2          1 <1>                0.0000
      4 C4           2.4553 -17.5868  13.4281 C.3            1 <1>                0.0000
      5 C5           2.0008 -18.2992  14.7086 C.3            1 <1>                0.0000
      6 S6           1.3339 -19.8858  14.1146 S.3            1 <1>                0.0000
      7 C7           1.6432 -19.5854  12.4010 C.2            1 <1>                0.0000
      8 O8           1.3812 -20.3543  11.4960 O.2            1 <1>                0.0000
      9 N9           2.2058 -18.3893  12.2522 N.am           1 <1>                0.0000
     10 H10          3.5235 -17.3808  13.4958 H              1 <1>                0.0000
     11 H11          2.8475 -18.4656  15.3747 H              1 <1>                0.0000
     12 H12          1.2247 -17.7226  15.2121 H              1 <1>                0.0000
     13 H13          2.4438 -18.0617  11.3709 H              1 <1>                0.0000
@<TRIPOS>BOND
    1    1    2 ar    
    2    2    3 ar    
    3    2    4 1     
    4    4    5 1     
    5    4    9 1     
    6    4   10 1     
    7    5    6 1     
    8    5   11 1     
    9    5   12 1     
   10    6    7 1     
   11    7    8 2     
   12    7    9 am    
   13    9   13 1     
@<TRIPOS>SUBSTRUCTURE
      1 ****           1
@<TRIPOS>SET
DONOR_HYDROGENS      STATIC     ATOMS    <user>   **** ""
1 13
ATOM$RED        STATIC     ATOMS    COLORGROUP SYSTEM
1 13
@<TRIPOS>COMMENT
> <Gold.Version>
2022.2.0

> <Gold.Id.Protein>
3pbl|protein|mol2

> <Gold.Protein.RotatedTorsions>
[ 1303 1298 1297 1294 ] final -167.91 input  179.99 | X-H torsion
[ 2461 2456 2455 2452 ] final  164.85 input   30.03 | X-H torsion
[ 2515 2510 2509 2506 ] final  -93.42 input  -89.99 | X-H torsion
[ 3721 3712 3711 3710 ] final  -60.81 input -179.91 | X-H torsion
[ 3841 3832 3831 3830 ] final   -2.06 input -179.91 | X-H torsion
[ 3767 3762 3761 3758 ] final  -77.35 input  -89.99 | X-H torsion
[ 2472 2467 2466 2463 ] final -133.14 input  -89.97 | X-H torsion

> <Gold.Protein.ActiveResidues>
 VAL82   VAL86   LEU89   PHE106  VAL107  ASP110  VAL111  MET112  CYS114  THR115 
 CYS181  SER182  ILE183  PHE188  VAL189  ILE190  SER192  SER193  SER196  TRP342 
 PHE345  PHE346  HIS349  VAL350  TYR365  THR369  GLY372  TYR373 

> <Gold.Protein.RotatedAtoms>
    4.7770   -8.7295    4.5703 H   0  0  0  0  0  0  0  0  0  0  0  0  # atno 1303 bound_to 1298
    1.6769   -9.1161    8.3794 H   0  0  0  0  0  0  0  0  0  0  0  0  # atno 2461 bound_to 2456
   -4.7159   -5.4615    9.4177 H   0  0  0  0  0  0  0  0  0  0  0  0  # atno 2472 bound_to 2467
    2.8138   -8.9731    4.6480 H   0  0  0  0  0  0  0  0  0  0  0  0  # atno 2515 bound_to 2510
   -2.8060  -17.3203   14.7543 H   0  0  0  0  0  0  0  0  0  0  0  0  # atno 3721 bound_to 3712
   -5.3469  -21.9572   11.0481 H   0  0  0  0  0  0  0  0  0  0  0  0  # atno 3767 bound_to 3762
    1.7193  -20.4631    9.5481 H   0  0  0  0  0  0  0  0  0  0  0  0  # atno 3841 bound_to 3832
    4.1748  -10.2381    4.7366 LP  0  0  0  0  0  0  0  0  0  0  0  0  # atno 4297 bound_to 1298
    3.4101   -9.1540    3.7845 LP  0  0  0  0  0  0  0  0  0  0  0  0  # atno 4298 bound_to 1298
    1.7298   -7.9521    7.2350 LP  0  0  0  0  0  0  0  0  0  0  0  0  # atno 4299 bound_to 2456
    0.3311   -8.7401    7.5339 LP  0  0  0  0  0  0  0  0  0  0  0  0  # atno 4300 bound_to 2456
    2.1274   -8.5907    6.0792 LP  0  0  0  0  0  0  0  0  0  0  0  0  # atno 4301 bound_to 2510
    2.3553   -7.4351    4.9483 LP  0  0  0  0  0  0  0  0  0  0  0  0  # atno 4302 bound_to 2510
   -3.5430  -16.6566   13.4916 LP  0  0  0  0  0  0  0  0  0  0  0  0  # atno 4306 bound_to 3712
   -2.7451  -18.0731   13.3374 LP  0  0  0  0  0  0  0  0  0  0  0  0  # atno 4307 bound_to 3712
    2.1757  -19.6605    8.2352 LP  0  0  0  0  0  0  0  0  0  0  0  0  # atno 4314 bound_to 3832
    3.0676  -20.9068    8.7989 LP  0  0  0  0  0  0  0  0  0  0  0  0  # atno 4315 bound_to 3832
   -3.9692  -22.7474   11.4283 LP  0  0  0  0  0  0  0  0  0  0  0  0  # atno 4318 bound_to 3762
   -4.8115  -23.1701   10.0947 LP  0  0  0  0  0  0  0  0  0  0  0  0  # atno 4319 bound_to 3762
   -5.3031   -5.0018    7.9650 LP  0  0  0  0  0  0  0  0  0  0  0  0  # atno 4320 bound_to 2467
   -3.6979   -4.9303    8.2567 LP  0  0  0  0  0  0  0  0  0  0  0  0  # atno 4321 bound_to 2467

> <Gold.Score>
     Score     S(PLP)   S(hbond)     S(cho)   S(metal)  DE(clash)   DE(tors)     intcor
     31.45     -22.63       3.00       0.00       0.00       0.00       0.09       0.01

> <Gold.PLP.Fitness>
31.4478

> <Gold.PLP.PLP>
-22.6274

> <Gold.PLP.part.hbond>
-3.0000

> <Gold.PLP.part.metal>
0.0000

> <Gold.PLP.part.buried>
-4.5585

> <Gold.PLP.part.nonpolar>
-15.5929

> <Gold.PLP.part.repulsive>
0.1994

> <Gold.PLP.ligand.clash>
0.0000

> <Gold.PLP.ligand.torsion>
0.0924

> <Gold.PLP.Chemscore.Hbond>
3.0000

> <Gold.PLP.Chemscore.CHOScore>
0.0000

> <Gold.PLP.Chemscore.Metal>
0.0000

> <Gold.Chemscore.Hbonds>
donor molecule, donor type, donor heavy atom, donor atom, acceptor molecule, acceptor atom, score
      L1  H     9    13       P1  1227  1.00
      P1  H  2305  2313       L1     1  1.00
      P1  H  3832  3841       L1     8  1.00

> <Gold.PLP.Chemscore.Internal.Correction>
0.0052

