#       Name:                EN300-34862_i002
#       Creating user name   fsindt
#       Creation time:       Tue Feb 28 18:42:03 2023


#       File generated by GOLD software.
#

@<TRIPOS>MOLECULE
EN300-34862_i002|acide_2|mol2|6525|dock20
    13    13     1
SMALL
USER_CHARGES


@<TRIPOS>ATOM
      1 O1           1.8693 -20.1051  11.5267 O.co2          1 <1>               -1.0000
      2 C2           1.1358 -19.4228  12.2214 C.2            1 <1>                0.0000
      3 O3          -0.0553 -19.3577  11.9695 O.co2          1 <1>                0.0000
      4 C4           1.7002 -18.6648  13.3953 C.3            1 <1>                0.0000
      5 C5           2.7840 -17.7013  12.8947 C.3            1 <1>                0.0000
      6 S6           2.1795 -16.0601  13.4008 S.3            1 <1>                0.0000
      7 C7           0.6944 -16.6384  14.1641 C.2            1 <1>                0.0000
      8 O8          -0.1394 -15.9331  14.6991 O.2            1 <1>                0.0000
      9 N9           0.6276 -17.9630  14.0632 N.am           1 <1>                0.0000
     10 H10          2.1482 -19.3726  14.0928 H              1 <1>                0.0000
     11 H11          3.7399 -17.9203  13.3707 H              1 <1>                0.0000
     12 H12          2.8744 -17.7577  11.8099 H              1 <1>                0.0000
     13 H13         -0.1272 -18.4488  14.4308 H              1 <1>                0.0000
@<TRIPOS>BOND
    1    1    2 ar    
    2    2    3 ar    
    3    2    4 1     
    4    4    5 1     
    5    4    9 1     
    6    4   10 1     
    7    5    6 1     
    8    5   11 1     
    9    5   12 1     
   10    6    7 1     
   11    7    8 2     
   12    7    9 am    
   13    9   13 1     
@<TRIPOS>SUBSTRUCTURE
      1 ****           1
@<TRIPOS>SET
DONOR_HYDROGENS      STATIC     ATOMS    <user>   **** ""
1 13
ATOM$RED        STATIC     ATOMS    COLORGROUP SYSTEM
1 13
@<TRIPOS>COMMENT
> <Gold.Version>
2022.2.0

> <Gold.Id.Protein>
3pbl|protein|mol2

> <Gold.Protein.RotatedTorsions>
[ 1303 1298 1297 1294 ] final -131.41 input  179.99 | X-H torsion
[ 2461 2456 2455 2452 ] final   20.39 input   30.03 | X-H torsion
[ 2515 2510 2509 2506 ] final  -15.78 input  -89.99 | X-H torsion
[ 3721 3712 3711 3710 ] final  -68.39 input -179.91 | X-H torsion
[ 3841 3832 3831 3830 ] final   21.05 input -179.91 | X-H torsion
[ 3767 3762 3761 3758 ] final -170.23 input  -89.99 | X-H torsion
[ 2472 2467 2466 2463 ] final -158.83 input  -89.97 | X-H torsion

> <Gold.Protein.ActiveResidues>
 VAL82   VAL86   LEU89   PHE106  VAL107  ASP110  VAL111  MET112  CYS114  THR115 
 CYS181  SER182  ILE183  PHE188  VAL189  ILE190  SER192  SER193  SER196  TRP342 
 PHE345  PHE346  HIS349  VAL350  TYR365  THR369  GLY372  TYR373 

> <Gold.Protein.RotatedAtoms>
    4.3857   -8.4836    4.2030 H   0  0  0  0  0  0  0  0  0  0  0  0  # atno 1303 bound_to 1298
    1.3647   -7.9204    7.0759 H   0  0  0  0  0  0  0  0  0  0  0  0  # atno 2461 bound_to 2456
   -5.1034   -5.4468    9.2586 H   0  0  0  0  0  0  0  0  0  0  0  0  # atno 2472 bound_to 2467
    2.6425   -7.8185    4.4640 H   0  0  0  0  0  0  0  0  0  0  0  0  # atno 2515 bound_to 2510
   -2.8626  -17.2210   14.7575 H   0  0  0  0  0  0  0  0  0  0  0  0  # atno 3721 bound_to 3712
   -4.1911  -22.4144   11.6163 H   0  0  0  0  0  0  0  0  0  0  0  0  # atno 3767 bound_to 3762
    1.9553  -20.7068    9.6202 H   0  0  0  0  0  0  0  0  0  0  0  0  # atno 3841 bound_to 3832
    4.6338   -9.9228    4.9333 LP  0  0  0  0  0  0  0  0  0  0  0  0  # atno 4297 bound_to 1298
    3.3426   -9.7153    3.9554 LP  0  0  0  0  0  0  0  0  0  0  0  0  # atno 4298 bound_to 1298
    0.4006   -9.0060    7.8238 LP  0  0  0  0  0  0  0  0  0  0  0  0  # atno 4299 bound_to 2456
    1.9725   -8.8815    8.2482 LP  0  0  0  0  0  0  0  0  0  0  0  0  # atno 4300 bound_to 2456
    2.6255   -9.2558    5.2384 LP  0  0  0  0  0  0  0  0  0  0  0  0  # atno 4301 bound_to 2510
    2.0286   -7.9251    5.9732 LP  0  0  0  0  0  0  0  0  0  0  0  0  # atno 4302 bound_to 2510
   -3.5190  -16.7154   13.3823 LP  0  0  0  0  0  0  0  0  0  0  0  0  # atno 4306 bound_to 3712
   -2.7037  -18.1290   13.4430 LP  0  0  0  0  0  0  0  0  0  0  0  0  # atno 4307 bound_to 3712
    1.8427  -19.6418    8.4247 LP  0  0  0  0  0  0  0  0  0  0  0  0  # atno 4314 bound_to 3832
    3.1280  -20.6440    8.5262 LP  0  0  0  0  0  0  0  0  0  0  0  0  # atno 4315 bound_to 3832
   -4.4374  -23.3181   10.2786 LP  0  0  0  0  0  0  0  0  0  0  0  0  # atno 4318 bound_to 3762
   -5.4987  -22.1425   10.6765 LP  0  0  0  0  0  0  0  0  0  0  0  0  # atno 4319 bound_to 3762
   -4.9761   -4.8818    7.7318 LP  0  0  0  0  0  0  0  0  0  0  0  0  # atno 4320 bound_to 2467
   -3.6375   -5.0650    8.6489 LP  0  0  0  0  0  0  0  0  0  0  0  0  # atno 4321 bound_to 2467

> <Gold.Score>
     Score     S(PLP)   S(hbond)     S(cho)   S(metal)  DE(clash)   DE(tors)     intcor
     25.93     -19.93       2.00       0.00       0.00       0.00       0.00       0.01

> <Gold.PLP.Fitness>
25.9279

> <Gold.PLP.PLP>
-19.9279

> <Gold.PLP.part.hbond>
-2.0000

> <Gold.PLP.part.metal>
0.0000

> <Gold.PLP.part.buried>
-3.7086

> <Gold.PLP.part.nonpolar>
-14.9947

> <Gold.PLP.part.repulsive>
0.2768

> <Gold.PLP.ligand.clash>
0.0000

> <Gold.PLP.ligand.torsion>
0.0026

> <Gold.PLP.Chemscore.Hbond>
2.0000

> <Gold.PLP.Chemscore.CHOScore>
0.0000

> <Gold.PLP.Chemscore.Metal>
0.0000

> <Gold.Chemscore.Hbonds>
donor molecule, donor type, donor heavy atom, donor atom, acceptor molecule, acceptor atom, score
      P1  H  2305  2313       L1     8  1.00
      P1  H  3832  3841       L1     1  1.00

> <Gold.PLP.Chemscore.Internal.Correction>
0.0052

