#       Name:                EN300-34862_i002
#       Creating user name   fsindt
#       Creation time:       Tue Feb 28 18:42:01 2023


#       File generated by GOLD software.
#

@<TRIPOS>MOLECULE
EN300-34862_i002|acide_2|mol2|6525|dock13
    13    13     1
SMALL
USER_CHARGES


@<TRIPOS>ATOM
      1 O1          -0.7582 -19.4630  12.4185 O.co2          1 <1>               -1.0000
      2 C2          -0.1177 -19.9480  13.3355 C.2            1 <1>                0.0000
      3 O3           0.2827 -21.0970  13.2585 O.co2          1 <1>                0.0000
      4 C4           0.1844 -19.1254  14.5615 C.3            1 <1>                0.0000
      5 C5           1.7055 -19.0035  14.7201 C.3            1 <1>                0.0000
      6 S6           2.0101 -17.2094  14.6622 S.3            1 <1>                0.0000
      7 C7           0.3185 -16.7422  14.4553 C.2            1 <1>                0.0000
      8 O8          -0.0857 -15.5998  14.3529 O.2            1 <1>                0.0000
      9 N9          -0.4449 -17.8310  14.4278 N.am           1 <1>                0.0000
     10 H10         -0.2252 -19.6292  15.4370 H              1 <1>                0.0000
     11 H11          2.0242 -19.4148  15.6780 H              1 <1>                0.0000
     12 H12          2.2170 -19.5050  13.8986 H              1 <1>                0.0000
     13 H13         -1.4060 -17.7578  14.3196 H              1 <1>                0.0000
@<TRIPOS>BOND
    1    1    2 ar    
    2    2    3 ar    
    3    2    4 1     
    4    4    5 1     
    5    4    9 1     
    6    4   10 1     
    7    5    6 1     
    8    5   11 1     
    9    5   12 1     
   10    6    7 1     
   11    7    8 2     
   12    7    9 am    
   13    9   13 1     
@<TRIPOS>SUBSTRUCTURE
      1 ****           1
@<TRIPOS>SET
DONOR_HYDROGENS      STATIC     ATOMS    <user>   **** ""
1 13
ATOM$RED        STATIC     ATOMS    COLORGROUP SYSTEM
1 13
@<TRIPOS>COMMENT
> <Gold.Version>
2022.2.0

> <Gold.Id.Protein>
3pbl|protein|mol2

> <Gold.Protein.RotatedTorsions>
[ 1303 1298 1297 1294 ] final   -2.59 input  179.99 | X-H torsion
[ 2461 2456 2455 2452 ] final -134.52 input   30.03 | X-H torsion
[ 2515 2510 2509 2506 ] final  -88.44 input  -89.99 | X-H torsion
[ 3721 3712 3711 3710 ] final  176.63 input -179.91 | X-H torsion
[ 3841 3832 3831 3830 ] final  -68.68 input -179.91 | X-H torsion
[ 3767 3762 3761 3758 ] final   73.15 input  -89.99 | X-H torsion
[ 2472 2467 2466 2463 ] final  155.76 input  -89.97 | X-H torsion

> <Gold.Protein.ActiveResidues>
 VAL82   VAL86   LEU89   PHE106  VAL107  ASP110  VAL111  MET112  CYS114  THR115 
 CYS181  SER182  ILE183  PHE188  VAL189  ILE190  SER192  SER193  SER196  TRP342 
 PHE345  PHE346  HIS349  VAL350  TYR365  THR369  GLY372  TYR373 

> <Gold.Protein.RotatedAtoms>
    3.3736   -9.8382    4.0253 H   0  0  0  0  0  0  0  0  0  0  0  0  # atno 1303 bound_to 1298
    0.7533   -9.2511    8.1918 H   0  0  0  0  0  0  0  0  0  0  0  0  # atno 2461 bound_to 2456
   -5.4956   -5.2775    8.6692 H   0  0  0  0  0  0  0  0  0  0  0  0  # atno 2472 bound_to 2467
    2.8238   -8.9128    4.5936 H   0  0  0  0  0  0  0  0  0  0  0  0  # atno 2515 bound_to 2510
   -3.3140  -16.6283   13.5008 H   0  0  0  0  0  0  0  0  0  0  0  0  # atno 3721 bound_to 3712
   -4.3930  -23.3258   10.3110 H   0  0  0  0  0  0  0  0  0  0  0  0  # atno 3767 bound_to 3762
    1.6641  -19.7392    8.9342 H   0  0  0  0  0  0  0  0  0  0  0  0  # atno 3841 bound_to 3832
    4.2687   -8.4757    4.1180 LP  0  0  0  0  0  0  0  0  0  0  0  0  # atno 4297 bound_to 1298
    4.7202   -9.8072    4.9484 LP  0  0  0  0  0  0  0  0  0  0  0  0  # atno 4298 bound_to 1298
    2.1603   -8.4728    7.9054 LP  0  0  0  0  0  0  0  0  0  0  0  0  # atno 4299 bound_to 2456
    0.8240   -8.0845    7.0510 LP  0  0  0  0  0  0  0  0  0  0  0  0  # atno 4300 bound_to 2456
    2.1515   -8.6668    6.0610 LP  0  0  0  0  0  0  0  0  0  0  0  0  # atno 4301 bound_to 2510
    2.3213   -7.4193    5.0210 LP  0  0  0  0  0  0  0  0  0  0  0  0  # atno 4302 bound_to 2510
   -2.7143  -18.1151   13.4135 LP  0  0  0  0  0  0  0  0  0  0  0  0  # atno 4306 bound_to 3712
   -2.9874  -17.4136   14.8626 LP  0  0  0  0  0  0  0  0  0  0  0  0  # atno 4307 bound_to 3712
    3.0202  -20.2859    8.2723 LP  0  0  0  0  0  0  0  0  0  0  0  0  # atno 4314 bound_to 3832
    2.2868  -21.1176    9.4711 LP  0  0  0  0  0  0  0  0  0  0  0  0  # atno 4315 bound_to 3832
   -5.5057  -22.1741   10.6312 LP  0  0  0  0  0  0  0  0  0  0  0  0  # atno 4318 bound_to 3762
   -4.2285  -22.3754   11.6287 LP  0  0  0  0  0  0  0  0  0  0  0  0  # atno 4319 bound_to 3762
   -4.2530   -4.7993    7.7237 LP  0  0  0  0  0  0  0  0  0  0  0  0  # atno 4320 bound_to 2467
   -3.9685   -5.3167    9.2462 LP  0  0  0  0  0  0  0  0  0  0  0  0  # atno 4321 bound_to 2467

> <Gold.Score>
     Score     S(PLP)   S(hbond)     S(cho)   S(metal)  DE(clash)   DE(tors)     intcor
     24.86     -18.87       2.00       0.00       0.00       0.00       0.01       0.01

> <Gold.PLP.Fitness>
24.8569

> <Gold.PLP.PLP>
-18.8658

> <Gold.PLP.part.hbond>
-2.0000

> <Gold.PLP.part.metal>
0.0000

> <Gold.PLP.part.buried>
-3.5240

> <Gold.PLP.part.nonpolar>
-13.3296

> <Gold.PLP.part.repulsive>
0.1178

> <Gold.PLP.ligand.clash>
0.0000

> <Gold.PLP.ligand.torsion>
0.0070

> <Gold.PLP.Chemscore.Hbond>
2.0000

> <Gold.PLP.Chemscore.CHOScore>
0.0000

> <Gold.PLP.Chemscore.Metal>
0.0000

> <Gold.Chemscore.Hbonds>
donor molecule, donor type, donor heavy atom, donor atom, acceptor molecule, acceptor atom, score
      L1  H     9    13       P1  3712  1.00
      P1  H  2305  2313       L1     8  1.00

> <Gold.PLP.Chemscore.Internal.Correction>
0.0052

