#       Name:                plp ligand
#       Creating user name   fsindt
#       Creation time:       Tue Feb 28 18:41:57 2023


#       File generated by GOLD software.
#

@<TRIPOS>MOLECULE
plp ligand
    13    13     1
SMALL
USER_CHARGES


@<TRIPOS>ATOM
      1 O1          -2.7381   0.0702  -0.0082 ACCEPTOR       1 <1>               -1.0000
      2 C2          -1.6362  -0.3161   0.3425 NONPOLAR       1 <1>                0.0000
      3 O3          -1.5226  -1.0142   1.3356 ACCEPTOR       1 <1>                0.0000
      4 C4          -0.4153   0.0640  -0.4550 NONPOLAR       1 <1>                0.0000
      5 C5           0.1495   1.3815   0.0918 NONPOLAR       1 <1>                0.0000
      6 S6           1.8434   0.9534   0.6040 NONPOLAR       1 <1>                0.0000
      7 C7           1.7537  -0.7474   0.1331 NONPOLAR       1 <1>                0.0000
      8 O8           2.6528  -1.5571   0.2557 ACCEPTOR       1 <1>                0.0000
      9 N9           0.5523  -1.0068  -0.3752 DONOR          1 <1>                0.0000
     10 H10         -0.7017   0.2052  -1.4972                1 <1>                0.0000
     11 H11          0.1667   2.1430  -0.6880                1 <1>                0.0000
     12 H12         -0.4341   1.7220   0.9471                1 <1>                0.0000
     13 H13          0.3295  -1.8981  -0.6862                1 <1>                0.0000
@<TRIPOS>BOND
    1    1    2 ar    
    2    2    3 ar    
    3    2    4 1     
    4    4    5 1     
    5    4    9 1     
    6    4   10 1     
    7    5    6 1     
    8    5   11 1     
    9    5   12 1     
   10    6    7 1     
   11    7    8 2     
   12    7    9 am    
   13    9   13 1     
@<TRIPOS>SUBSTRUCTURE
      1 ****           1
@<TRIPOS>SET
DONOR_HYDROGENS      STATIC     ATOMS    <user>   **** ""
1 13
ATOM$RED        STATIC     ATOMS    COLORGROUP SYSTEM
1 13
