#       Name:                EN300-4287209_i001
#       Creating user name   fsindt
#       Creation time:       Mon Feb 27 17:52:20 2023


#       File generated by GOLD software.
#

@<TRIPOS>MOLECULE
EN300-4287209_i001|acide_1|mol2|195|dock17
    16    16     1
SMALL
USER_CHARGES


@<TRIPOS>ATOM
      1 O1           1.3873 -14.3057   7.5312 O.co2          1 <1>               -1.0000
      2 C2           0.7922 -13.3990   8.0966 C.2            1 <1>                0.0000
      3 O3           0.6189 -12.3316   7.5252 O.co2          1 <1>                0.0000
      4 C4           0.2781 -13.5949   9.4649 C.ar           1 <1>                0.0000
      5 C5           0.7680 -14.6357  10.2540 C.ar           1 <1>                0.0000
      6 C6           0.2771 -14.8129  11.5448 C.ar           1 <1>                0.0000
      7 C7           0.7753 -15.8786  12.3613 C.1            1 <1>                0.0000
      8 C8           1.1836 -16.7522  13.0309 C.1            1 <1>                0.0000
      9 C9          -0.7014 -13.9493  12.0424 C.ar           1 <1>                0.0000
     10 C10         -1.1839 -12.9207  11.2580 C.ar           1 <1>                0.0000
     11 C11         -0.6986 -12.7336   9.9778 C.ar           1 <1>                0.0000
     12 Cl12        -1.3116 -11.4374   8.9991 Cl             1 <1>                0.0000
     13 H13          1.5244 -15.3015   9.8653 H              1 <1>                0.0000
     14 H14          1.5489 -17.5335  13.6296 H              1 <1>                0.0000
     15 H15         -1.0820 -14.0868  13.0437 H              1 <1>                0.0000
     16 H16         -1.9408 -12.2566  11.6485 H              1 <1>                0.0000
@<TRIPOS>BOND
    1    1    2 ar    
    2    2    3 ar    
    3    2    4 1     
    4    4    5 ar    
    5    4   11 ar    
    6    5    6 ar    
    7    5   13 1     
    8    6    7 1     
    9    6    9 ar    
   10    7    8 3     
   11    8   14 1     
   12    9   10 ar    
   13    9   15 1     
   14   10   11 ar    
   15   10   16 1     
   16   11   12 1     
@<TRIPOS>SUBSTRUCTURE
      1 ****           1
@<TRIPOS>COMMENT
> <Gold.Version>
2022.2.0

> <Gold.Id.Protein>
3pbl|protein|mol2

> <Gold.Protein.RotatedTorsions>
[ 1303 1298 1297 1294 ] final  -23.35 input  179.99 | X-H torsion
[ 2461 2456 2455 2452 ] final -122.26 input   30.03 | X-H torsion
[ 2515 2510 2509 2506 ] final  -91.58 input  -89.99 | X-H torsion
[ 3721 3712 3711 3710 ] final   14.39 input -179.91 | X-H torsion
[ 3841 3832 3831 3830 ] final  129.67 input -179.91 | X-H torsion
[ 3767 3762 3761 3758 ] final  -85.48 input  -89.99 | X-H torsion
[ 2472 2467 2466 2463 ] final  -14.74 input  -89.97 | X-H torsion

> <Gold.Protein.ActiveResidues>
 VAL82   VAL86   LEU89   PHE106  VAL107  ASP110  VAL111  MET112  CYS114  THR115 
 CYS181  SER182  ILE183  PHE188  VAL189  ILE190  SER192  SER193  SER196  TRP342 
 PHE345  PHE346  HIS349  VAL350  TYR365  THR369  GLY372  TYR373 

> <Gold.Protein.RotatedAtoms>
    3.3297   -9.5356    3.8774 H   0  0  0  0  0  0  0  0  0  0  0  0  # atno 1303 bound_to 1298
    0.6007   -9.1887    8.0763 H   0  0  0  0  0  0  0  0  0  0  0  0  # atno 2461 bound_to 2456
   -3.6887   -4.9384    8.2798 H   0  0  0  0  0  0  0  0  0  0  0  0  # atno 2472 bound_to 2467
    2.8178   -8.9513    4.6274 H   0  0  0  0  0  0  0  0  0  0  0  0  # atno 2515 bound_to 2510
   -2.4701  -18.0183   14.0349 H   0  0  0  0  0  0  0  0  0  0  0  0  # atno 3721 bound_to 3712
   -5.2717  -21.9294   11.1551 H   0  0  0  0  0  0  0  0  0  0  0  0  # atno 3767 bound_to 3762
    3.1181  -20.6318    8.8331 H   0  0  0  0  0  0  0  0  0  0  0  0  # atno 3841 bound_to 3832
    4.5346   -8.5276    4.3229 LP  0  0  0  0  0  0  0  0  0  0  0  0  # atno 4297 bound_to 1298
    4.4981  -10.0580    4.8914 LP  0  0  0  0  0  0  0  0  0  0  0  0  # atno 4298 bound_to 1298
    2.1308   -8.6187    8.0409 LP  0  0  0  0  0  0  0  0  0  0  0  0  # atno 4299 bound_to 2456
    1.0060   -8.0009    7.0311 LP  0  0  0  0  0  0  0  0  0  0  0  0  # atno 4300 bound_to 2456
    2.1360   -8.6191    6.0732 LP  0  0  0  0  0  0  0  0  0  0  0  0  # atno 4301 bound_to 2510
    2.3426   -7.4284    4.9750 LP  0  0  0  0  0  0  0  0  0  0  0  0  # atno 4302 bound_to 2510
   -3.3502  -16.8160   14.6330 LP  0  0  0  0  0  0  0  0  0  0  0  0  # atno 4306 bound_to 3712
   -3.3258  -17.1079   13.0265 LP  0  0  0  0  0  0  0  0  0  0  0  0  # atno 4307 bound_to 3712
    1.6686  -20.7381    9.5140 LP  0  0  0  0  0  0  0  0  0  0  0  0  # atno 4314 bound_to 3832
    1.9589  -19.6343    8.3461 LP  0  0  0  0  0  0  0  0  0  0  0  0  # atno 4315 bound_to 3832
   -3.9329  -22.8451   11.3447 LP  0  0  0  0  0  0  0  0  0  0  0  0  # atno 4318 bound_to 3762
   -4.9229  -23.1002   10.0714 LP  0  0  0  0  0  0  0  0  0  0  0  0  # atno 4319 bound_to 3762
   -4.7417   -5.4618    9.4129 LP  0  0  0  0  0  0  0  0  0  0  0  0  # atno 4320 bound_to 2467
   -5.2863   -4.9932    7.9464 LP  0  0  0  0  0  0  0  0  0  0  0  0  # atno 4321 bound_to 2467

> <Gold.Score>
     Score     S(PLP)   S(hbond)     S(cho)   S(metal)  DE(clash)   DE(tors)     intcor
     35.19     -35.46       0.00       0.00       0.00       0.00       0.14       0.00

> <Gold.PLP.Fitness>
35.1886

> <Gold.PLP.PLP>
-35.4635

> <Gold.PLP.part.hbond>
0.0000

> <Gold.PLP.part.metal>
0.0000

> <Gold.PLP.part.buried>
-4.5158

> <Gold.PLP.part.nonpolar>
-31.4100

> <Gold.PLP.part.repulsive>
0.1617

> <Gold.PLP.ligand.clash>
0.0000

> <Gold.PLP.ligand.torsion>
0.1375

> <Gold.PLP.Chemscore.Hbond>
0.0000

> <Gold.PLP.Chemscore.CHOScore>
0.0000

> <Gold.PLP.Chemscore.Metal>
0.0000

> <Gold.PLP.Chemscore.Internal.Correction>
0.0000

