#       Name:                EN300-4287209_i001
#       Creating user name   fsindt
#       Creation time:       Mon Feb 27 17:52:16 2023


#       File generated by GOLD software.
#

@<TRIPOS>MOLECULE
EN300-4287209_i001|acide_1|mol2|195|dock8
    16    16     1
SMALL
USER_CHARGES


@<TRIPOS>ATOM
      1 O1          -1.4864 -11.8823  12.1027 O.co2          1 <1>               -1.0000
      2 C2          -1.4708 -11.7199  10.8906 C.2            1 <1>                0.0000
      3 O3          -2.2069 -10.8901  10.3753 O.co2          1 <1>                0.0000
      4 C4          -0.5600 -12.5201  10.0510 C.ar           1 <1>                0.0000
      5 C5          -0.1483 -12.0375   8.8086 C.ar           1 <1>                0.0000
      6 C6           0.7122 -12.7996   8.0229 C.ar           1 <1>                0.0000
      7 C7           1.1398 -12.3109   6.7467 C.1            1 <1>                0.0000
      8 C8           1.4905 -11.9102   5.7004 C.1            1 <1>                0.0000
      9 C9           1.1581 -14.0412   8.4816 C.ar           1 <1>                0.0000
     10 C10          0.7479 -14.5155   9.7116 C.ar           1 <1>                0.0000
     11 C11         -0.1013 -13.7636  10.5008 C.ar           1 <1>                0.0000
     12 Cl12        -0.6116 -14.3685  12.0460 Cl             1 <1>                0.0000
     13 H13         -0.4957 -11.0770   8.4576 H              1 <1>                0.0000
     14 H14          1.8040 -11.5518   4.7646 H              1 <1>                0.0000
     15 H15          1.8256 -14.6323   7.8720 H              1 <1>                0.0000
     16 H16          1.0960 -15.4765  10.0604 H              1 <1>                0.0000
@<TRIPOS>BOND
    1    1    2 ar    
    2    2    3 ar    
    3    2    4 1     
    4    4    5 ar    
    5    4   11 ar    
    6    5    6 ar    
    7    5   13 1     
    8    6    7 1     
    9    6    9 ar    
   10    7    8 3     
   11    8   14 1     
   12    9   10 ar    
   13    9   15 1     
   14   10   11 ar    
   15   10   16 1     
   16   11   12 1     
@<TRIPOS>SUBSTRUCTURE
      1 ****           1
@<TRIPOS>COMMENT
> <Gold.Version>
2022.2.0

> <Gold.Id.Protein>
3pbl|protein|mol2

> <Gold.Protein.RotatedTorsions>
[ 1303 1298 1297 1294 ] final  -33.06 input  179.99 | X-H torsion
[ 2461 2456 2455 2452 ] final -154.74 input   30.03 | X-H torsion
[ 2515 2510 2509 2506 ] final -124.66 input  -89.99 | X-H torsion
[ 3721 3712 3711 3710 ] final -166.18 input -179.91 | X-H torsion
[ 3841 3832 3831 3830 ] final  149.60 input -179.91 | X-H torsion
[ 3767 3762 3761 3758 ] final   54.25 input  -89.99 | X-H torsion
[ 2472 2467 2466 2463 ] final  -22.39 input  -89.97 | X-H torsion

> <Gold.Protein.ActiveResidues>
 VAL82   VAL86   LEU89   PHE106  VAL107  ASP110  VAL111  MET112  CYS114  THR115 
 CYS181  SER182  ILE183  PHE188  VAL189  ILE190  SER192  SER193  SER196  TRP342 
 PHE345  PHE346  HIS349  VAL350  TYR365  THR369  GLY372  TYR373 

> <Gold.Protein.RotatedAtoms>
    3.3446   -9.3843    3.8290 H   0  0  0  0  0  0  0  0  0  0  0  0  # atno 1303 bound_to 1298
    1.0504   -9.2886    8.3330 H   0  0  0  0  0  0  0  0  0  0  0  0  # atno 2461 bound_to 2456
   -3.6548   -4.9762    8.3949 H   0  0  0  0  0  0  0  0  0  0  0  0  # atno 2472 bound_to 2467
    2.6903   -9.2262    5.0703 H   0  0  0  0  0  0  0  0  0  0  0  0  # atno 2515 bound_to 2510
   -3.3385  -16.5475   13.7455 H   0  0  0  0  0  0  0  0  0  0  0  0  # atno 3721 bound_to 3712
   -4.6490  -23.2504   10.1538 H   0  0  0  0  0  0  0  0  0  0  0  0  # atno 3767 bound_to 3762
    3.1244  -20.4107    8.6312 H   0  0  0  0  0  0  0  0  0  0  0  0  # atno 3841 bound_to 3832
    4.6425   -8.5906    4.4223 LP  0  0  0  0  0  0  0  0  0  0  0  0  # atno 4297 bound_to 1298
    4.3754  -10.1464    4.8404 LP  0  0  0  0  0  0  0  0  0  0  0  0  # atno 4298 bound_to 1298
    2.1180   -8.2481    7.6662 LP  0  0  0  0  0  0  0  0  0  0  0  0  # atno 4299 bound_to 2456
    0.5693   -8.2717    7.1491 LP  0  0  0  0  0  0  0  0  0  0  0  0  # atno 4300 bound_to 2456
    2.0343   -8.0927    6.0453 LP  0  0  0  0  0  0  0  0  0  0  0  0  # atno 4301 bound_to 2510
    2.5720   -7.6798    4.5597 LP  0  0  0  0  0  0  0  0  0  0  0  0  # atno 4302 bound_to 2510
   -2.8203  -17.9639   13.1949 LP  0  0  0  0  0  0  0  0  0  0  0  0  # atno 4306 bound_to 3712
   -2.8530  -17.6580   14.7987 LP  0  0  0  0  0  0  0  0  0  0  0  0  # atno 4307 bound_to 3712
    1.9214  -20.9496    9.5469 LP  0  0  0  0  0  0  0  0  0  0  0  0  # atno 4314 bound_to 3832
    1.6988  -19.6783    8.5465 LP  0  0  0  0  0  0  0  0  0  0  0  0  # atno 4315 bound_to 3832
   -5.4319  -22.0206   10.8897 LP  0  0  0  0  0  0  0  0  0  0  0  0  # atno 4318 bound_to 3762
   -4.0465  -22.6043   11.5273 LP  0  0  0  0  0  0  0  0  0  0  0  0  # atno 4319 bound_to 3762
   -4.8629   -5.4631    9.3795 LP  0  0  0  0  0  0  0  0  0  0  0  0  # atno 4320 bound_to 2467
   -5.1991   -4.9542    7.8647 LP  0  0  0  0  0  0  0  0  0  0  0  0  # atno 4321 bound_to 2467

> <Gold.Score>
     Score     S(PLP)   S(hbond)     S(cho)   S(metal)  DE(clash)   DE(tors)     intcor
     41.26     -41.77       0.00       0.00       0.00       0.00       0.25       0.00

> <Gold.PLP.Fitness>
41.2649

> <Gold.PLP.PLP>
-41.7738

> <Gold.PLP.part.hbond>
-1.0000

> <Gold.PLP.part.metal>
0.0000

> <Gold.PLP.part.buried>
-3.4055

> <Gold.PLP.part.nonpolar>
-38.1001

> <Gold.PLP.part.repulsive>
0.1087

> <Gold.PLP.ligand.clash>
0.0000

> <Gold.PLP.ligand.torsion>
0.2545

> <Gold.PLP.Chemscore.Hbond>
0.0000

> <Gold.PLP.Chemscore.CHOScore>
0.0000

> <Gold.PLP.Chemscore.Metal>
0.0000

> <Gold.PLP.Chemscore.Internal.Correction>
0.0000

