#       Name:                EN300-4287209_i001
#       Creating user name   fsindt
#       Creation time:       Mon Feb 27 17:52:21 2023


#       File generated by GOLD software.
#

@<TRIPOS>MOLECULE
EN300-4287209_i001|acide_1|mol2|195|dock19
    16    16     1
SMALL
USER_CHARGES


@<TRIPOS>ATOM
      1 O1           0.8790 -15.4749   8.7555 O.co2          1 <1>               -1.0000
      2 C2           0.4092 -14.3881   8.4488 C.2            1 <1>                0.0000
      3 O3           0.5378 -13.9662   7.3081 O.co2          1 <1>                0.0000
      4 C4          -0.3178 -13.5892   9.4529 C.ar           1 <1>                0.0000
      5 C5          -1.0338 -12.4577   9.0618 C.ar           1 <1>                0.0000
      6 C6          -1.7175 -11.7097  10.0165 C.ar           1 <1>                0.0000
      7 C7          -2.4553 -10.5472   9.6230 C.1            1 <1>                0.0000
      8 C8          -3.0603  -9.5942   9.3004 C.1            1 <1>                0.0000
      9 C9          -1.6834 -12.0952  11.3586 C.ar           1 <1>                0.0000
     10 C10         -0.9732 -13.2154  11.7416 C.ar           1 <1>                0.0000
     11 C11         -0.2963 -13.9673  10.8002 C.ar           1 <1>                0.0000
     12 Cl12         0.5940 -15.3743  11.2916 Cl             1 <1>                0.0000
     13 H13         -1.0574 -12.1629   8.0230 H              1 <1>                0.0000
     14 H14         -3.6012  -8.7418   9.0118 H              1 <1>                0.0000
     15 H15         -2.2138 -11.5149  12.0990 H              1 <1>                0.0000
     16 H16         -0.9504 -13.5081  12.7809 H              1 <1>                0.0000
@<TRIPOS>BOND
    1    1    2 ar    
    2    2    3 ar    
    3    2    4 1     
    4    4    5 ar    
    5    4   11 ar    
    6    5    6 ar    
    7    5   13 1     
    8    6    7 1     
    9    6    9 ar    
   10    7    8 3     
   11    8   14 1     
   12    9   10 ar    
   13    9   15 1     
   14   10   11 ar    
   15   10   16 1     
   16   11   12 1     
@<TRIPOS>SUBSTRUCTURE
      1 ****           1
@<TRIPOS>COMMENT
> <Gold.Version>
2022.2.0

> <Gold.Id.Protein>
3pbl|protein|mol2

> <Gold.Protein.RotatedTorsions>
[ 1303 1298 1297 1294 ] final   67.08 input  179.99 | X-H torsion
[ 2461 2456 2455 2452 ] final  -37.57 input   30.03 | X-H torsion
[ 2515 2510 2509 2506 ] final  132.10 input  -89.99 | X-H torsion
[ 3721 3712 3711 3710 ] final   45.56 input -179.91 | X-H torsion
[ 3841 3832 3831 3830 ] final -120.92 input -179.91 | X-H torsion
[ 3767 3762 3761 3758 ] final   63.31 input  -89.99 | X-H torsion
[ 2472 2467 2466 2463 ] final   85.95 input  -89.97 | X-H torsion

> <Gold.Protein.ActiveResidues>
 VAL82   VAL86   LEU89   PHE106  VAL107  ASP110  VAL111  MET112  CYS114  THR115 
 CYS181  SER182  ILE183  PHE188  VAL189  ILE190  SER192  SER193  SER196  TRP342 
 PHE345  PHE346  HIS349  VAL350  TYR365  THR369  GLY372  TYR373 

> <Gold.Protein.RotatedAtoms>
    4.1055  -10.2558    4.6960 H   0  0  0  0  0  0  0  0  0  0  0  0  # atno 1303 bound_to 1298
    0.5393   -8.3017    7.1687 H   0  0  0  0  0  0  0  0  0  0  0  0  # atno 2461 bound_to 2456
   -5.0451   -4.9016    7.7636 H   0  0  0  0  0  0  0  0  0  0  0  0  # atno 2472 bound_to 2467
    2.0712   -8.3605    6.0952 H   0  0  0  0  0  0  0  0  0  0  0  0  # atno 2515 bound_to 2510
   -2.5260  -17.9922   13.5737 H   0  0  0  0  0  0  0  0  0  0  0  0  # atno 3721 bound_to 3712
   -4.5238  -23.2956   10.2205 H   0  0  0  0  0  0  0  0  0  0  0  0  # atno 3767 bound_to 3762
    2.2363  -19.5958    8.4515 H   0  0  0  0  0  0  0  0  0  0  0  0  # atno 3841 bound_to 3832
    3.4432   -9.0787    3.7783 LP  0  0  0  0  0  0  0  0  0  0  0  0  # atno 4297 bound_to 1298
    4.8135   -8.7865    4.6172 LP  0  0  0  0  0  0  0  0  0  0  0  0  # atno 4298 bound_to 1298
    1.0950   -9.2869    8.3469 LP  0  0  0  0  0  0  0  0  0  0  0  0  # atno 4299 bound_to 2456
    2.1032   -8.2194    7.6324 LP  0  0  0  0  0  0  0  0  0  0  0  0  # atno 4300 bound_to 2456
    2.4569   -7.5188    4.7503 LP  0  0  0  0  0  0  0  0  0  0  0  0  # atno 4301 bound_to 2510
    2.7688   -9.1198    4.8293 LP  0  0  0  0  0  0  0  0  0  0  0  0  # atno 4302 bound_to 2510
   -3.1042  -17.2112   14.8518 LP  0  0  0  0  0  0  0  0  0  0  0  0  # atno 4306 bound_to 3712
   -3.5071  -16.7428   13.3402 LP  0  0  0  0  0  0  0  0  0  0  0  0  # atno 4307 bound_to 3712
    3.0570  -20.9246    8.8213 LP  0  0  0  0  0  0  0  0  0  0  0  0  # atno 4314 bound_to 3832
    1.5891  -20.6446    9.4796 LP  0  0  0  0  0  0  0  0  0  0  0  0  # atno 4315 bound_to 3832
   -5.4777  -22.0869   10.7645 LP  0  0  0  0  0  0  0  0  0  0  0  0  # atno 4318 bound_to 3762
   -4.1258  -22.4928   11.5858 LP  0  0  0  0  0  0  0  0  0  0  0  0  # atno 4319 bound_to 3762
   -3.6346   -5.0381    8.5750 LP  0  0  0  0  0  0  0  0  0  0  0  0  # atno 4320 bound_to 2467
   -5.0373   -5.4538    9.3003 LP  0  0  0  0  0  0  0  0  0  0  0  0  # atno 4321 bound_to 2467

> <Gold.Score>
     Score     S(PLP)   S(hbond)     S(cho)   S(metal)  DE(clash)   DE(tors)     intcor
     35.94     -36.03       0.00       0.00       0.00       0.00       0.04       0.00

> <Gold.PLP.Fitness>
35.9443

> <Gold.PLP.PLP>
-36.0333

> <Gold.PLP.part.hbond>
0.0000

> <Gold.PLP.part.metal>
0.0000

> <Gold.PLP.part.buried>
-3.6929

> <Gold.PLP.part.nonpolar>
-35.0683

> <Gold.PLP.part.repulsive>
2.2209

> <Gold.PLP.ligand.clash>
0.0000

> <Gold.PLP.ligand.torsion>
0.0446

> <Gold.PLP.Chemscore.Hbond>
0.0000

> <Gold.PLP.Chemscore.CHOScore>
0.0000

> <Gold.PLP.Chemscore.Metal>
0.0000

> <Gold.PLP.Chemscore.Internal.Correction>
0.0000

