#       Name:                EN300-4287209_i001
#       Creating user name   fsindt
#       Creation time:       Mon Feb 27 17:52:15 2023


#       File generated by GOLD software.
#

@<TRIPOS>MOLECULE
EN300-4287209_i001|acide_1|mol2|195|dock6
    16    16     1
SMALL
USER_CHARGES


@<TRIPOS>ATOM
      1 O1          -0.7080 -17.4711  12.5580 O.co2          1 <1>               -1.0000
      2 C2          -0.1536 -16.4857  12.0918 C.2            1 <1>                0.0000
      3 O3           0.3776 -15.6734  12.8360 O.co2          1 <1>                0.0000
      4 C4          -0.1204 -16.2800  10.6318 C.ar           1 <1>                0.0000
      5 C5           0.2132 -15.0305  10.1087 C.ar           1 <1>                0.0000
      6 C6           0.2425 -14.8456   8.7290 C.ar           1 <1>                0.0000
      7 C7           0.5845 -13.5663   8.1842 C.1            1 <1>                0.0000
      8 C8           0.8649 -12.5175   7.7374 C.1            1 <1>                0.0000
      9 C9          -0.0616 -15.9100   7.8771 C.ar           1 <1>                0.0000
     10 C10         -0.3916 -17.1448   8.3989 C.ar           1 <1>                0.0000
     11 C11         -0.4177 -17.3393   9.7667 C.ar           1 <1>                0.0000
     12 Cl12        -0.8340 -18.8957  10.4133 Cl             1 <1>                0.0000
     13 H13          0.4473 -14.2101  10.7709 H              1 <1>                0.0000
     14 H14          1.1157 -11.5794   7.3378 H              1 <1>                0.0000
     15 H15         -0.0387 -15.7663   6.8069 H              1 <1>                0.0000
     16 H16         -0.6261 -17.9636   7.7348 H              1 <1>                0.0000
@<TRIPOS>BOND
    1    1    2 ar    
    2    2    3 ar    
    3    2    4 1     
    4    4    5 ar    
    5    4   11 ar    
    6    5    6 ar    
    7    5   13 1     
    8    6    7 1     
    9    6    9 ar    
   10    7    8 3     
   11    8   14 1     
   12    9   10 ar    
   13    9   15 1     
   14   10   11 ar    
   15   10   16 1     
   16   11   12 1     
@<TRIPOS>SUBSTRUCTURE
      1 ****           1
@<TRIPOS>COMMENT
> <Gold.Version>
2022.2.0

> <Gold.Id.Protein>
3pbl|protein|mol2

> <Gold.Protein.RotatedTorsions>
[ 1303 1298 1297 1294 ] final -132.79 input  179.99 | X-H torsion
[ 2461 2456 2455 2452 ] final   49.52 input   30.03 | X-H torsion
[ 2515 2510 2509 2506 ] final  -74.61 input  -89.99 | X-H torsion
[ 3721 3712 3711 3710 ] final   66.86 input -179.91 | X-H torsion
[ 3841 3832 3831 3830 ] final -136.33 input -179.91 | X-H torsion
[ 3767 3762 3761 3758 ] final -120.17 input  -89.99 | X-H torsion
[ 2472 2467 2466 2463 ] final  -63.15 input  -89.97 | X-H torsion

> <Gold.Protein.ActiveResidues>
 VAL82   VAL86   LEU89   PHE106  VAL107  ASP110  VAL111  MET112  CYS114  THR115 
 CYS181  SER182  ILE183  PHE188  VAL189  ILE190  SER192  SER193  SER196  TRP342 
 PHE345  PHE346  HIS349  VAL350  TYR365  THR369  GLY372  TYR373 

> <Gold.Protein.RotatedAtoms>
    4.4035   -8.4867    4.2166 H   0  0  0  0  0  0  0  0  0  0  0  0  # atno 1303 bound_to 1298
    1.7916   -7.9717    7.2762 H   0  0  0  0  0  0  0  0  0  0  0  0  # atno 2461 bound_to 2456
   -3.7506   -5.2057    9.0026 H   0  0  0  0  0  0  0  0  0  0  0  0  # atno 2472 bound_to 2467
    2.8359   -8.7239    4.4684 H   0  0  0  0  0  0  0  0  0  0  0  0  # atno 2515 bound_to 2510
   -2.6295  -17.8534   13.3043 H   0  0  0  0  0  0  0  0  0  0  0  0  # atno 3721 bound_to 3712
   -4.8463  -21.9692   11.5205 H   0  0  0  0  0  0  0  0  0  0  0  0  # atno 3767 bound_to 3762
    2.4470  -19.6594    8.3779 H   0  0  0  0  0  0  0  0  0  0  0  0  # atno 3841 bound_to 3832
    4.6192   -9.9398    4.9297 LP  0  0  0  0  0  0  0  0  0  0  0  0  # atno 4297 bound_to 1298
    3.3394   -9.6952    3.9454 LP  0  0  0  0  0  0  0  0  0  0  0  0  # atno 4298 bound_to 1298
    0.3367   -8.6849    7.4807 LP  0  0  0  0  0  0  0  0  0  0  0  0  # atno 4299 bound_to 2456
    1.6096   -9.1513    8.3910 LP  0  0  0  0  0  0  0  0  0  0  0  0  # atno 4300 bound_to 2456
    2.2290   -8.8632    5.9777 LP  0  0  0  0  0  0  0  0  0  0  0  0  # atno 4301 bound_to 2510
    2.2317   -7.4118    5.2294 LP  0  0  0  0  0  0  0  0  0  0  0  0  # atno 4302 bound_to 2510
   -2.9287  -17.5185   14.8458 LP  0  0  0  0  0  0  0  0  0  0  0  0  # atno 4306 bound_to 3712
   -3.5631  -16.5958   13.6572 LP  0  0  0  0  0  0  0  0  0  0  0  0  # atno 4307 bound_to 3712
    2.9368  -21.0514    9.0093 LP  0  0  0  0  0  0  0  0  0  0  0  0  # atno 4314 bound_to 3832
    1.4659  -20.4444    9.3766 LP  0  0  0  0  0  0  0  0  0  0  0  0  # atno 4315 bound_to 3832
   -3.9562  -23.1906   10.9019 LP  0  0  0  0  0  0  0  0  0  0  0  0  # atno 4318 bound_to 3762
   -5.3249  -22.7151   10.1489 LP  0  0  0  0  0  0  0  0  0  0  0  0  # atno 4319 bound_to 3762
   -5.3746   -5.3746    8.9776 LP  0  0  0  0  0  0  0  0  0  0  0  0  # atno 4320 bound_to 2467
   -4.5916   -4.8133    7.6591 LP  0  0  0  0  0  0  0  0  0  0  0  0  # atno 4321 bound_to 2467

> <Gold.Score>
     Score     S(PLP)   S(hbond)     S(cho)   S(metal)  DE(clash)   DE(tors)     intcor
     33.56     -31.09       0.90       0.00       0.00       0.00       0.11       0.00

> <Gold.PLP.Fitness>
33.5572

> <Gold.PLP.PLP>
-31.0882

> <Gold.PLP.part.hbond>
-1.0000

> <Gold.PLP.part.metal>
0.0000

> <Gold.PLP.part.buried>
-1.2210

> <Gold.PLP.part.nonpolar>
-28.8962

> <Gold.PLP.part.repulsive>
0.1051

> <Gold.PLP.ligand.clash>
0.0000

> <Gold.PLP.ligand.torsion>
0.1095

> <Gold.PLP.Chemscore.Hbond>
0.8960

> <Gold.PLP.Chemscore.CHOScore>
0.0000

> <Gold.PLP.Chemscore.Metal>
0.0000

> <Gold.Chemscore.Hbonds>
donor molecule, donor type, donor heavy atom, donor atom, acceptor molecule, acceptor atom, score
      P1  H  3712  3721       L1     1  0.90

> <Gold.PLP.Chemscore.Internal.Correction>
0.0000

