#       Name:                EN300-4287209_i001
#       Creating user name   fsindt
#       Creation time:       Mon Feb 27 17:52:15 2023


#       File generated by GOLD software.
#

@<TRIPOS>MOLECULE
EN300-4287209_i001|acide_1|mol2|195|dock4
    16    16     1
SMALL
USER_CHARGES


@<TRIPOS>ATOM
      1 O1          -0.1097 -14.9704  12.6208 O.co2          1 <1>               -1.0000
      2 C2           0.1374 -15.9786  13.2675 C.2            1 <1>                0.0000
      3 O3           0.4732 -15.8862  14.4399 O.co2          1 <1>                0.0000
      4 C4           0.0246 -17.3063  12.6353 C.ar           1 <1>                0.0000
      5 C5          -0.4127 -17.4178  11.3154 C.ar           1 <1>                0.0000
      6 C6          -0.5157 -18.6752  10.7265 C.ar           1 <1>                0.0000
      7 C7          -0.9632 -18.7981   9.3719 C.1            1 <1>                0.0000
      8 C8          -1.3302 -18.8989   8.2612 C.1            1 <1>                0.0000
      9 C9          -0.1813 -19.8166  11.4589 C.ar           1 <1>                0.0000
     10 C10          0.2505 -19.7020  12.7651 C.ar           1 <1>                0.0000
     11 C11          0.3614 -18.4578  13.3560 C.ar           1 <1>                0.0000
     12 Cl12         0.9055 -18.3238  14.9992 Cl             1 <1>                0.0000
     13 H13         -0.6705 -16.5327  10.7528 H              1 <1>                0.0000
     14 H14         -1.6582 -18.9891   7.2679 H              1 <1>                0.0000
     15 H15         -0.2613 -20.7919  11.0019 H              1 <1>                0.0000
     16 H16          0.5072 -20.5884  13.3261 H              1 <1>                0.0000
@<TRIPOS>BOND
    1    1    2 ar    
    2    2    3 ar    
    3    2    4 1     
    4    4    5 ar    
    5    4   11 ar    
    6    5    6 ar    
    7    5   13 1     
    8    6    7 1     
    9    6    9 ar    
   10    7    8 3     
   11    8   14 1     
   12    9   10 ar    
   13    9   15 1     
   14   10   11 ar    
   15   10   16 1     
   16   11   12 1     
@<TRIPOS>SUBSTRUCTURE
      1 ****           1
@<TRIPOS>COMMENT
> <Gold.Version>
2022.2.0

> <Gold.Id.Protein>
3pbl|protein|mol2

> <Gold.Protein.RotatedTorsions>
[ 1303 1298 1297 1294 ] final  -62.14 input  179.99 | X-H torsion
[ 2461 2456 2455 2452 ] final -108.01 input   30.03 | X-H torsion
[ 2515 2510 2509 2506 ] final  150.24 input  -89.99 | X-H torsion
[ 3721 3712 3711 3710 ] final  -59.28 input -179.91 | X-H torsion
[ 3841 3832 3831 3830 ] final   18.31 input -179.91 | X-H torsion
[ 3767 3762 3761 3758 ] final -154.86 input  -89.99 | X-H torsion
[ 2472 2467 2466 2463 ] final   63.49 input  -89.97 | X-H torsion

> <Gold.Protein.ActiveResidues>
 VAL82   VAL86   LEU89   PHE106  VAL107  ASP110  VAL111  MET112  CYS114  THR115 
 CYS181  SER182  ILE183  PHE188  VAL189  ILE190  SER192  SER193  SER196  TRP342 
 PHE345  PHE346  HIS349  VAL350  TYR365  THR369  GLY372  TYR373 

> <Gold.Protein.RotatedAtoms>
    3.5173   -8.9465    3.7792 H   0  0  0  0  0  0  0  0  0  0  0  0  # atno 1303 bound_to 1298
    0.4607   -9.0828    7.9216 H   0  0  0  0  0  0  0  0  0  0  0  0  # atno 2461 bound_to 2456
   -4.6999   -4.8274    7.6630 H   0  0  0  0  0  0  0  0  0  0  0  0  # atno 2472 bound_to 2467
    2.1452   -8.6468    6.0661 H   0  0  0  0  0  0  0  0  0  0  0  0  # atno 2515 bound_to 2510
   -2.7948  -17.3404   14.7518 H   0  0  0  0  0  0  0  0  0  0  0  0  # atno 3721 bound_to 3712
   -4.3720  -22.2420   11.6500 H   0  0  0  0  0  0  0  0  0  0  0  0  # atno 3767 bound_to 3762
    1.9232  -20.6809    9.6169 H   0  0  0  0  0  0  0  0  0  0  0  0  # atno 3841 bound_to 3832
    4.8659   -8.9032    4.6989 LP  0  0  0  0  0  0  0  0  0  0  0  0  # atno 4297 bound_to 1298
    3.9792  -10.2718    4.6138 LP  0  0  0  0  0  0  0  0  0  0  0  0  # atno 4298 bound_to 1298
    2.0460   -8.7870    8.1794 LP  0  0  0  0  0  0  0  0  0  0  0  0  # atno 4299 bound_to 2456
    1.2308   -7.9385    7.0472 LP  0  0  0  0  0  0  0  0  0  0  0  0  # atno 4300 bound_to 2456
    2.3302   -7.4228    5.0016 LP  0  0  0  0  0  0  0  0  0  0  0  0  # atno 4301 bound_to 2510
    2.8214   -8.9294    4.6072 LP  0  0  0  0  0  0  0  0  0  0  0  0  # atno 4302 bound_to 2510
   -3.5469  -16.6463   13.5147 LP  0  0  0  0  0  0  0  0  0  0  0  0  # atno 4306 bound_to 3712
   -2.7542  -18.0603   13.3172 LP  0  0  0  0  0  0  0  0  0  0  0  0  # atno 4307 bound_to 3712
    1.8797  -19.6376    8.3980 LP  0  0  0  0  0  0  0  0  0  0  0  0  # atno 4314 bound_to 3832
    3.1281  -20.6782    8.5567 LP  0  0  0  0  0  0  0  0  0  0  0  0  # atno 4315 bound_to 3832
   -4.2472  -23.3350   10.4431 LP  0  0  0  0  0  0  0  0  0  0  0  0  # atno 4318 bound_to 3762
   -5.5081  -22.2979   10.4782 LP  0  0  0  0  0  0  0  0  0  0  0  0  # atno 4319 bound_to 3762
   -3.7039   -5.1670    8.9117 LP  0  0  0  0  0  0  0  0  0  0  0  0  # atno 4320 bound_to 2467
   -5.3131   -5.3991    9.0643 LP  0  0  0  0  0  0  0  0  0  0  0  0  # atno 4321 bound_to 2467

> <Gold.Score>
     Score     S(PLP)   S(hbond)     S(cho)   S(metal)  DE(clash)   DE(tors)     intcor
     37.66     -34.66       1.00       0.00       0.00       0.00       0.00       0.00

> <Gold.PLP.Fitness>
37.6574

> <Gold.PLP.PLP>
-34.6640

> <Gold.PLP.part.hbond>
-1.0000

> <Gold.PLP.part.metal>
0.0000

> <Gold.PLP.part.buried>
-5.4130

> <Gold.PLP.part.nonpolar>
-28.9745

> <Gold.PLP.part.repulsive>
0.0969

> <Gold.PLP.ligand.clash>
0.0000

> <Gold.PLP.ligand.torsion>
0.0033

> <Gold.PLP.Chemscore.Hbond>
1.0000

> <Gold.PLP.Chemscore.CHOScore>
0.0000

> <Gold.PLP.Chemscore.Metal>
0.0000

> <Gold.Chemscore.Hbonds>
donor molecule, donor type, donor heavy atom, donor atom, acceptor molecule, acceptor atom, score
      P1  H  2305  2313       L1     3  1.00

> <Gold.PLP.Chemscore.Internal.Correction>
0.0000

