#       Name:                EN300-4287209_i001
#       Creating user name   fsindt
#       Creation time:       Mon Feb 27 17:52:17 2023


#       File generated by GOLD software.
#

@<TRIPOS>MOLECULE
EN300-4287209_i001|acide_1|mol2|195|dock10
    16    16     1
SMALL
USER_CHARGES


@<TRIPOS>ATOM
      1 O1           1.3976 -12.8480   7.0587 O.co2          1 <1>               -1.0000
      2 C2           0.7656 -11.8909   7.4833 C.2            1 <1>                0.0000
      3 O3           0.8654 -10.8012   6.9371 O.co2          1 <1>                0.0000
      4 C4          -0.1218 -12.0522   8.6502 C.ar           1 <1>                0.0000
      5 C5          -1.2371 -11.2280   8.8003 C.ar           1 <1>                0.0000
      6 C6          -2.0695 -11.3878   9.9049 C.ar           1 <1>                0.0000
      7 C7          -3.2167 -10.5460  10.0659 C.1            1 <1>                0.0000
      8 C8          -4.1573  -9.8560  10.1979 C.1            1 <1>                0.0000
      9 C9          -1.7844 -12.3707  10.8554 C.ar           1 <1>                0.0000
     10 C10         -0.6793 -13.1841  10.7034 C.ar           1 <1>                0.0000
     11 C11          0.1494 -13.0367   9.6074 C.ar           1 <1>                0.0000
     12 Cl12         1.5367 -14.0643   9.4250 Cl             1 <1>                0.0000
     13 H13         -1.4538 -10.4689   8.0632 H              1 <1>                0.0000
     14 H14         -4.9985  -9.2388  10.3159 H              1 <1>                0.0000
     15 H15         -2.4302 -12.4945  11.7121 H              1 <1>                0.0000
     16 H16         -0.4640 -13.9420  11.4420 H              1 <1>                0.0000
@<TRIPOS>BOND
    1    1    2 ar    
    2    2    3 ar    
    3    2    4 1     
    4    4    5 ar    
    5    4   11 ar    
    6    5    6 ar    
    7    5   13 1     
    8    6    7 1     
    9    6    9 ar    
   10    7    8 3     
   11    8   14 1     
   12    9   10 ar    
   13    9   15 1     
   14   10   11 ar    
   15   10   16 1     
   16   11   12 1     
@<TRIPOS>SUBSTRUCTURE
      1 ****           1
@<TRIPOS>COMMENT
> <Gold.Version>
2022.2.0

> <Gold.Id.Protein>
3pbl|protein|mol2

> <Gold.Protein.RotatedTorsions>
[ 1303 1298 1297 1294 ] final -100.93 input  179.99 | X-H torsion
[ 2461 2456 2455 2452 ] final -135.59 input   30.03 | X-H torsion
[ 2515 2510 2509 2506 ] final  170.28 input  -89.99 | X-H torsion
[ 3721 3712 3711 3710 ] final   29.72 input -179.91 | X-H torsion
[ 3841 3832 3831 3830 ] final  -44.27 input -179.91 | X-H torsion
[ 3767 3762 3761 3758 ] final   62.15 input  -89.99 | X-H torsion
[ 2472 2467 2466 2463 ] final  -72.14 input  -89.97 | X-H torsion

> <Gold.Protein.ActiveResidues>
 VAL82   VAL86   LEU89   PHE106  VAL107  ASP110  VAL111  MET112  CYS114  THR115 
 CYS181  SER182  ILE183  PHE188  VAL189  ILE190  SER192  SER193  SER196  TRP342 
 PHE345  PHE346  HIS349  VAL350  TYR365  THR369  GLY372  TYR373 

> <Gold.Protein.RotatedAtoms>
    3.9710   -8.5458    3.9390 H   0  0  0  0  0  0  0  0  0  0  0  0  # atno 1303 bound_to 1298
    0.7678   -9.2552    8.2010 H   0  0  0  0  0  0  0  0  0  0  0  0  # atno 2461 bound_to 2456
   -3.8313   -5.2555    9.1160 H   0  0  0  0  0  0  0  0  0  0  0  0  # atno 2472 bound_to 2467
    2.2597   -8.9257    5.9373 H   0  0  0  0  0  0  0  0  0  0  0  0  # atno 2515 bound_to 2510
   -2.4821  -18.0330   13.8047 H   0  0  0  0  0  0  0  0  0  0  0  0  # atno 3721 bound_to 3712
   -4.5395  -23.2908   10.2111 H   0  0  0  0  0  0  0  0  0  0  0  0  # atno 3767 bound_to 3762
    1.5645  -19.9687    9.2013 H   0  0  0  0  0  0  0  0  0  0  0  0  # atno 3841 bound_to 3832
    4.8685   -9.4863    4.9270 LP  0  0  0  0  0  0  0  0  0  0  0  0  # atno 4297 bound_to 1298
    3.5227  -10.0895    4.2258 LP  0  0  0  0  0  0  0  0  0  0  0  0  # atno 4298 bound_to 1298
    2.1609   -8.4602    7.8931 LP  0  0  0  0  0  0  0  0  0  0  0  0  # atno 4299 bound_to 2456
    0.8089   -8.0930    7.0542 LP  0  0  0  0  0  0  0  0  0  0  0  0  # atno 4300 bound_to 2456
    2.2026   -7.4220    5.3037 LP  0  0  0  0  0  0  0  0  0  0  0  0  # atno 4301 bound_to 2510
    2.8345   -8.6512    4.4340 LP  0  0  0  0  0  0  0  0  0  0  0  0  # atno 4302 bound_to 2510
   -3.2346  -16.9960   14.7723 LP  0  0  0  0  0  0  0  0  0  0  0  0  # atno 4306 bound_to 3712
   -3.4274  -16.9108   13.1530 LP  0  0  0  0  0  0  0  0  0  0  0  0  # atno 4307 bound_to 3712
    2.7787  -19.9843    8.1517 LP  0  0  0  0  0  0  0  0  0  0  0  0  # atno 4314 bound_to 3832
    2.6434  -21.1542    9.2830 LP  0  0  0  0  0  0  0  0  0  0  0  0  # atno 4315 bound_to 3832
   -5.4729  -22.0777   10.7804 LP  0  0  0  0  0  0  0  0  0  0  0  0  # atno 4318 bound_to 3762
   -4.1149  -22.5069   11.5793 LP  0  0  0  0  0  0  0  0  0  0  0  0  # atno 4319 bound_to 3762
   -5.4406   -5.3362    8.8510 LP  0  0  0  0  0  0  0  0  0  0  0  0  # atno 4320 bound_to 2467
   -4.4448   -4.8019    7.6723 LP  0  0  0  0  0  0  0  0  0  0  0  0  # atno 4321 bound_to 2467

> <Gold.Score>
     Score     S(PLP)   S(hbond)     S(cho)   S(metal)  DE(clash)   DE(tors)     intcor
     45.07     -44.51       0.40       0.00       0.00       0.00       0.32       0.00

> <Gold.PLP.Fitness>
45.0674

> <Gold.PLP.PLP>
-44.5123

> <Gold.PLP.part.hbond>
-1.3996

> <Gold.PLP.part.metal>
0.0000

> <Gold.PLP.part.buried>
-3.4312

> <Gold.PLP.part.nonpolar>
-40.5323

> <Gold.PLP.part.repulsive>
0.1334

> <Gold.PLP.ligand.clash>
0.0000

> <Gold.PLP.ligand.torsion>
0.3225

> <Gold.PLP.Chemscore.Hbond>
0.4000

> <Gold.PLP.Chemscore.CHOScore>
0.0000

> <Gold.PLP.Chemscore.Metal>
0.0000

> <Gold.Chemscore.Hbonds>
donor molecule, donor type, donor heavy atom, donor atom, acceptor molecule, acceptor atom, score
      P1  H  2456  2461       L1     3  0.40

> <Gold.PLP.Chemscore.Internal.Correction>
0.0000

