#       Name:                EN300-4287209_i001
#       Creating user name   fsindt
#       Creation time:       Mon Feb 27 17:52:14 2023


#       File generated by GOLD software.
#

@<TRIPOS>MOLECULE
EN300-4287209_i001|acide_1|mol2|195|dock3
    16    16     1
SMALL
USER_CHARGES


@<TRIPOS>ATOM
      1 O1           0.9022 -15.2848  11.2052 O.co2          1 <1>               -1.0000
      2 C2          -0.0043 -14.5201  11.5040 C.2            1 <1>                0.0000
      3 O3          -0.5778 -14.6411  12.5774 O.co2          1 <1>                0.0000
      4 C4          -0.4017 -13.4480  10.5724 C.ar           1 <1>                0.0000
      5 C5          -1.5033 -12.6425  10.8617 C.ar           1 <1>                0.0000
      6 C6          -1.8709 -11.6325   9.9767 C.ar           1 <1>                0.0000
      7 C7          -3.0001 -10.8010  10.2667 C.1            1 <1>                0.0000
      8 C8          -3.9259 -10.1193  10.5044 C.1            1 <1>                0.0000
      9 C9          -1.1364 -11.4311   8.8058 C.ar           1 <1>                0.0000
     10 C10         -0.0472 -12.2308   8.5230 C.ar           1 <1>                0.0000
     11 C11          0.3287 -13.2319   9.3982 C.ar           1 <1>                0.0000
     12 Cl12         1.6998 -14.2324   9.0338 Cl             1 <1>                0.0000
     13 H13         -2.0687 -12.8018  11.7680 H              1 <1>                0.0000
     14 H14         -4.7538  -9.5095  10.7170 H              1 <1>                0.0000
     15 H15         -1.4217 -10.6476   8.1195 H              1 <1>                0.0000
     16 H16          0.5164 -12.0702   7.6158 H              1 <1>                0.0000
@<TRIPOS>BOND
    1    1    2 ar    
    2    2    3 ar    
    3    2    4 1     
    4    4    5 ar    
    5    4   11 ar    
    6    5    6 ar    
    7    5   13 1     
    8    6    7 1     
    9    6    9 ar    
   10    7    8 3     
   11    8   14 1     
   12    9   10 ar    
   13    9   15 1     
   14   10   11 ar    
   15   10   16 1     
   16   11   12 1     
@<TRIPOS>SUBSTRUCTURE
      1 ****           1
@<TRIPOS>COMMENT
> <Gold.Version>
2022.2.0

> <Gold.Id.Protein>
3pbl|protein|mol2

> <Gold.Protein.RotatedTorsions>
[ 1303 1298 1297 1294 ] final  -38.59 input  179.99 | X-H torsion
[ 2461 2456 2455 2452 ] final  -92.47 input   30.03 | X-H torsion
[ 2515 2510 2509 2506 ] final   95.49 input  -89.99 | X-H torsion
[ 3721 3712 3711 3710 ] final  -33.17 input -179.91 | X-H torsion
[ 3841 3832 3831 3830 ] final    6.11 input -179.91 | X-H torsion
[ 3767 3762 3761 3758 ] final  137.04 input  -89.99 | X-H torsion
[ 2472 2467 2466 2463 ] final  104.11 input  -89.97 | X-H torsion

> <Gold.Protein.ActiveResidues>
 VAL82   VAL86   LEU89   PHE106  VAL107  ASP110  VAL111  MET112  CYS114  THR115 
 CYS181  SER182  ILE183  PHE188  VAL189  ILE190  SER192  SER193  SER196  TRP342 
 PHE345  PHE346  HIS349  VAL350  TYR365  THR369  GLY372  TYR373 

> <Gold.Protein.RotatedAtoms>
    3.3631   -9.2977    3.8083 H   0  0  0  0  0  0  0  0  0  0  0  0  # atno 1303 bound_to 1298
    0.3632   -8.9339    7.7388 H   0  0  0  0  0  0  0  0  0  0  0  0  # atno 2461 bound_to 2456
   -5.2740   -4.9879    7.9332 H   0  0  0  0  0  0  0  0  0  0  0  0  # atno 2472 bound_to 2467
    2.0351   -7.8040    5.8963 H   0  0  0  0  0  0  0  0  0  0  0  0  # atno 2515 bound_to 2510
   -2.6209  -17.6646   14.6181 H   0  0  0  0  0  0  0  0  0  0  0  0  # atno 3721 bound_to 3712
   -3.9076  -23.0376   11.1339 H   0  0  0  0  0  0  0  0  0  0  0  0  # atno 3767 bound_to 3762
    1.7929  -20.5550    9.5849 H   0  0  0  0  0  0  0  0  0  0  0  0  # atno 3841 bound_to 3832
    4.6974   -8.6367    4.4783 LP  0  0  0  0  0  0  0  0  0  0  0  0  # atno 4297 bound_to 1298
    4.3020  -10.1870    4.8052 LP  0  0  0  0  0  0  0  0  0  0  0  0  # atno 4298 bound_to 1298
    1.8976   -8.9573    8.2978 LP  0  0  0  0  0  0  0  0  0  0  0  0  # atno 4299 bound_to 2456
    1.4766   -7.9170    7.1115 LP  0  0  0  0  0  0  0  0  0  0  0  0  # atno 4300 bound_to 2456
    2.6923   -7.9410    4.4080 LP  0  0  0  0  0  0  0  0  0  0  0  0  # atno 4301 bound_to 2510
    2.5695   -9.2544    5.3706 LP  0  0  0  0  0  0  0  0  0  0  0  0  # atno 4302 bound_to 2510
   -3.5613  -16.5555   13.9374 LP  0  0  0  0  0  0  0  0  0  0  0  0  # atno 4306 bound_to 3712
   -2.9405  -17.7768   13.0487 LP  0  0  0  0  0  0  0  0  0  0  0  0  # atno 4307 bound_to 3712
    2.0535  -19.6398    8.2923 LP  0  0  0  0  0  0  0  0  0  0  0  0  # atno 4314 bound_to 3832
    3.1047  -20.8213    8.6993 LP  0  0  0  0  0  0  0  0  0  0  0  0  # atno 4315 bound_to 3832
   -5.1451  -22.9197   10.0748 LP  0  0  0  0  0  0  0  0  0  0  0  0  # atno 4318 bound_to 3762
   -5.0743  -21.9179   11.3625 LP  0  0  0  0  0  0  0  0  0  0  0  0  # atno 4319 bound_to 3762
   -3.6827   -4.9432    8.2971 LP  0  0  0  0  0  0  0  0  0  0  0  0  # atno 4320 bound_to 2467
   -4.7603   -5.4624    9.4088 LP  0  0  0  0  0  0  0  0  0  0  0  0  # atno 4321 bound_to 2467

> <Gold.Score>
     Score     S(PLP)   S(hbond)     S(cho)   S(metal)  DE(clash)   DE(tors)     intcor
     39.92     -39.95       0.00       0.00       0.00       0.00       0.01       0.00

> <Gold.PLP.Fitness>
39.9221

> <Gold.PLP.PLP>
-39.9485

> <Gold.PLP.part.hbond>
0.0000

> <Gold.PLP.part.metal>
0.0000

> <Gold.PLP.part.buried>
-2.5173

> <Gold.PLP.part.nonpolar>
-38.5790

> <Gold.PLP.part.repulsive>
0.1842

> <Gold.PLP.ligand.clash>
0.0000

> <Gold.PLP.ligand.torsion>
0.0132

> <Gold.PLP.Chemscore.Hbond>
0.0000

> <Gold.PLP.Chemscore.CHOScore>
0.0000

> <Gold.PLP.Chemscore.Metal>
0.0000

> <Gold.PLP.Chemscore.Internal.Correction>
0.0000

