#       Name:                EN300-4287209_i001
#       Creating user name   fsindt
#       Creation time:       Mon Feb 27 17:52:19 2023


#       File generated by GOLD software.
#

@<TRIPOS>MOLECULE
EN300-4287209_i001|acide_1|mol2|195|dock15
    16    16     1
SMALL
USER_CHARGES


@<TRIPOS>ATOM
      1 O1           1.7535 -13.0267   5.8671 O.co2          1 <1>               -1.0000
      2 C2           1.4094 -12.1337   6.6288 C.2            1 <1>                0.0000
      3 O3           1.5756 -10.9636   6.3141 O.co2          1 <1>                0.0000
      4 C4           0.7883 -12.4679   7.9240 C.ar           1 <1>                0.0000
      5 C5           0.4279 -11.4524   8.8098 C.ar           1 <1>                0.0000
      6 C6          -0.1583 -11.7771  10.0302 C.ar           1 <1>                0.0000
      7 C7          -0.5317 -10.7404  10.9447 C.1            1 <1>                0.0000
      8 C8          -0.8378  -9.8904  11.6945 C.1            1 <1>                0.0000
      9 C9          -0.3822 -13.1156  10.3610 C.ar           1 <1>                0.0000
     10 C10         -0.0235 -14.1177   9.4818 C.ar           1 <1>                0.0000
     11 C11          0.5536 -13.8047   8.2658 C.ar           1 <1>                0.0000
     12 Cl12         1.0011 -15.0718   7.1668 Cl             1 <1>                0.0000
     13 H13          0.6030 -10.4187   8.5503 H              1 <1>                0.0000
     14 H14         -1.1115  -9.1303  12.3651 H              1 <1>                0.0000
     15 H15         -0.8369 -13.3673  11.3077 H              1 <1>                0.0000
     16 H16         -0.1989 -15.1507   9.7436 H              1 <1>                0.0000
@<TRIPOS>BOND
    1    1    2 ar    
    2    2    3 ar    
    3    2    4 1     
    4    4    5 ar    
    5    4   11 ar    
    6    5    6 ar    
    7    5   13 1     
    8    6    7 1     
    9    6    9 ar    
   10    7    8 3     
   11    8   14 1     
   12    9   10 ar    
   13    9   15 1     
   14   10   11 ar    
   15   10   16 1     
   16   11   12 1     
@<TRIPOS>SUBSTRUCTURE
      1 ****           1
@<TRIPOS>COMMENT
> <Gold.Version>
2022.2.0

> <Gold.Id.Protein>
3pbl|protein|mol2

> <Gold.Protein.RotatedTorsions>
[ 1303 1298 1297 1294 ] final   30.67 input  179.99 | X-H torsion
[ 2461 2456 2455 2452 ] final   14.14 input   30.03 | X-H torsion
[ 2515 2510 2509 2506 ] final -165.01 input  -89.99 | X-H torsion
[ 3721 3712 3711 3710 ] final  -33.67 input -179.91 | X-H torsion
[ 3841 3832 3831 3830 ] final   22.82 input -179.91 | X-H torsion
[ 3767 3762 3761 3758 ] final  149.11 input  -89.99 | X-H torsion
[ 2472 2467 2466 2463 ] final  -42.59 input  -89.97 | X-H torsion

> <Gold.Protein.ActiveResidues>
 VAL82   VAL86   LEU89   PHE106  VAL107  ASP110  VAL111  MET112  CYS114  THR115 
 CYS181  SER182  ILE183  PHE188  VAL189  ILE190  SER192  SER193  SER196  TRP342 
 PHE345  PHE346  HIS349  VAL350  TYR365  THR369  GLY372  TYR373 

> <Gold.Protein.RotatedAtoms>
    3.6389  -10.1837    4.3437 H   0  0  0  0  0  0  0  0  0  0  0  0  # atno 1303 bound_to 1298
    1.2651   -7.9323    7.0531 H   0  0  0  0  0  0  0  0  0  0  0  0  # atno 2461 bound_to 2456
   -3.6442   -5.0872    8.7062 H   0  0  0  0  0  0  0  0  0  0  0  0  # atno 2472 bound_to 2467
    2.4280   -9.1680    5.6622 H   0  0  0  0  0  0  0  0  0  0  0  0  # atno 2515 bound_to 2510
   -2.6238  -17.6589   14.6223 H   0  0  0  0  0  0  0  0  0  0  0  0  # atno 3721 bound_to 3712
   -3.9168  -22.9075   11.2832 H   0  0  0  0  0  0  0  0  0  0  0  0  # atno 3767 bound_to 3762
    1.9766  -20.7230    9.6216 H   0  0  0  0  0  0  0  0  0  0  0  0  # atno 3841 bound_to 3832
    3.8181   -8.6326    3.8658 LP  0  0  0  0  0  0  0  0  0  0  0  0  # atno 4297 bound_to 1298
    4.9053   -9.3047    4.8821 LP  0  0  0  0  0  0  0  0  0  0  0  0  # atno 4298 bound_to 1298
    0.4438   -9.0640    7.8969 LP  0  0  0  0  0  0  0  0  0  0  0  0  # atno 4299 bound_to 2456
    2.0288   -8.8116    8.1980 LP  0  0  0  0  0  0  0  0  0  0  0  0  # atno 4300 bound_to 2456
    2.0848   -7.5718    5.6594 LP  0  0  0  0  0  0  0  0  0  0  0  0  # atno 4301 bound_to 2510
    2.7839   -8.2590    4.3534 LP  0  0  0  0  0  0  0  0  0  0  0  0  # atno 4302 bound_to 2510
   -3.5620  -16.5556   13.9290 LP  0  0  0  0  0  0  0  0  0  0  0  0  # atno 4306 bound_to 3712
   -2.9365  -17.7832   13.0524 LP  0  0  0  0  0  0  0  0  0  0  0  0  # atno 4307 bound_to 3712
    1.8193  -19.6455    8.4425 LP  0  0  0  0  0  0  0  0  0  0  0  0  # atno 4314 bound_to 3832
    3.1268  -20.6216    8.5068 LP  0  0  0  0  0  0  0  0  0  0  0  0  # atno 4315 bound_to 3832
   -4.9947  -23.0484   10.0646 LP  0  0  0  0  0  0  0  0  0  0  0  0  # atno 4318 bound_to 3762
   -5.2155  -21.9193   11.2235 LP  0  0  0  0  0  0  0  0  0  0  0  0  # atno 4319 bound_to 3762
   -5.1530   -5.4385    9.2225 LP  0  0  0  0  0  0  0  0  0  0  0  0  # atno 4320 bound_to 2467
   -4.9196   -4.8678    7.7104 LP  0  0  0  0  0  0  0  0  0  0  0  0  # atno 4321 bound_to 2467

> <Gold.Score>
     Score     S(PLP)   S(hbond)     S(cho)   S(metal)  DE(clash)   DE(tors)     intcor
     35.52     -33.36       0.72       0.00       0.00       0.00       0.00       0.00

> <Gold.PLP.Fitness>
35.5202

> <Gold.PLP.PLP>
-33.3638

> <Gold.PLP.part.hbond>
-2.0000

> <Gold.PLP.part.metal>
0.0000

> <Gold.PLP.part.buried>
3.8464

> <Gold.PLP.part.nonpolar>
-36.6636

> <Gold.PLP.part.repulsive>
0.2317

> <Gold.PLP.ligand.clash>
0.0000

> <Gold.PLP.ligand.torsion>
0.0018

> <Gold.PLP.Chemscore.Hbond>
0.7200

> <Gold.PLP.Chemscore.CHOScore>
0.0000

> <Gold.PLP.Chemscore.Metal>
0.0000

> <Gold.Chemscore.Hbonds>
donor molecule, donor type, donor heavy atom, donor atom, acceptor molecule, acceptor atom, score
      P1  H  2510  2515       L1     3  0.72

> <Gold.PLP.Chemscore.Internal.Correction>
0.0000

