#       Name:                EN300-4287209_i001
#       Creating user name   fsindt
#       Creation time:       Mon Feb 27 17:52:18 2023


#       File generated by GOLD software.
#

@<TRIPOS>MOLECULE
EN300-4287209_i001|acide_1|mol2|195|dock12
    16    16     1
SMALL
USER_CHARGES


@<TRIPOS>ATOM
      1 O1          -1.8894 -10.5437  11.3900 O.co2          1 <1>               -1.0000
      2 C2          -1.9231 -11.4066  10.5239 C.2            1 <1>                0.0000
      3 O3          -2.7256 -11.3197   9.6051 O.co2          1 <1>                0.0000
      4 C4          -0.9919 -12.5486  10.5842 C.ar           1 <1>                0.0000
      5 C5          -0.9963 -13.3973  11.6913 C.ar           1 <1>                0.0000
      6 C6          -0.1139 -14.4733  11.7394 C.ar           1 <1>                0.0000
      7 C7          -0.1126 -15.3494  12.8721 C.1            1 <1>                0.0000
      8 C8          -0.1117 -16.0678  13.8006 C.1            1 <1>                0.0000
      9 C9           0.7696 -14.6972  10.6810 C.ar           1 <1>                0.0000
     10 C10          0.7711 -13.8546   9.5874 C.ar           1 <1>                0.0000
     11 C11         -0.1050 -12.7876   9.5282 C.ar           1 <1>                0.0000
     12 Cl12        -0.0956 -11.7336   8.1487 Cl             1 <1>                0.0000
     13 H13         -1.6808 -13.2204  12.5077 H              1 <1>                0.0000
     14 H14         -0.1108 -16.7101  14.6311 H              1 <1>                0.0000
     15 H15          1.4539 -15.5319  10.7185 H              1 <1>                0.0000
     16 H16          1.4569 -14.0330   8.7724 H              1 <1>                0.0000
@<TRIPOS>BOND
    1    1    2 ar    
    2    2    3 ar    
    3    2    4 1     
    4    4    5 ar    
    5    4   11 ar    
    6    5    6 ar    
    7    5   13 1     
    8    6    7 1     
    9    6    9 ar    
   10    7    8 3     
   11    8   14 1     
   12    9   10 ar    
   13    9   15 1     
   14   10   11 ar    
   15   10   16 1     
   16   11   12 1     
@<TRIPOS>SUBSTRUCTURE
      1 ****           1
@<TRIPOS>COMMENT
> <Gold.Version>
2022.2.0

> <Gold.Id.Protein>
3pbl|protein|mol2

> <Gold.Protein.RotatedTorsions>
[ 1303 1298 1297 1294 ] final  -52.48 input  179.99 | X-H torsion
[ 2461 2456 2455 2452 ] final   77.50 input   30.03 | X-H torsion
[ 2515 2510 2509 2506 ] final  -80.25 input  -89.99 | X-H torsion
[ 3721 3712 3711 3710 ] final  -21.16 input -179.91 | X-H torsion
[ 3841 3832 3831 3830 ] final  -21.18 input -179.91 | X-H torsion
[ 3767 3762 3761 3758 ] final  140.99 input  -89.99 | X-H torsion
[ 2472 2467 2466 2463 ] final -174.19 input  -89.97 | X-H torsion

> <Gold.Protein.ActiveResidues>
 VAL82   VAL86   LEU89   PHE106  VAL107  ASP110  VAL111  MET112  CYS114  THR115 
 CYS181  SER182  ILE183  PHE188  VAL189  ILE190  SER192  SER193  SER196  TRP342 
 PHE345  PHE346  HIS349  VAL350  TYR365  THR369  GLY372  TYR373 

> <Gold.Protein.RotatedAtoms>
    3.4400   -9.0851    3.7792 H   0  0  0  0  0  0  0  0  0  0  0  0  # atno 1303 bound_to 1298
    2.0727   -8.1718    7.5742 H   0  0  0  0  0  0  0  0  0  0  0  0  # atno 2461 bound_to 2456
   -5.2892   -5.4075    9.0928 H   0  0  0  0  0  0  0  0  0  0  0  0  # atno 2472 bound_to 2467
    2.8338   -8.8043    4.5145 H   0  0  0  0  0  0  0  0  0  0  0  0  # atno 2515 bound_to 2510
   -2.5586  -17.7910   14.5043 H   0  0  0  0  0  0  0  0  0  0  0  0  # atno 3721 bound_to 3712
   -3.9067  -22.9968   11.1844 H   0  0  0  0  0  0  0  0  0  0  0  0  # atno 3767 bound_to 3762
    1.5991  -20.2360    9.4192 H   0  0  0  0  0  0  0  0  0  0  0  0  # atno 3841 bound_to 3832
    4.8106   -8.7815    4.6132 LP  0  0  0  0  0  0  0  0  0  0  0  0  # atno 4297 bound_to 1298
    4.1118  -10.2549    4.6994 LP  0  0  0  0  0  0  0  0  0  0  0  0  # atno 4298 bound_to 1298
    0.4922   -8.3559    7.2063 LP  0  0  0  0  0  0  0  0  0  0  0  0  # atno 4299 bound_to 2456
    1.1731   -9.2803    8.3675 LP  0  0  0  0  0  0  0  0  0  0  0  0  # atno 4300 bound_to 2456
    2.1957   -8.7863    6.0173 LP  0  0  0  0  0  0  0  0  0  0  0  0  # atno 4301 bound_to 2510
    2.2671   -7.4084    5.1439 LP  0  0  0  0  0  0  0  0  0  0  0  0  # atno 4302 bound_to 2510
   -3.5349  -16.5709   14.1353 LP  0  0  0  0  0  0  0  0  0  0  0  0  # atno 4306 bound_to 3712
   -3.0389  -17.6155   12.9823 LP  0  0  0  0  0  0  0  0  0  0  0  0  # atno 4307 bound_to 3712
    2.4636  -19.7659    8.1513 LP  0  0  0  0  0  0  0  0  0  0  0  0  # atno 4314 bound_to 3832
    2.9185  -21.0638    9.0317 LP  0  0  0  0  0  0  0  0  0  0  0  0  # atno 4315 bound_to 3832
   -5.0978  -22.9635   10.0676 LP  0  0  0  0  0  0  0  0  0  0  0  0  # atno 4318 bound_to 3762
   -5.1226  -21.9149   11.3192 LP  0  0  0  0  0  0  0  0  0  0  0  0  # atno 4319 bound_to 3762
   -4.7375   -4.8324    7.6676 LP  0  0  0  0  0  0  0  0  0  0  0  0  # atno 4320 bound_to 2467
   -3.6904   -5.1537    8.8788 LP  0  0  0  0  0  0  0  0  0  0  0  0  # atno 4321 bound_to 2467

> <Gold.Score>
     Score     S(PLP)   S(hbond)     S(cho)   S(metal)  DE(clash)   DE(tors)     intcor
     37.65     -39.86       0.00       0.00       0.00       0.00       1.10       0.00

> <Gold.PLP.Fitness>
37.6524

> <Gold.PLP.PLP>
-39.8576

> <Gold.PLP.part.hbond>
0.0000

> <Gold.PLP.part.metal>
0.0000

> <Gold.PLP.part.buried>
-4.9387

> <Gold.PLP.part.nonpolar>
-35.4515

> <Gold.PLP.part.repulsive>
0.0553

> <Gold.PLP.ligand.clash>
0.0000

> <Gold.PLP.ligand.torsion>
1.1026

> <Gold.PLP.Chemscore.Hbond>
0.0000

> <Gold.PLP.Chemscore.CHOScore>
0.0000

> <Gold.PLP.Chemscore.Metal>
0.0000

> <Gold.PLP.Chemscore.Internal.Correction>
0.0000

