#       Name:                EN300-4287209_i001
#       Creating user name   fsindt
#       Creation time:       Mon Feb 27 17:52:20 2023


#       File generated by GOLD software.
#

@<TRIPOS>MOLECULE
EN300-4287209_i001|acide_1|mol2|195|dock18
    16    16     1
SMALL
USER_CHARGES


@<TRIPOS>ATOM
      1 O1          -0.4348 -17.5128  14.2888 O.co2          1 <1>               -1.0000
      2 C2          -0.0275 -16.6057  13.5767 C.2            1 <1>                0.0000
      3 O3           0.4864 -15.6166  14.0802 O.co2          1 <1>                0.0000
      4 C4          -0.1503 -16.7073  12.1106 C.ar           1 <1>                0.0000
      5 C5           0.1666 -15.6138  11.3045 C.ar           1 <1>                0.0000
      6 C6           0.0481 -15.7189   9.9212 C.ar           1 <1>                0.0000
      7 C7           0.3720 -14.6011   9.0868 C.1            1 <1>                0.0000
      8 C8           0.6375 -13.6848   8.4026 C.1            1 <1>                0.0000
      9 C9          -0.3865 -16.9164   9.3485 C.ar           1 <1>                0.0000
     10 C10         -0.6996 -17.9962  10.1498 C.ar           1 <1>                0.0000
     11 C11         -0.5795 -17.9030  11.5233 C.ar           1 <1>                0.0000
     12 Cl12        -0.9755 -19.2662  12.5226 Cl             1 <1>                0.0000
     13 H13          0.5020 -14.6895  11.7514 H              1 <1>                0.0000
     14 H14          0.8751 -12.8652   7.7908 H              1 <1>                0.0000
     15 H15         -0.4783 -16.9978   8.2755 H              1 <1>                0.0000
     16 H16         -1.0354 -18.9192   9.7009 H              1 <1>                0.0000
@<TRIPOS>BOND
    1    1    2 ar    
    2    2    3 ar    
    3    2    4 1     
    4    4    5 ar    
    5    4   11 ar    
    6    5    6 ar    
    7    5   13 1     
    8    6    7 1     
    9    6    9 ar    
   10    7    8 3     
   11    8   14 1     
   12    9   10 ar    
   13    9   15 1     
   14   10   11 ar    
   15   10   16 1     
   16   11   12 1     
@<TRIPOS>SUBSTRUCTURE
      1 ****           1
@<TRIPOS>COMMENT
> <Gold.Version>
2022.2.0

> <Gold.Id.Protein>
3pbl|protein|mol2

> <Gold.Protein.RotatedTorsions>
[ 1303 1298 1297 1294 ] final  -79.25 input  179.99 | X-H torsion
[ 2461 2456 2455 2452 ] final -114.40 input   30.03 | X-H torsion
[ 2515 2510 2509 2506 ] final  -71.58 input  -89.99 | X-H torsion
[ 3721 3712 3711 3710 ] final    0.01 input -179.91 | X-H torsion
[ 3841 3832 3831 3830 ] final  175.56 input -179.91 | X-H torsion
[ 3767 3762 3761 3758 ] final   75.54 input  -89.99 | X-H torsion
[ 2472 2467 2466 2463 ] final  -57.71 input  -89.97 | X-H torsion

> <Gold.Protein.ActiveResidues>
 VAL82   VAL86   LEU89   PHE106  VAL107  ASP110  VAL111  MET112  CYS114  THR115 
 CYS181  SER182  ILE183  PHE188  VAL189  ILE190  SER192  SER193  SER196  TRP342 
 PHE345  PHE346  HIS349  VAL350  TYR365  THR369  GLY372  TYR373 

> <Gold.Protein.RotatedAtoms>
    3.6946   -8.7330    3.8195 H   0  0  0  0  0  0  0  0  0  0  0  0  # atno 1303 bound_to 1298
    0.5180   -9.1344    7.9931 H   0  0  0  0  0  0  0  0  0  0  0  0  # atno 2461 bound_to 2456
   -3.7114   -5.1747    8.9284 H   0  0  0  0  0  0  0  0  0  0  0  0  # atno 2472 bound_to 2467
    2.8354   -8.6791    4.4467 H   0  0  0  0  0  0  0  0  0  0  0  0  # atno 2515 bound_to 2510
   -2.4869  -17.9567   14.2422 H   0  0  0  0  0  0  0  0  0  0  0  0  # atno 3721 bound_to 3712
   -4.3626  -23.3301   10.3355 H   0  0  0  0  0  0  0  0  0  0  0  0  # atno 3767 bound_to 3762
    2.9943  -20.1013    8.4347 H   0  0  0  0  0  0  0  0  0  0  0  0  # atno 3841 bound_to 3832
    4.9113   -9.1491    4.8259 LP  0  0  0  0  0  0  0  0  0  0  0  0  # atno 4297 bound_to 1298
    3.7564  -10.2395    4.4464 LP  0  0  0  0  0  0  0  0  0  0  0  0  # atno 4298 bound_to 1298
    2.0905   -8.7123    8.1204 LP  0  0  0  0  0  0  0  0  0  0  0  0  # atno 4299 bound_to 2456
    1.1290   -7.9616    7.0348 LP  0  0  0  0  0  0  0  0  0  0  0  0  # atno 4300 bound_to 2456
    2.2477   -8.9026    5.9535 LP  0  0  0  0  0  0  0  0  0  0  0  0  # atno 4301 bound_to 2510
    2.2135   -7.4173    5.2755 LP  0  0  0  0  0  0  0  0  0  0  0  0  # atno 4302 bound_to 2510
   -3.4418  -16.6837   14.4553 LP  0  0  0  0  0  0  0  0  0  0  0  0  # atno 4306 bound_to 3712
   -3.2147  -17.3112   12.9649 LP  0  0  0  0  0  0  0  0  0  0  0  0  # atno 4307 bound_to 3712
    2.3062  -21.1229    9.4638 LP  0  0  0  0  0  0  0  0  0  0  0  0  # atno 4314 bound_to 3832
    1.4642  -19.8624    8.8565 LP  0  0  0  0  0  0  0  0  0  0  0  0  # atno 4315 bound_to 3832
   -5.5089  -22.1974   10.5997 LP  0  0  0  0  0  0  0  0  0  0  0  0  # atno 4318 bound_to 3762
   -4.2557  -22.3479   11.6357 LP  0  0  0  0  0  0  0  0  0  0  0  0  # atno 4319 bound_to 3762
   -5.3249   -5.3949    9.0492 LP  0  0  0  0  0  0  0  0  0  0  0  0  # atno 4320 bound_to 2467
   -4.6804   -4.8240    7.6617 LP  0  0  0  0  0  0  0  0  0  0  0  0  # atno 4321 bound_to 2467

> <Gold.Score>
     Score     S(PLP)   S(hbond)     S(cho)   S(metal)  DE(clash)   DE(tors)     intcor
     34.44     -29.20       1.77       0.00       0.00       0.00       0.03       0.00

> <Gold.PLP.Fitness>
34.4446

> <Gold.PLP.PLP>
-29.1955

> <Gold.PLP.part.hbond>
-2.0000

> <Gold.PLP.part.metal>
0.0000

> <Gold.PLP.part.buried>
-0.7960

> <Gold.PLP.part.nonpolar>
-26.1640

> <Gold.PLP.part.repulsive>
0.0574

> <Gold.PLP.ligand.clash>
0.0000

> <Gold.PLP.ligand.torsion>
0.0275

> <Gold.PLP.Chemscore.Hbond>
1.7680

> <Gold.PLP.Chemscore.CHOScore>
0.0000

> <Gold.PLP.Chemscore.Metal>
0.0000

> <Gold.Chemscore.Hbonds>
donor molecule, donor type, donor heavy atom, donor atom, acceptor molecule, acceptor atom, score
      P1  H  2305  2313       L1     3  1.00
      P1  H  3712  3721       L1     1  0.77

> <Gold.PLP.Chemscore.Internal.Correction>
0.0000

