#       Name:                EN300-4287209_i001
#       Creating user name   fsindt
#       Creation time:       Mon Feb 27 17:52:14 2023


#       File generated by GOLD software.
#

@<TRIPOS>MOLECULE
EN300-4287209_i001|acide_1|mol2|195|dock2
    16    16     1
SMALL
USER_CHARGES


@<TRIPOS>ATOM
      1 O1           1.3964 -14.1176   8.0122 O.co2          1 <1>               -1.0000
      2 C2           0.6358 -13.1615   7.9568 C.2            1 <1>                0.0000
      3 O3           0.6077 -12.4595   6.9558 O.co2          1 <1>                0.0000
      4 C4          -0.2521 -12.8588   9.0949 C.ar           1 <1>                0.0000
      5 C5          -1.2691 -11.9141   8.9568 C.ar           1 <1>                0.0000
      6 C6          -2.1029 -11.6350  10.0364 C.ar           1 <1>                0.0000
      7 C7          -3.1496 -10.6671   9.9025 C.1            1 <1>                0.0000
      8 C8          -4.0078  -9.8735   9.7928 C.1            1 <1>                0.0000
      9 C9          -1.9172 -12.3011  11.2500 C.ar           1 <1>                0.0000
     10 C10         -0.9092 -13.2349  11.3827 C.ar           1 <1>                0.0000
     11 C11         -0.0804 -13.5227  10.3150 C.ar           1 <1>                0.0000
     12 Cl12         1.1844 -14.6986  10.4916 Cl             1 <1>                0.0000
     13 H13         -1.4091 -11.4012   8.0167 H              1 <1>                0.0000
     14 H14         -4.7753  -9.1638   9.6945 H              1 <1>                0.0000
     15 H15         -2.5641 -12.0845  12.0873 H              1 <1>                0.0000
     16 H16         -0.7706 -13.7462  12.3238 H              1 <1>                0.0000
@<TRIPOS>BOND
    1    1    2 ar    
    2    2    3 ar    
    3    2    4 1     
    4    4    5 ar    
    5    4   11 ar    
    6    5    6 ar    
    7    5   13 1     
    8    6    7 1     
    9    6    9 ar    
   10    7    8 3     
   11    8   14 1     
   12    9   10 ar    
   13    9   15 1     
   14   10   11 ar    
   15   10   16 1     
   16   11   12 1     
@<TRIPOS>SUBSTRUCTURE
      1 ****           1
@<TRIPOS>COMMENT
> <Gold.Version>
2022.2.0

> <Gold.Id.Protein>
3pbl|protein|mol2

> <Gold.Protein.RotatedTorsions>
[ 1303 1298 1297 1294 ] final   67.73 input  179.99 | X-H torsion
[ 2461 2456 2455 2452 ] final -170.02 input   30.03 | X-H torsion
[ 2515 2510 2509 2506 ] final    6.05 input  -89.99 | X-H torsion
[ 3721 3712 3711 3710 ] final   58.41 input -179.91 | X-H torsion
[ 3841 3832 3831 3830 ] final   49.59 input -179.91 | X-H torsion
[ 3767 3762 3761 3758 ] final  130.14 input  -89.99 | X-H torsion
[ 2472 2467 2466 2463 ] final   16.67 input  -89.97 | X-H torsion

> <Gold.Protein.ActiveResidues>
 VAL82   VAL86   LEU89   PHE106  VAL107  ASP110  VAL111  MET112  CYS114  THR115 
 CYS181  SER182  ILE183  PHE188  VAL189  ILE190  SER192  SER193  SER196  TRP342 
 PHE345  PHE346  HIS349  VAL350  TYR365  THR369  GLY372  TYR373 

> <Gold.Protein.RotatedAtoms>
    4.1145  -10.2538    4.7014 H   0  0  0  0  0  0  0  0  0  0  0  0  # atno 1303 bound_to 1298
    1.2931   -9.2608    8.3899 H   0  0  0  0  0  0  0  0  0  0  0  0  # atno 2461 bound_to 2456
   -3.9821   -4.8258    7.8776 H   0  0  0  0  0  0  0  0  0  0  0  0  # atno 2472 bound_to 2467
    2.4994   -7.5699    4.6762 H   0  0  0  0  0  0  0  0  0  0  0  0  # atno 2515 bound_to 2510
   -2.5830  -17.9192   13.4034 H   0  0  0  0  0  0  0  0  0  0  0  0  # atno 3721 bound_to 3712
   -3.9184  -23.1041   11.0425 H   0  0  0  0  0  0  0  0  0  0  0  0  # atno 3767 bound_to 3762
    2.3285  -20.9073    9.5687 H   0  0  0  0  0  0  0  0  0  0  0  0  # atno 3841 bound_to 3832
    3.4386   -9.0883    3.7789 LP  0  0  0  0  0  0  0  0  0  0  0  0  # atno 4297 bound_to 1298
    4.8091   -8.7788    4.6111 LP  0  0  0  0  0  0  0  0  0  0  0  0  # atno 4298 bound_to 1298
    2.0139   -8.1058    7.4877 LP  0  0  0  0  0  0  0  0  0  0  0  0  # atno 4299 bound_to 2456
    0.4307   -8.4418    7.2707 LP  0  0  0  0  0  0  0  0  0  0  0  0  # atno 4300 bound_to 2456
    2.7434   -9.1667    4.9135 LP  0  0  0  0  0  0  0  0  0  0  0  0  # atno 4301 bound_to 2510
    2.0539   -8.2629    6.0858 LP  0  0  0  0  0  0  0  0  0  0  0  0  # atno 4302 bound_to 2510
   -2.9971  -17.3963   14.8639 LP  0  0  0  0  0  0  0  0  0  0  0  0  # atno 4306 bound_to 3712
   -3.5484  -16.6420   13.5246 LP  0  0  0  0  0  0  0  0  0  0  0  0  # atno 4307 bound_to 3712
    1.5286  -19.7845    8.7469 LP  0  0  0  0  0  0  0  0  0  0  0  0  # atno 4314 bound_to 3832
    3.0110  -20.2697    8.2634 LP  0  0  0  0  0  0  0  0  0  0  0  0  # atno 4315 bound_to 3832
   -5.2229  -22.8399   10.0963 LP  0  0  0  0  0  0  0  0  0  0  0  0  # atno 4318 bound_to 3762
   -4.9858  -21.9313   11.4323 LP  0  0  0  0  0  0  0  0  0  0  0  0  # atno 4319 bound_to 3762
   -4.2362   -5.3966    9.3862 LP  0  0  0  0  0  0  0  0  0  0  0  0  # atno 4320 bound_to 2467
   -5.4985   -5.1711    8.3752 LP  0  0  0  0  0  0  0  0  0  0  0  0  # atno 4321 bound_to 2467

> <Gold.Score>
     Score     S(PLP)   S(hbond)     S(cho)   S(metal)  DE(clash)   DE(tors)     intcor
     42.71     -42.80       0.00       0.00       0.00       0.00       0.05       0.00

> <Gold.PLP.Fitness>
42.7058

> <Gold.PLP.PLP>
-42.8021

> <Gold.PLP.part.hbond>
0.0000

> <Gold.PLP.part.metal>
0.0000

> <Gold.PLP.part.buried>
-3.6467

> <Gold.PLP.part.nonpolar>
-40.3570

> <Gold.PLP.part.repulsive>
0.1474

> <Gold.PLP.ligand.clash>
0.0000

> <Gold.PLP.ligand.torsion>
0.0482

> <Gold.PLP.Chemscore.Hbond>
0.0000

> <Gold.PLP.Chemscore.CHOScore>
0.0000

> <Gold.PLP.Chemscore.Metal>
0.0000

> <Gold.PLP.Chemscore.Internal.Correction>
0.0000

