#       Name:                EN300-4287209_i001
#       Creating user name   fsindt
#       Creation time:       Mon Feb 27 17:52:19 2023


#       File generated by GOLD software.
#

@<TRIPOS>MOLECULE
EN300-4287209_i001|acide_1|mol2|195|dock14
    16    16     1
SMALL
USER_CHARGES


@<TRIPOS>ATOM
      1 O1           0.0565 -10.6512   7.8108 O.co2          1 <1>               -1.0000
      2 C2          -0.1630 -11.3754   8.7717 C.2            1 <1>                0.0000
      3 O3          -0.6646 -10.9106   9.7857 O.co2          1 <1>                0.0000
      4 C4           0.1713 -12.8102   8.7053 C.ar           1 <1>                0.0000
      5 C5          -0.0975 -13.6423   9.7922 C.ar           1 <1>                0.0000
      6 C6           0.2211 -14.9958   9.7204 C.ar           1 <1>                0.0000
      7 C7          -0.0522 -15.8566  10.8317 C.1            1 <1>                0.0000
      8 C8          -0.2762 -16.5622  11.7428 C.1            1 <1>                0.0000
      9 C9           0.8070 -15.5128   8.5628 C.ar           1 <1>                0.0000
     10 C10          1.0719 -14.6859   7.4895 C.ar           1 <1>                0.0000
     11 C11          0.7539 -13.3424   7.5494 C.ar           1 <1>                0.0000
     12 Cl12         1.0908 -12.3106   6.1945 Cl             1 <1>                0.0000
     13 H13         -0.5504 -13.2383  10.6856 H              1 <1>                0.0000
     14 H14         -0.4765 -17.1934  12.5576 H              1 <1>                0.0000
     15 H15          1.0540 -16.5627   8.5073 H              1 <1>                0.0000
     16 H16          1.5254 -15.0918   6.5973 H              1 <1>                0.0000
@<TRIPOS>BOND
    1    1    2 ar    
    2    2    3 ar    
    3    2    4 1     
    4    4    5 ar    
    5    4   11 ar    
    6    5    6 ar    
    7    5   13 1     
    8    6    7 1     
    9    6    9 ar    
   10    7    8 3     
   11    8   14 1     
   12    9   10 ar    
   13    9   15 1     
   14   10   11 ar    
   15   10   16 1     
   16   11   12 1     
@<TRIPOS>SUBSTRUCTURE
      1 ****           1
@<TRIPOS>COMMENT
> <Gold.Version>
2022.2.0

> <Gold.Id.Protein>
3pbl|protein|mol2

> <Gold.Protein.RotatedTorsions>
[ 1303 1298 1297 1294 ] final  111.70 input  179.99 | X-H torsion
[ 2461 2456 2455 2452 ] final -132.77 input   30.03 | X-H torsion
[ 2515 2510 2509 2506 ] final   86.11 input  -89.99 | X-H torsion
[ 3721 3712 3711 3710 ] final -168.46 input -179.91 | X-H torsion
[ 3841 3832 3831 3830 ] final  -23.73 input -179.91 | X-H torsion
[ 3767 3762 3761 3758 ] final -126.57 input  -89.99 | X-H torsion
[ 2472 2467 2466 2463 ] final   10.02 input  -89.97 | X-H torsion

> <Gold.Protein.ActiveResidues>
 VAL82   VAL86   LEU89   PHE106  VAL107  ASP110  VAL111  MET112  CYS114  THR115 
 CYS181  SER182  ILE183  PHE188  VAL189  ILE190  SER192  SER193  SER196  TRP342 
 PHE345  PHE346  HIS349  VAL350  TYR365  THR369  GLY372  TYR373 

> <Gold.Protein.RotatedAtoms>
    4.6654   -9.8831    4.9404 H   0  0  0  0  0  0  0  0  0  0  0  0  # atno 1303 bound_to 1298
    0.7300   -9.2439    8.1766 H   0  0  0  0  0  0  0  0  0  0  0  0  # atno 2461 bound_to 2456
   -3.9017   -4.8429    7.9497 H   0  0  0  0  0  0  0  0  0  0  0  0  # atno 2472 bound_to 2467
    2.0520   -7.6876    5.7969 H   0  0  0  0  0  0  0  0  0  0  0  0  # atno 2515 bound_to 2510
   -3.3375  -16.5546   13.7119 H   0  0  0  0  0  0  0  0  0  0  0  0  # atno 3721 bound_to 3712
   -4.7573  -22.0039   11.5649 H   0  0  0  0  0  0  0  0  0  0  0  0  # atno 3767 bound_to 3762
    1.5891  -20.2054    9.3980 H   0  0  0  0  0  0  0  0  0  0  0  0  # atno 3841 bound_to 3832
    3.3514   -9.7597    3.9788 LP  0  0  0  0  0  0  0  0  0  0  0  0  # atno 4297 bound_to 1298
    4.3452   -8.4783    4.1721 LP  0  0  0  0  0  0  0  0  0  0  0  0  # atno 4298 bound_to 1298
    2.1587   -8.4934    7.9254 LP  0  0  0  0  0  0  0  0  0  0  0  0  # atno 4299 bound_to 2456
    0.8490   -8.0710    7.0463 LP  0  0  0  0  0  0  0  0  0  0  0  0  # atno 4300 bound_to 2456
    2.7391   -8.0826    4.3695 LP  0  0  0  0  0  0  0  0  0  0  0  0  # atno 4301 bound_to 2510
    2.5058   -9.2292    5.5086 LP  0  0  0  0  0  0  0  0  0  0  0  0  # atno 4302 bound_to 2510
   -2.8047  -17.9872   13.2206 LP  0  0  0  0  0  0  0  0  0  0  0  0  # atno 4306 bound_to 3712
   -2.8698  -17.6266   14.8119 LP  0  0  0  0  0  0  0  0  0  0  0  0  # atno 4307 bound_to 3712
    2.5011  -19.7856    8.1457 LP  0  0  0  0  0  0  0  0  0  0  0  0  # atno 4314 bound_to 3832
    2.8926  -21.0795    9.0618 LP  0  0  0  0  0  0  0  0  0  0  0  0  # atno 4315 bound_to 3832
   -3.9917  -23.2350   10.8133 LP  0  0  0  0  0  0  0  0  0  0  0  0  # atno 4318 bound_to 3762
   -5.3784  -22.6359   10.1932 LP  0  0  0  0  0  0  0  0  0  0  0  0  # atno 4319 bound_to 3762
   -4.3398   -5.4180    9.4138 LP  0  0  0  0  0  0  0  0  0  0  0  0  # atno 4320 bound_to 2467
   -5.4753   -5.1326    8.2755 LP  0  0  0  0  0  0  0  0  0  0  0  0  # atno 4321 bound_to 2467

> <Gold.Score>
     Score     S(PLP)   S(hbond)     S(cho)   S(metal)  DE(clash)   DE(tors)     intcor
     36.58     -33.58       1.00       0.00       0.00       0.00       0.00       0.00

> <Gold.PLP.Fitness>
36.5764

> <Gold.PLP.PLP>
-33.5771

> <Gold.PLP.part.hbond>
-0.7890

> <Gold.PLP.part.metal>
0.0000

> <Gold.PLP.part.buried>
-1.3307

> <Gold.PLP.part.nonpolar>
-31.5401

> <Gold.PLP.part.repulsive>
0.0270

> <Gold.PLP.ligand.clash>
0.0000

> <Gold.PLP.ligand.torsion>
0.0003

> <Gold.PLP.Chemscore.Hbond>
1.0000

> <Gold.PLP.Chemscore.CHOScore>
0.0000

> <Gold.PLP.Chemscore.Metal>
0.0000

> <Gold.Chemscore.Hbonds>
donor molecule, donor type, donor heavy atom, donor atom, acceptor molecule, acceptor atom, score
      P1  H  2456  2461       L1     1  1.00

> <Gold.PLP.Chemscore.Internal.Correction>
0.0000

