#       Name:                EN300-4287209_i001
#       Creating user name   fsindt
#       Creation time:       Mon Feb 27 17:52:21 2023


#       File generated by GOLD software.
#

@<TRIPOS>MOLECULE
EN300-4287209_i001|acide_1|mol2|195|dock20
    16    16     1
SMALL
USER_CHARGES


@<TRIPOS>ATOM
      1 O1           0.8978 -11.4313   7.2925 O.co2          1 <1>               -1.0000
      2 C2           0.8376 -11.7697   8.4662 C.2            1 <1>                0.0000
      3 O3           1.0377 -10.9486   9.3504 O.co2          1 <1>                0.0000
      4 C4           0.5176 -13.1663   8.8156 C.ar           1 <1>                0.0000
      5 C5           0.4981 -13.5664  10.1518 C.ar           1 <1>                0.0000
      6 C6           0.1946 -14.8869  10.4724 C.ar           1 <1>                0.0000
      7 C7           0.1719 -15.3053  11.8416 C.1            1 <1>                0.0000
      8 C8           0.1533 -15.6482  12.9643 C.1            1 <1>                0.0000
      9 C9          -0.0885 -15.8027   9.4564 C.ar           1 <1>                0.0000
     10 C10         -0.0676 -15.4028   8.1352 C.ar           1 <1>                0.0000
     11 C11          0.2269 -14.0930   7.8078 C.ar           1 <1>                0.0000
     12 Cl12         0.2507 -13.5996   6.1435 Cl             1 <1>                0.0000
     13 H13          0.7179 -12.8551  10.9343 H              1 <1>                0.0000
     14 H14          0.1368 -15.9550  13.9683 H              1 <1>                0.0000
     15 H15         -0.3239 -16.8269   9.7053 H              1 <1>                0.0000
     16 H16         -0.2870 -16.1158   7.3543 H              1 <1>                0.0000
@<TRIPOS>BOND
    1    1    2 ar    
    2    2    3 ar    
    3    2    4 1     
    4    4    5 ar    
    5    4   11 ar    
    6    5    6 ar    
    7    5   13 1     
    8    6    7 1     
    9    6    9 ar    
   10    7    8 3     
   11    8   14 1     
   12    9   10 ar    
   13    9   15 1     
   14   10   11 ar    
   15   10   16 1     
   16   11   12 1     
@<TRIPOS>SUBSTRUCTURE
      1 ****           1
@<TRIPOS>COMMENT
> <Gold.Version>
2022.2.0

> <Gold.Id.Protein>
3pbl|protein|mol2

> <Gold.Protein.RotatedTorsions>
[ 1303 1298 1297 1294 ] final  111.51 input  179.99 | X-H torsion
[ 2461 2456 2455 2452 ] final -147.61 input   30.03 | X-H torsion
[ 2515 2510 2509 2506 ] final  -64.94 input  -89.99 | X-H torsion
[ 3721 3712 3711 3710 ] final   39.60 input -179.91 | X-H torsion
[ 3841 3832 3831 3830 ] final   55.81 input -179.91 | X-H torsion
[ 3767 3762 3761 3758 ] final  -17.89 input  -89.99 | X-H torsion
[ 2472 2467 2466 2463 ] final -161.12 input  -89.97 | X-H torsion

> <Gold.Protein.ActiveResidues>
 VAL82   VAL86   LEU89   PHE106  VAL107  ASP110  VAL111  MET112  CYS114  THR115 
 CYS181  SER182  ILE183  PHE188  VAL189  ILE190  SER192  SER193  SER196  TRP342 
 PHE345  PHE346  HIS349  VAL350  TYR365  THR369  GLY372  TYR373 

> <Gold.Protein.RotatedAtoms>
    4.6635   -9.8856    4.9401 H   0  0  0  0  0  0  0  0  0  0  0  0  # atno 1303 bound_to 1298
    0.9409   -9.2850    8.2912 H   0  0  0  0  0  0  0  0  0  0  0  0  # atno 2461 bound_to 2456
   -5.1339   -5.4423    9.2368 H   0  0  0  0  0  0  0  0  0  0  0  0  # atno 2472 bound_to 2467
    2.8304   -8.5776    4.4066 H   0  0  0  0  0  0  0  0  0  0  0  0  # atno 2515 bound_to 2510
   -2.5059  -18.0141   13.6587 H   0  0  0  0  0  0  0  0  0  0  0  0  # atno 3721 bound_to 3712
   -5.4519  -22.4958   10.2907 H   0  0  0  0  0  0  0  0  0  0  0  0  # atno 3767 bound_to 3762
    2.4138  -20.9315    9.5375 H   0  0  0  0  0  0  0  0  0  0  0  0  # atno 3841 bound_to 3832
    3.3508   -9.7570    3.9773 LP  0  0  0  0  0  0  0  0  0  0  0  0  # atno 4297 bound_to 1298
    4.3477   -8.4786    4.1740 LP  0  0  0  0  0  0  0  0  0  0  0  0  # atno 4298 bound_to 1298
    2.1458   -8.3236    7.7513 LP  0  0  0  0  0  0  0  0  0  0  0  0  # atno 4299 bound_to 2456
    0.6510   -8.1997    7.1057 LP  0  0  0  0  0  0  0  0  0  0  0  0  # atno 4300 bound_to 2456
    2.2905   -8.9830    5.8932 LP  0  0  0  0  0  0  0  0  0  0  0  0  # atno 4301 bound_to 2510
    2.1757   -7.4384    5.3759 LP  0  0  0  0  0  0  0  0  0  0  0  0  # atno 4302 bound_to 2510
   -3.1540  -17.1278   14.8301 LP  0  0  0  0  0  0  0  0  0  0  0  0  # atno 4306 bound_to 3712
   -3.4806  -16.8009   13.2638 LP  0  0  0  0  0  0  0  0  0  0  0  0  # atno 4307 bound_to 3712
    1.4818  -19.8373    8.8231 LP  0  0  0  0  0  0  0  0  0  0  0  0  # atno 4314 bound_to 3832
    2.9593  -20.1890    8.2232 LP  0  0  0  0  0  0  0  0  0  0  0  0  # atno 4315 bound_to 3832
   -4.5997  -22.0844   11.6216 LP  0  0  0  0  0  0  0  0  0  0  0  0  # atno 4318 bound_to 3762
   -4.0760  -23.2948   10.6586 LP  0  0  0  0  0  0  0  0  0  0  0  0  # atno 4319 bound_to 3762
   -4.9420   -4.8732    7.7184 LP  0  0  0  0  0  0  0  0  0  0  0  0  # atno 4320 bound_to 2467
   -3.6412   -5.0781    8.6840 LP  0  0  0  0  0  0  0  0  0  0  0  0  # atno 4321 bound_to 2467

> <Gold.Score>
     Score     S(PLP)   S(hbond)     S(cho)   S(metal)  DE(clash)   DE(tors)     intcor
     35.44     -32.45       1.00       0.00       0.00       0.00       0.00       0.00

> <Gold.PLP.Fitness>
35.4446

> <Gold.PLP.PLP>
-32.4511

> <Gold.PLP.part.hbond>
-1.8744

> <Gold.PLP.part.metal>
0.0000

> <Gold.PLP.part.buried>
-3.4430

> <Gold.PLP.part.nonpolar>
-27.2670

> <Gold.PLP.part.repulsive>
0.0180

> <Gold.PLP.ligand.clash>
0.0000

> <Gold.PLP.ligand.torsion>
0.0033

> <Gold.PLP.Chemscore.Hbond>
1.0000

> <Gold.PLP.Chemscore.CHOScore>
0.0000

> <Gold.PLP.Chemscore.Metal>
0.0000

> <Gold.Chemscore.Hbonds>
donor molecule, donor type, donor heavy atom, donor atom, acceptor molecule, acceptor atom, score
      P1  H  2456  2461       L1     3  1.00

> <Gold.PLP.Chemscore.Internal.Correction>
0.0000

