#       Name:                EN300-4287209_i001
#       Creating user name   fsindt
#       Creation time:       Mon Feb 27 17:52:14 2023


#       File generated by GOLD software.
#

@<TRIPOS>MOLECULE
EN300-4287209_i001|acide_1|mol2|195|dock1
    16    16     1
SMALL
USER_CHARGES


@<TRIPOS>ATOM
      1 O1          -1.2794 -10.3996  10.8005 O.co2          1 <1>               -1.0000
      2 C2          -0.8728 -10.9343   9.7785 C.2            1 <1>                0.0000
      3 O3          -0.8766 -10.3175   8.7224 O.co2          1 <1>                0.0000
      4 C4          -0.3722 -12.3209   9.8207 C.ar           1 <1>                0.0000
      5 C5          -0.5498 -13.0942  10.9681 C.ar           1 <1>                0.0000
      6 C6          -0.0743 -14.4025  10.9988 C.ar           1 <1>                0.0000
      7 C7          -0.2532 -15.2030  12.1726 C.1            1 <1>                0.0000
      8 C8          -0.3998 -15.8592  13.1350 C.1            1 <1>                0.0000
      9 C9           0.5769 -14.9331   9.8829 C.ar           1 <1>                0.0000
     10 C10          0.7511 -14.1643   8.7496 C.ar           1 <1>                0.0000
     11 C11          0.2775 -12.8668   8.7078 C.ar           1 <1>                0.0000
     12 Cl12         0.5013 -11.9079   7.2780 Cl             1 <1>                0.0000
     13 H13         -1.0536 -12.6799  11.8289 H              1 <1>                0.0000
     14 H14         -0.5309 -16.4461  13.9956 H              1 <1>                0.0000
     15 H15          0.9457 -15.9480   9.9070 H              1 <1>                0.0000
     16 H16          1.2558 -14.5803   7.8902 H              1 <1>                0.0000
@<TRIPOS>BOND
    1    1    2 ar    
    2    2    3 ar    
    3    2    4 1     
    4    4    5 ar    
    5    4   11 ar    
    6    5    6 ar    
    7    5   13 1     
    8    6    7 1     
    9    6    9 ar    
   10    7    8 3     
   11    8   14 1     
   12    9   10 ar    
   13    9   15 1     
   14   10   11 ar    
   15   10   16 1     
   16   11   12 1     
@<TRIPOS>SUBSTRUCTURE
      1 ****           1
@<TRIPOS>COMMENT
> <Gold.Version>
2022.2.0

> <Gold.Id.Protein>
3pbl|protein|mol2

> <Gold.Protein.RotatedTorsions>
[ 1303 1298 1297 1294 ] final  159.79 input  179.99 | X-H torsion
[ 2461 2456 2455 2452 ] final -123.91 input   30.03 | X-H torsion
[ 2515 2510 2509 2506 ] final  -77.46 input  -89.99 | X-H torsion
[ 3721 3712 3711 3710 ] final  -79.31 input -179.91 | X-H torsion
[ 3841 3832 3831 3830 ] final   53.78 input -179.91 | X-H torsion
[ 3767 3762 3761 3758 ] final -111.30 input  -89.99 | X-H torsion
[ 2472 2467 2466 2463 ] final  -87.57 input  -89.97 | X-H torsion

> <Gold.Protein.ActiveResidues>
 VAL82   VAL86   LEU89   PHE106  VAL107  ASP110  VAL111  MET112  CYS114  THR115 
 CYS181  SER182  ILE183  PHE188  VAL189  ILE190  SER192  SER193  SER196  TRP342 
 PHE345  PHE346  HIS349  VAL350  TYR365  THR369  GLY372  TYR373 

> <Gold.Protein.RotatedAtoms>
    4.9113   -9.1635    4.8321 H   0  0  0  0  0  0  0  0  0  0  0  0  # atno 1303 bound_to 1298
    0.6197   -9.1987    8.0929 H   0  0  0  0  0  0  0  0  0  0  0  0  # atno 2461 bound_to 2456
   -4.0110   -5.3331    9.2765 H   0  0  0  0  0  0  0  0  0  0  0  0  # atno 2472 bound_to 2467
    2.8353   -8.7651    4.4908 H   0  0  0  0  0  0  0  0  0  0  0  0  # atno 2515 bound_to 2510
   -2.9454  -17.0800   14.7358 H   0  0  0  0  0  0  0  0  0  0  0  0  # atno 3721 bound_to 3712
   -4.9664  -21.9347   11.4456 H   0  0  0  0  0  0  0  0  0  0  0  0  # atno 3767 bound_to 3762
    2.3859  -20.9244    9.5484 H   0  0  0  0  0  0  0  0  0  0  0  0  # atno 3841 bound_to 3832
    3.7446  -10.2353    4.4366 LP  0  0  0  0  0  0  0  0  0  0  0  0  # atno 4297 bound_to 1298
    3.7059   -8.7226    3.8227 LP  0  0  0  0  0  0  0  0  0  0  0  0  # atno 4298 bound_to 1298
    2.1372   -8.5989    8.0234 LP  0  0  0  0  0  0  0  0  0  0  0  0  # atno 4299 bound_to 2456
    0.9806   -8.0107    7.0320 LP  0  0  0  0  0  0  0  0  0  0  0  0  # atno 4300 bound_to 2456
    2.2119   -8.8249    5.9987 LP  0  0  0  0  0  0  0  0  0  0  0  0  # atno 4301 bound_to 2510
    2.2494   -7.4089    5.1861 LP  0  0  0  0  0  0  0  0  0  0  0  0  # atno 4302 bound_to 2510
   -3.4713  -16.8205   13.2412 LP  0  0  0  0  0  0  0  0  0  0  0  0  # atno 4306 bound_to 3712
   -2.6559  -18.1866   13.6092 LP  0  0  0  0  0  0  0  0  0  0  0  0  # atno 4307 bound_to 3712
    1.4961  -19.8193    8.7982 LP  0  0  0  0  0  0  0  0  0  0  0  0  # atno 4314 bound_to 3832
    2.9771  -20.2151    8.2356 LP  0  0  0  0  0  0  0  0  0  0  0  0  # atno 4315 bound_to 3832
   -3.9226  -23.1175   11.0234 LP  0  0  0  0  0  0  0  0  0  0  0  0  # atno 4318 bound_to 3762
   -5.2384  -22.8226   10.1023 LP  0  0  0  0  0  0  0  0  0  0  0  0  # atno 4319 bound_to 3762
   -5.5035   -5.2593    8.6183 LP  0  0  0  0  0  0  0  0  0  0  0  0  # atno 4320 bound_to 2467
   -4.2023   -4.8012    7.7445 LP  0  0  0  0  0  0  0  0  0  0  0  0  # atno 4321 bound_to 2467

> <Gold.Score>
     Score     S(PLP)   S(hbond)     S(cho)   S(metal)  DE(clash)   DE(tors)     intcor
     39.14     -36.22       1.00       0.00       0.00       0.00       0.04       0.00

> <Gold.PLP.Fitness>
39.1374

> <Gold.PLP.PLP>
-36.2229

> <Gold.PLP.part.hbond>
-1.0000

> <Gold.PLP.part.metal>
0.0000

> <Gold.PLP.part.buried>
-3.7422

> <Gold.PLP.part.nonpolar>
-32.4877

> <Gold.PLP.part.repulsive>
0.0832

> <Gold.PLP.ligand.clash>
0.0000

> <Gold.PLP.ligand.torsion>
0.0428

> <Gold.PLP.Chemscore.Hbond>
1.0000

> <Gold.PLP.Chemscore.CHOScore>
0.0000

> <Gold.PLP.Chemscore.Metal>
0.0000

> <Gold.Chemscore.Hbonds>
donor molecule, donor type, donor heavy atom, donor atom, acceptor molecule, acceptor atom, score
      P1  H  2456  2461       L1     3  1.00

> <Gold.PLP.Chemscore.Internal.Correction>
0.0001

