#       Name:                EN300-4287209_i001
#       Creating user name   fsindt
#       Creation time:       Mon Feb 27 17:52:17 2023


#       File generated by GOLD software.
#

@<TRIPOS>MOLECULE
EN300-4287209_i001|acide_1|mol2|195|dock11
    16    16     1
SMALL
USER_CHARGES


@<TRIPOS>ATOM
      1 O1           0.2017 -11.0274   7.5680 O.co2          1 <1>               -1.0000
      2 C2           0.3359 -12.1792   7.9567 C.2            1 <1>                0.0000
      3 O3           0.8568 -13.0133   7.2296 O.co2          1 <1>                0.0000
      4 C4          -0.1248 -12.5608   9.3047 C.ar           1 <1>                0.0000
      5 C5           0.3327 -13.7403   9.8926 C.ar           1 <1>                0.0000
      6 C6          -0.1074 -14.0924  11.1658 C.ar           1 <1>                0.0000
      7 C7           0.3580 -15.3012  11.7764 C.1            1 <1>                0.0000
      8 C8           0.7396 -16.2922  12.2771 C.1            1 <1>                0.0000
      9 C9          -1.0029 -13.2647  11.8468 C.ar           1 <1>                0.0000
     10 C10         -1.4536 -12.0985  11.2613 C.ar           1 <1>                0.0000
     11 C11         -1.0180 -11.7379  10.0004 C.ar           1 <1>                0.0000
     12 Cl12        -1.5904 -10.2696   9.2724 Cl             1 <1>                0.0000
     13 H13          1.0248 -14.3777   9.3624 H              1 <1>                0.0000
     14 H14          1.0808 -17.1784  12.7249 H              1 <1>                0.0000
     15 H15         -1.3440 -13.5380  12.8344 H              1 <1>                0.0000
     16 H16         -2.1463 -11.4630  11.7929 H              1 <1>                0.0000
@<TRIPOS>BOND
    1    1    2 ar    
    2    2    3 ar    
    3    2    4 1     
    4    4    5 ar    
    5    4   11 ar    
    6    5    6 ar    
    7    5   13 1     
    8    6    7 1     
    9    6    9 ar    
   10    7    8 3     
   11    8   14 1     
   12    9   10 ar    
   13    9   15 1     
   14   10   11 ar    
   15   10   16 1     
   16   11   12 1     
@<TRIPOS>SUBSTRUCTURE
      1 ****           1
@<TRIPOS>COMMENT
> <Gold.Version>
2022.2.0

> <Gold.Id.Protein>
3pbl|protein|mol2

> <Gold.Protein.RotatedTorsions>
[ 1303 1298 1297 1294 ] final   62.64 input  179.99 | X-H torsion
[ 2461 2456 2455 2452 ] final -135.07 input   30.03 | X-H torsion
[ 2515 2510 2509 2506 ] final  -72.17 input  -89.99 | X-H torsion
[ 3721 3712 3711 3710 ] final -135.14 input -179.91 | X-H torsion
[ 3841 3832 3831 3830 ] final   11.66 input -179.91 | X-H torsion
[ 3767 3762 3761 3758 ] final -175.86 input  -89.99 | X-H torsion
[ 2472 2467 2466 2463 ] final  -84.49 input  -89.97 | X-H torsion

> <Gold.Protein.ActiveResidues>
 VAL82   VAL86   LEU89   PHE106  VAL107  ASP110  VAL111  MET112  CYS114  THR115 
 CYS181  SER182  ILE183  PHE188  VAL189  ILE190  SER192  SER193  SER196  TRP342 
 PHE345  PHE346  HIS349  VAL350  TYR365  THR369  GLY372  TYR373 

> <Gold.Protein.RotatedAtoms>
    4.0443  -10.2662    4.6575 H   0  0  0  0  0  0  0  0  0  0  0  0  # atno 1303 bound_to 1298
    0.7607   -9.2532    8.1965 H   0  0  0  0  0  0  0  0  0  0  0  0  # atno 2461 bound_to 2456
   -3.9715   -5.3186    9.2484 H   0  0  0  0  0  0  0  0  0  0  0  0  # atno 2472 bound_to 2467
    2.8356   -8.6879    4.4507 H   0  0  0  0  0  0  0  0  0  0  0  0  # atno 2515 bound_to 2510
   -3.2853  -16.5691   14.2056 H   0  0  0  0  0  0  0  0  0  0  0  0  # atno 3721 bound_to 3712
   -4.1335  -22.4820   11.5901 H   0  0  0  0  0  0  0  0  0  0  0  0  # atno 3767 bound_to 3762
    1.8494  -20.6142    9.6029 H   0  0  0  0  0  0  0  0  0  0  0  0  # atno 3841 bound_to 3832
    3.4769   -9.0138    3.7766 LP  0  0  0  0  0  0  0  0  0  0  0  0  # atno 4297 bound_to 1298
    4.8410   -8.8409    4.6574 LP  0  0  0  0  0  0  0  0  0  0  0  0  # atno 4298 bound_to 1298
    2.1607   -8.4664    7.8991 LP  0  0  0  0  0  0  0  0  0  0  0  0  # atno 4299 bound_to 2456
    0.8162   -8.0888    7.0526 LP  0  0  0  0  0  0  0  0  0  0  0  0  # atno 4300 bound_to 2456
    2.2440   -8.8950    5.9583 LP  0  0  0  0  0  0  0  0  0  0  0  0  # atno 4301 bound_to 2510
    2.2170   -7.4161    5.2666 LP  0  0  0  0  0  0  0  0  0  0  0  0  # atno 4302 bound_to 2510
   -3.0645  -17.5724   12.9718 LP  0  0  0  0  0  0  0  0  0  0  0  0  # atno 4306 bound_to 3712
   -2.6703  -18.0246   14.4906 LP  0  0  0  0  0  0  0  0  0  0  0  0  # atno 4307 bound_to 3712
    1.9728  -19.6345    8.3376 LP  0  0  0  0  0  0  0  0  0  0  0  0  # atno 4314 bound_to 3832
    3.1202  -20.7582    8.6332 LP  0  0  0  0  0  0  0  0  0  0  0  0  # atno 4315 bound_to 3832
   -4.5127  -23.2993   10.2281 LP  0  0  0  0  0  0  0  0  0  0  0  0  # atno 4318 bound_to 3762
   -5.4809  -22.0937   10.7531 LP  0  0  0  0  0  0  0  0  0  0  0  0  # atno 4319 bound_to 3762
   -5.4963   -5.2755    8.6656 LP  0  0  0  0  0  0  0  0  0  0  0  0  # atno 4320 bound_to 2467
   -4.2490   -4.7994    7.7253 LP  0  0  0  0  0  0  0  0  0  0  0  0  # atno 4321 bound_to 2467

> <Gold.Score>
     Score     S(PLP)   S(hbond)     S(cho)   S(metal)  DE(clash)   DE(tors)     intcor
     39.74     -37.21       0.93       0.00       0.00       0.00       0.13       0.00

> <Gold.PLP.Fitness>
39.7418

> <Gold.PLP.PLP>
-37.2149

> <Gold.PLP.part.hbond>
-1.0000

> <Gold.PLP.part.metal>
0.0000

> <Gold.PLP.part.buried>
-3.2894

> <Gold.PLP.part.nonpolar>
-33.7402

> <Gold.PLP.part.repulsive>
0.0542

> <Gold.PLP.ligand.clash>
0.0000

> <Gold.PLP.ligand.torsion>
0.1286

> <Gold.PLP.Chemscore.Hbond>
0.9280

> <Gold.PLP.Chemscore.CHOScore>
0.0000

> <Gold.PLP.Chemscore.Metal>
0.0000

> <Gold.Chemscore.Hbonds>
donor molecule, donor type, donor heavy atom, donor atom, acceptor molecule, acceptor atom, score
      P1  H  2456  2461       L1     1  0.93

> <Gold.PLP.Chemscore.Internal.Correction>
0.0000

