#       Name:                EN300-4287209_i001
#       Creating user name   fsindt
#       Creation time:       Mon Feb 27 17:52:15 2023


#       File generated by GOLD software.
#

@<TRIPOS>MOLECULE
EN300-4287209_i001|acide_1|mol2|195|dock5
    16    16     1
SMALL
USER_CHARGES


@<TRIPOS>ATOM
      1 O1           0.8193 -12.9867   8.4503 O.co2          1 <1>               -1.0000
      2 C2           0.4185 -11.8398   8.3098 C.2            1 <1>                0.0000
      3 O3           0.7932 -11.1736   7.3550 O.co2          1 <1>                0.0000
      4 C4          -0.5215 -11.2622   9.2885 C.ar           1 <1>                0.0000
      5 C5          -1.8972 -11.4006   9.1032 C.ar           1 <1>                0.0000
      6 C6          -2.7772 -10.8523  10.0324 C.ar           1 <1>                0.0000
      7 C7          -4.1907 -10.9906   9.8497 C.1            1 <1>                0.0000
      8 C8          -5.3496 -11.1039   9.6999 C.1            1 <1>                0.0000
      9 C9          -2.2793 -10.1679  11.1435 C.ar           1 <1>                0.0000
     10 C10         -0.9172 -10.0327  11.3230 C.ar           1 <1>                0.0000
     11 C11         -0.0360 -10.5784  10.4090 C.ar           1 <1>                0.0000
     12 Cl12         1.6752 -10.4032  10.6433 Cl             1 <1>                0.0000
     13 H13         -2.2780 -11.9303   8.2424 H              1 <1>                0.0000
     14 H14         -6.3860 -11.2053   9.5660 H              1 <1>                0.0000
     15 H15         -2.9621  -9.7428  11.8643 H              1 <1>                0.0000
     16 H16         -0.5385  -9.5020  12.1840 H              1 <1>                0.0000
@<TRIPOS>BOND
    1    1    2 ar    
    2    2    3 ar    
    3    2    4 1     
    4    4    5 ar    
    5    4   11 ar    
    6    5    6 ar    
    7    5   13 1     
    8    6    7 1     
    9    6    9 ar    
   10    7    8 3     
   11    8   14 1     
   12    9   10 ar    
   13    9   15 1     
   14   10   11 ar    
   15   10   16 1     
   16   11   12 1     
@<TRIPOS>SUBSTRUCTURE
      1 ****           1
@<TRIPOS>COMMENT
> <Gold.Version>
2022.2.0

> <Gold.Id.Protein>
3pbl|protein|mol2

> <Gold.Protein.RotatedTorsions>
[ 1303 1298 1297 1294 ] final  -95.02 input  179.99 | X-H torsion
[ 2461 2456 2455 2452 ] final -132.16 input   30.03 | X-H torsion
[ 2515 2510 2509 2506 ] final  -79.24 input  -89.99 | X-H torsion
[ 3721 3712 3711 3710 ] final -160.70 input -179.91 | X-H torsion
[ 3841 3832 3831 3830 ] final  -12.70 input -179.91 | X-H torsion
[ 3767 3762 3761 3758 ] final  119.07 input  -89.99 | X-H torsion
[ 2472 2467 2466 2463 ] final  -93.28 input  -89.97 | X-H torsion

> <Gold.Protein.ActiveResidues>
 VAL82   VAL86   LEU89   PHE106  VAL107  ASP110  VAL111  MET112  CYS114  THR115 
 CYS181  SER182  ILE183  PHE188  VAL189  ILE190  SER192  SER193  SER196  TRP342 
 PHE345  PHE346  HIS349  VAL350  TYR365  THR369  GLY372  TYR373 

> <Gold.Protein.RotatedAtoms>
    3.8918   -8.5861    3.8995 H   0  0  0  0  0  0  0  0  0  0  0  0  # atno 1303 bound_to 1298
    0.7221   -9.2413    8.1712 H   0  0  0  0  0  0  0  0  0  0  0  0  # atno 2461 bound_to 2456
   -4.0886   -5.3584    9.3231 H   0  0  0  0  0  0  0  0  0  0  0  0  # atno 2472 bound_to 2467
    2.8344   -8.7902    4.5057 H   0  0  0  0  0  0  0  0  0  0  0  0  # atno 2515 bound_to 2510
   -3.3382  -16.5354   13.8275 H   0  0  0  0  0  0  0  0  0  0  0  0  # atno 3721 bound_to 3712
   -3.9594  -23.1959   10.8908 H   0  0  0  0  0  0  0  0  0  0  0  0  # atno 3767 bound_to 3762
    1.6429  -20.3378    9.4833 H   0  0  0  0  0  0  0  0  0  0  0  0  # atno 3841 bound_to 3832
    4.8912   -9.3939    4.9069 LP  0  0  0  0  0  0  0  0  0  0  0  0  # atno 4297 bound_to 1298
    3.5793  -10.1416    4.2854 LP  0  0  0  0  0  0  0  0  0  0  0  0  # atno 4298 bound_to 1298
    2.1579   -8.5006    7.9323 LP  0  0  0  0  0  0  0  0  0  0  0  0  # atno 4299 bound_to 2456
    0.8577   -8.0665    7.0448 LP  0  0  0  0  0  0  0  0  0  0  0  0  # atno 4300 bound_to 2456
    2.2015   -8.8004    6.0108 LP  0  0  0  0  0  0  0  0  0  0  0  0  # atno 4301 bound_to 2510
    2.2606   -7.4083    5.1591 LP  0  0  0  0  0  0  0  0  0  0  0  0  # atno 4302 bound_to 2510
   -2.8597  -17.9041   13.1379 LP  0  0  0  0  0  0  0  0  0  0  0  0  # atno 4306 bound_to 3712
   -2.8140  -17.7319   14.7611 LP  0  0  0  0  0  0  0  0  0  0  0  0  # atno 4307 bound_to 3712
    2.3368  -19.7097    8.1795 LP  0  0  0  0  0  0  0  0  0  0  0  0  # atno 4314 bound_to 3832
    2.9948  -21.0024    8.9295 LP  0  0  0  0  0  0  0  0  0  0  0  0  # atno 4315 bound_to 3832
   -5.3317  -22.7057   10.1537 LP  0  0  0  0  0  0  0  0  0  0  0  0  # atno 4318 bound_to 3762
   -4.8360  -21.9736   11.5266 LP  0  0  0  0  0  0  0  0  0  0  0  0  # atno 4319 bound_to 3762
   -5.5099   -5.2281    8.5298 LP  0  0  0  0  0  0  0  0  0  0  0  0  # atno 4320 bound_to 2467
   -4.1183   -4.8071    7.7864 LP  0  0  0  0  0  0  0  0  0  0  0  0  # atno 4321 bound_to 2467

> <Gold.Score>
     Score     S(PLP)   S(hbond)     S(cho)   S(metal)  DE(clash)   DE(tors)     intcor
     42.58     -43.51       0.69       0.00       0.00       0.00       1.50       0.00

> <Gold.PLP.Fitness>
42.5780

> <Gold.PLP.PLP>
-43.5138

> <Gold.PLP.part.hbond>
-1.0000

> <Gold.PLP.part.metal>
0.0000

> <Gold.PLP.part.buried>
-3.6570

> <Gold.PLP.part.nonpolar>
-40.4847

> <Gold.PLP.part.repulsive>
0.0152

> <Gold.PLP.ligand.clash>
0.0000

> <Gold.PLP.ligand.torsion>
1.5000

> <Gold.PLP.Chemscore.Hbond>
0.6880

> <Gold.PLP.Chemscore.CHOScore>
0.0000

> <Gold.PLP.Chemscore.Metal>
0.0000

> <Gold.Chemscore.Hbonds>
donor molecule, donor type, donor heavy atom, donor atom, acceptor molecule, acceptor atom, score
      P1  H  2456  2461       L1     3  0.69

> <Gold.PLP.Chemscore.Internal.Correction>
0.0000

