#       Name:                EN300-4287209_i001
#       Creating user name   fsindt
#       Creation time:       Mon Feb 27 17:52:13 2023


#       File generated by GOLD software.
#

@<TRIPOS>MOLECULE
EN300-4287209_i001
    16    16     1
SMALL
USER_CHARGES


@<TRIPOS>ATOM
      1 O1           1.8884  -2.7666   0.0024 O.co2          1 <1>               -1.0000
      2 C2           2.2147  -1.5879   0.0009 C.2            1 <1>                0.0000
      3 O3           3.3986  -1.2811  -0.0048 O.co2          1 <1>                0.0000
      4 C4           1.1805  -0.5365  -0.0003 C.ar           1 <1>                0.0000
      5 C5          -0.1705  -0.8840   0.0003 C.ar           1 <1>                0.0000
      6 C6          -1.1400   0.1153  -0.0004 C.ar           1 <1>                0.0000
      7 C7          -2.5289  -0.2332   0.0008 C.1            1 <1>                0.0000
      8 C8          -3.6676  -0.5190   0.0017 C.1            1 <1>                0.0000
      9 C9          -0.7559   1.4582  -0.0016 C.ar           1 <1>                0.0000
     10 C10          0.5822   1.7979  -0.0027 C.ar           1 <1>                0.0000
     11 C11          1.5515   0.8130   0.0038 C.ar           1 <1>                0.0000
     12 Cl12         3.2316   1.2501   0.0024 Cl             1 <1>                0.0000
     13 H13         -0.4632  -1.9236   0.0009 H              1 <1>                0.0000
     14 H14         -4.6860  -0.7745   0.0025 H              1 <1>                0.0000
     15 H15         -1.5081   2.2332  -0.0021 H              1 <1>                0.0000
     16 H16          0.8727   2.8381  -0.0040 H              1 <1>                0.0000
@<TRIPOS>BOND
    1    1    2 ar    
    2    2    3 ar    
    3    2    4 1     
    4    4    5 ar    
    5    4   11 ar    
    6    5    6 ar    
    7    5   13 1     
    8    6    7 1     
    9    6    9 ar    
   10    7    8 3     
   11    8   14 1     
   12    9   10 ar    
   13    9   15 1     
   14   10   11 ar    
   15   10   16 1     
   16   11   12 1     
@<TRIPOS>SUBSTRUCTURE
      1 ****           1
