#       Name:                EN300-4287209_i001
#       Creating user name   fsindt
#       Creation time:       Mon Feb 27 17:52:16 2023


#       File generated by GOLD software.
#

@<TRIPOS>MOLECULE
EN300-4287209_i001|acide_1|mol2|195|dock9
    16    16     1
SMALL
USER_CHARGES


@<TRIPOS>ATOM
      1 O1           0.5081 -16.3455  14.6856 O.co2          1 <1>               -1.0000
      2 C2          -0.1116 -17.3983  14.6257 C.2            1 <1>                0.0000
      3 O3          -1.1229 -17.5517  15.2963 O.co2          1 <1>                0.0000
      4 C4           0.3571 -18.4804  13.7401 C.ar           1 <1>                0.0000
      5 C5          -0.4414 -19.6038  13.5251 C.ar           1 <1>                0.0000
      6 C6           0.0090 -20.6204  12.6871 C.ar           1 <1>                0.0000
      7 C7          -0.8050 -21.7765  12.4608 C.1            1 <1>                0.0000
      8 C8          -1.4725 -22.7244  12.2752 C.1            1 <1>                0.0000
      9 C9           1.2557 -20.5106  12.0670 C.ar           1 <1>                0.0000
     10 C10          2.0432 -19.3974  12.2828 C.ar           1 <1>                0.0000
     11 C11          1.6020 -18.3808  13.1083 C.ar           1 <1>                0.0000
     12 Cl12         2.5994 -16.9848  13.3735 Cl             1 <1>                0.0000
     13 H13         -1.4047 -19.6849  14.0068 H              1 <1>                0.0000
     14 H14         -2.0694 -23.5721  12.1094 H              1 <1>                0.0000
     15 H15          1.6049 -21.2992  11.4169 H              1 <1>                0.0000
     16 H16          3.0064 -19.3186  11.8007 H              1 <1>                0.0000
@<TRIPOS>BOND
    1    1    2 ar    
    2    2    3 ar    
    3    2    4 1     
    4    4    5 ar    
    5    4   11 ar    
    6    5    6 ar    
    7    5   13 1     
    8    6    7 1     
    9    6    9 ar    
   10    7    8 3     
   11    8   14 1     
   12    9   10 ar    
   13    9   15 1     
   14   10   11 ar    
   15   10   16 1     
   16   11   12 1     
@<TRIPOS>SUBSTRUCTURE
      1 ****           1
@<TRIPOS>COMMENT
> <Gold.Version>
2022.2.0

> <Gold.Id.Protein>
3pbl|protein|mol2

> <Gold.Protein.RotatedTorsions>
[ 1303 1298 1297 1294 ] final  -64.22 input  179.99 | X-H torsion
[ 2461 2456 2455 2452 ] final  157.37 input   30.03 | X-H torsion
[ 2515 2510 2509 2506 ] final   -3.57 input  -89.99 | X-H torsion
[ 3721 3712 3711 3710 ] final  -36.36 input -179.91 | X-H torsion
[ 3841 3832 3831 3830 ] final  108.53 input -179.91 | X-H torsion
[ 3767 3762 3761 3758 ] final   94.43 input  -89.99 | X-H torsion
[ 2472 2467 2466 2463 ] final   18.89 input  -89.97 | X-H torsion

> <Gold.Protein.ActiveResidues>
 VAL82   VAL86   LEU89   PHE106  VAL107  ASP110  VAL111  MET112  CYS114  THR115 
 CYS181  SER182  ILE183  PHE188  VAL189  ILE190  SER192  SER193  SER196  TRP342 
 PHE345  PHE346  HIS349  VAL350  TYR365  THR369  GLY372  TYR373 

> <Gold.Protein.RotatedAtoms>
    3.5363   -8.9181    3.7813 H   0  0  0  0  0  0  0  0  0  0  0  0  # atno 1303 bound_to 1298
    1.7784   -9.0525    8.3513 H   0  0  0  0  0  0  0  0  0  0  0  0  # atno 2461 bound_to 2456
   -4.0108   -4.8209    7.8555 H   0  0  0  0  0  0  0  0  0  0  0  0  # atno 2472 bound_to 2467
    2.5649   -7.6677    4.5709 H   0  0  0  0  0  0  0  0  0  0  0  0  # atno 2515 bound_to 2510
   -2.6396  -17.6279   14.6432 H   0  0  0  0  0  0  0  0  0  0  0  0  # atno 3721 bound_to 3712
   -4.1470  -23.3202   10.5572 H   0  0  0  0  0  0  0  0  0  0  0  0  # atno 3767 bound_to 3762
    3.0107  -20.8184    9.0667 H   0  0  0  0  0  0  0  0  0  0  0  0  # atno 3841 bound_to 3832
    4.8751   -8.9313    4.7161 LP  0  0  0  0  0  0  0  0  0  0  0  0  # atno 4297 bound_to 1298
    3.9510  -10.2721    4.5943 LP  0  0  0  0  0  0  0  0  0  0  0  0  # atno 4298 bound_to 1298
    1.6245   -7.9294    7.1755 LP  0  0  0  0  0  0  0  0  0  0  0  0  # atno 4299 bound_to 2456
    0.3349   -8.8264    7.6215 LP  0  0  0  0  0  0  0  0  0  0  0  0  # atno 4300 bound_to 2456
    2.6961   -9.2219    5.0538 LP  0  0  0  0  0  0  0  0  0  0  0  0  # atno 4301 bound_to 2510
    2.0357   -8.1099    6.0508 LP  0  0  0  0  0  0  0  0  0  0  0  0  # atno 4302 bound_to 2510
   -3.5649  -16.5575   13.8843 LP  0  0  0  0  0  0  0  0  0  0  0  0  # atno 4306 bound_to 3712
   -2.9153  -17.8170   13.0729 LP  0  0  0  0  0  0  0  0  0  0  0  0  # atno 4307 bound_to 3712
    1.4781  -20.4695    9.3915 LP  0  0  0  0  0  0  0  0  0  0  0  0  # atno 4314 bound_to 3832
    2.2734  -19.6874    8.1988 LP  0  0  0  0  0  0  0  0  0  0  0  0  # atno 4315 bound_to 3832
   -5.4859  -22.4041   10.3706 LP  0  0  0  0  0  0  0  0  0  0  0  0  # atno 4318 bound_to 3762
   -4.4943  -22.1510   11.6431 LP  0  0  0  0  0  0  0  0  0  0  0  0  # atno 4319 bound_to 3762
   -4.2025   -5.3887    9.3745 LP  0  0  0  0  0  0  0  0  0  0  0  0  # atno 4320 bound_to 2467
   -5.5035   -5.1839    8.4090 LP  0  0  0  0  0  0  0  0  0  0  0  0  # atno 4321 bound_to 2467

> <Gold.Score>
     Score     S(PLP)   S(hbond)     S(cho)   S(metal)  DE(clash)   DE(tors)     intcor
     33.58     -27.65       2.00       0.00       0.00       0.00       0.03       0.00

> <Gold.PLP.Fitness>
33.5772

> <Gold.PLP.PLP>
-27.6462

> <Gold.PLP.part.hbond>
-2.0000

> <Gold.PLP.part.metal>
0.0000

> <Gold.PLP.part.buried>
-2.6539

> <Gold.PLP.part.nonpolar>
-23.5542

> <Gold.PLP.part.repulsive>
0.0545

> <Gold.PLP.ligand.clash>
0.0000

> <Gold.PLP.ligand.torsion>
0.0345

> <Gold.PLP.Chemscore.Hbond>
2.0000

> <Gold.PLP.Chemscore.CHOScore>
0.0000

> <Gold.PLP.Chemscore.Metal>
0.0000

> <Gold.Chemscore.Hbonds>
donor molecule, donor type, donor heavy atom, donor atom, acceptor molecule, acceptor atom, score
      P1  H  2305  2313       L1     1  1.00
      P1  H  3712  3721       L1     3  1.00

> <Gold.PLP.Chemscore.Internal.Correction>
0.0000

