#       Name:                EN300-4287209_i001
#       Creating user name   fsindt
#       Creation time:       Mon Feb 27 17:52:18 2023


#       File generated by GOLD software.
#

@<TRIPOS>MOLECULE
EN300-4287209_i001|acide_1|mol2|195|dock13
    16    16     1
SMALL
USER_CHARGES


@<TRIPOS>ATOM
      1 O1          -2.3535 -11.1276  11.1158 O.co2          1 <1>               -1.0000
      2 C2          -1.7938 -10.7908  10.0818 C.2            1 <1>                0.0000
      3 O3          -2.0478  -9.7078   9.5737 O.co2          1 <1>                0.0000
      4 C4          -0.8078 -11.6882   9.4512 C.ar           1 <1>                0.0000
      5 C5          -0.3011 -11.3919   8.1857 C.ar           1 <1>                0.0000
      6 C6           0.6297 -12.2446   7.5982 C.ar           1 <1>                0.0000
      7 C7           1.1550 -11.9472   6.2997 C.1            1 <1>                0.0000
      8 C8           1.5856 -11.7033   5.2351 C.1            1 <1>                0.0000
      9 C9           1.0508 -13.3900   8.2775 C.ar           1 <1>                0.0000
     10 C10          0.5465 -13.6799   9.5295 C.ar           1 <1>                0.0000
     11 C11         -0.3733 -12.8365  10.1230 C.ar           1 <1>                0.0000
     12 Cl12        -1.0017 -13.2094  11.6978 Cl             1 <1>                0.0000
     13 H13         -0.6297 -10.5053   7.6637 H              1 <1>                0.0000
     14 H14          1.9707 -11.4852   4.2829 H              1 <1>                0.0000
     15 H15          1.7728 -14.0513   7.8216 H              1 <1>                0.0000
     16 H16          0.8759 -14.5674  10.0494 H              1 <1>                0.0000
@<TRIPOS>BOND
    1    1    2 ar    
    2    2    3 ar    
    3    2    4 1     
    4    4    5 ar    
    5    4   11 ar    
    6    5    6 ar    
    7    5   13 1     
    8    6    7 1     
    9    6    9 ar    
   10    7    8 3     
   11    8   14 1     
   12    9   10 ar    
   13    9   15 1     
   14   10   11 ar    
   15   10   16 1     
   16   11   12 1     
@<TRIPOS>SUBSTRUCTURE
      1 ****           1
@<TRIPOS>COMMENT
> <Gold.Version>
2022.2.0

> <Gold.Id.Protein>
3pbl|protein|mol2

> <Gold.Protein.RotatedTorsions>
[ 1303 1298 1297 1294 ] final -112.78 input  179.99 | X-H torsion
[ 2461 2456 2455 2452 ] final -122.22 input   30.03 | X-H torsion
[ 2515 2510 2509 2506 ] final  101.90 input  -89.99 | X-H torsion
[ 3721 3712 3711 3710 ] final   86.06 input -179.91 | X-H torsion
[ 3841 3832 3831 3830 ] final  -52.00 input -179.91 | X-H torsion
[ 3767 3762 3761 3758 ] final   47.51 input  -89.99 | X-H torsion
[ 2472 2467 2466 2463 ] final -159.30 input  -89.97 | X-H torsion

> <Gold.Protein.ActiveResidues>
 VAL82   VAL86   LEU89   PHE106  VAL107  ASP110  VAL111  MET112  CYS114  THR115 
 CYS181  SER182  ILE183  PHE188  VAL189  ILE190  SER192  SER193  SER196  TRP342 
 PHE345  PHE346  HIS349  VAL350  TYR365  THR369  GLY372  TYR373 

> <Gold.Protein.RotatedAtoms>
    4.1336   -8.4920    4.0311 H   0  0  0  0  0  0  0  0  0  0  0  0  # atno 1303 bound_to 1298
    0.6003   -9.1884    8.0758 H   0  0  0  0  0  0  0  0  0  0  0  0  # atno 2461 bound_to 2456
   -5.1098   -5.4459    9.2542 H   0  0  0  0  0  0  0  0  0  0  0  0  # atno 2472 bound_to 2467
    2.0297   -7.8919    5.9541 H   0  0  0  0  0  0  0  0  0  0  0  0  # atno 2515 bound_to 2510
   -2.7554  -17.6607   13.1298 H   0  0  0  0  0  0  0  0  0  0  0  0  # atno 3721 bound_to 3712
   -4.7433  -23.2065   10.1155 H   0  0  0  0  0  0  0  0  0  0  0  0  # atno 3767 bound_to 3762
    1.5813  -19.8880    9.1187 H   0  0  0  0  0  0  0  0  0  0  0  0  # atno 3841 bound_to 3832
    4.7994   -9.6669    4.9490 LP  0  0  0  0  0  0  0  0  0  0  0  0  # atno 4297 bound_to 1298
    3.4291   -9.9628    4.1116 LP  0  0  0  0  0  0  0  0  0  0  0  0  # atno 4298 bound_to 1298
    2.1307   -8.6192    8.0413 LP  0  0  0  0  0  0  0  0  0  0  0  0  # atno 4299 bound_to 2456
    1.0066   -8.0007    7.0311 LP  0  0  0  0  0  0  0  0  0  0  0  0  # atno 4300 bound_to 2456
    2.6563   -7.8500    4.4470 LP  0  0  0  0  0  0  0  0  0  0  0  0  # atno 4301 bound_to 2510
    2.6110   -9.2575    5.2737 LP  0  0  0  0  0  0  0  0  0  0  0  0  # atno 4302 bound_to 2510
   -2.7885  -17.7811   14.7305 LP  0  0  0  0  0  0  0  0  0  0  0  0  # atno 4306 bound_to 3712
   -3.5580  -16.5556   13.9739 LP  0  0  0  0  0  0  0  0  0  0  0  0  # atno 4307 bound_to 3712
    2.8677  -20.0742    8.1772 LP  0  0  0  0  0  0  0  0  0  0  0  0  # atno 4314 bound_to 3832
    2.5351  -21.1574    9.3530 LP  0  0  0  0  0  0  0  0  0  0  0  0  # atno 4315 bound_to 3832
   -5.3861  -21.9810   10.9825 LP  0  0  0  0  0  0  0  0  0  0  0  0  # atno 4318 bound_to 3762
   -3.9980  -22.6878   11.4728 LP  0  0  0  0  0  0  0  0  0  0  0  0  # atno 4319 bound_to 3762
   -4.9691   -4.8800    7.7289 LP  0  0  0  0  0  0  0  0  0  0  0  0  # atno 4320 bound_to 2467
   -3.6381   -5.0677    8.6562 LP  0  0  0  0  0  0  0  0  0  0  0  0  # atno 4321 bound_to 2467

> <Gold.Score>
     Score     S(PLP)   S(hbond)     S(cho)   S(metal)  DE(clash)   DE(tors)     intcor
     39.51     -39.58       0.00       0.00       0.00       0.00       0.03       0.00

> <Gold.PLP.Fitness>
39.5140

> <Gold.PLP.PLP>
-39.5838

> <Gold.PLP.part.hbond>
0.0000

> <Gold.PLP.part.metal>
0.0000

> <Gold.PLP.part.buried>
-3.8423

> <Gold.PLP.part.nonpolar>
-36.6085

> <Gold.PLP.part.repulsive>
0.1365

> <Gold.PLP.ligand.clash>
0.0000

> <Gold.PLP.ligand.torsion>
0.0349

> <Gold.PLP.Chemscore.Hbond>
0.0000

> <Gold.PLP.Chemscore.CHOScore>
0.0000

> <Gold.PLP.Chemscore.Metal>
0.0000

> <Gold.PLP.Chemscore.Internal.Correction>
0.0000

