#       Name:                EN300-4287209_i001
#       Creating user name   fsindt
#       Creation time:       Mon Feb 27 17:52:19 2023


#       File generated by GOLD software.
#

@<TRIPOS>MOLECULE
EN300-4287209_i001|acide_1|mol2|195|dock16
    16    16     1
SMALL
USER_CHARGES


@<TRIPOS>ATOM
      1 O1          -1.6863 -11.0795  10.5635 O.co2          1 <1>               -1.0000
      2 C2          -0.7267 -11.5802   9.9940 C.2            1 <1>                0.0000
      3 O3          -0.0306 -10.8988   9.2545 O.co2          1 <1>                0.0000
      4 C4          -0.4054 -13.0042  10.2039 C.ar           1 <1>                0.0000
      5 C5          -0.4083 -13.5396  11.4921 C.ar           1 <1>                0.0000
      6 C6          -0.1041 -14.8852  11.6807 C.ar           1 <1>                0.0000
      7 C7          -0.1055 -15.4425  12.9998 C.1            1 <1>                0.0000
      8 C8          -0.1066 -15.8995  14.0812 C.1            1 <1>                0.0000
      9 C9           0.2017 -15.6907  10.5814 C.ar           1 <1>                0.0000
     10 C10          0.2040 -15.1569   9.3083 C.ar           1 <1>                0.0000
     11 C11         -0.1023 -13.8239   9.1107 C.ar           1 <1>                0.0000
     12 Cl12        -0.0968 -13.1617   7.5060 Cl             1 <1>                0.0000
     13 H13         -0.6450 -12.9131  12.3394 H              1 <1>                0.0000
     14 H14         -0.1077 -16.3082  15.0483 H              1 <1>                0.0000
     15 H15          0.4376 -16.7344  10.7280 H              1 <1>                0.0000
     16 H16          0.4417 -15.7850   8.4625 H              1 <1>                0.0000
@<TRIPOS>BOND
    1    1    2 ar    
    2    2    3 ar    
    3    2    4 1     
    4    4    5 ar    
    5    4   11 ar    
    6    5    6 ar    
    7    5   13 1     
    8    6    7 1     
    9    6    9 ar    
   10    7    8 3     
   11    8   14 1     
   12    9   10 ar    
   13    9   15 1     
   14   10   11 ar    
   15   10   16 1     
   16   11   12 1     
@<TRIPOS>SUBSTRUCTURE
      1 ****           1
@<TRIPOS>COMMENT
> <Gold.Version>
2022.2.0

> <Gold.Id.Protein>
3pbl|protein|mol2

> <Gold.Protein.RotatedTorsions>
[ 1303 1298 1297 1294 ] final  -19.85 input  179.99 | X-H torsion
[ 2461 2456 2455 2452 ] final -138.33 input   30.03 | X-H torsion
[ 2515 2510 2509 2506 ] final -149.64 input  -89.99 | X-H torsion
[ 3721 3712 3711 3710 ] final   -9.15 input -179.91 | X-H torsion
[ 3841 3832 3831 3830 ] final  132.42 input -179.91 | X-H torsion
[ 3767 3762 3761 3758 ] final  100.45 input  -89.99 | X-H torsion
[ 2472 2467 2466 2463 ] final   60.68 input  -89.97 | X-H torsion

> <Gold.Protein.ActiveResidues>
 VAL82   VAL86   LEU89   PHE106  VAL107  ASP110  VAL111  MET112  CYS114  THR115 
 CYS181  SER182  ILE183  PHE188  VAL189  ILE190  SER192  SER193  SER196  TRP342 
 PHE345  PHE346  HIS349  VAL350  TYR365  THR369  GLY372  TYR373 

> <Gold.Protein.RotatedAtoms>
    3.3299   -9.5893    3.8984 H   0  0  0  0  0  0  0  0  0  0  0  0  # atno 1303 bound_to 1298
    0.8058   -9.2646    8.2236 H   0  0  0  0  0  0  0  0  0  0  0  0  # atno 2461 bound_to 2456
   -4.6542   -4.8212    7.6598 H   0  0  0  0  0  0  0  0  0  0  0  0  # atno 2472 bound_to 2467
    2.5351   -9.2432    5.4468 H   0  0  0  0  0  0  0  0  0  0  0  0  # atno 2515 bound_to 2510
   -2.5114  -17.8951   14.3637 H   0  0  0  0  0  0  0  0  0  0  0  0  # atno 3721 bound_to 3712
   -4.0899  -23.3010   10.6360 H   0  0  0  0  0  0  0  0  0  0  0  0  # atno 3767 bound_to 3762
    3.1246  -20.6034    8.8036 H   0  0  0  0  0  0  0  0  0  0  0  0  # atno 3841 bound_to 3832
    4.4927   -8.5108    4.2872 LP  0  0  0  0  0  0  0  0  0  0  0  0  # atno 4297 bound_to 1298
    4.5399  -10.0212    4.9062 LP  0  0  0  0  0  0  0  0  0  0  0  0  # atno 4298 bound_to 1298
    2.1610   -8.4283    7.8612 LP  0  0  0  0  0  0  0  0  0  0  0  0  # atno 4299 bound_to 2456
    0.7709   -8.1155    7.0635 LP  0  0  0  0  0  0  0  0  0  0  0  0  # atno 4300 bound_to 2456
    2.0427   -7.7381    5.8441 LP  0  0  0  0  0  0  0  0  0  0  0  0  # atno 4301 bound_to 2510
    2.7189   -8.0174    4.3842 LP  0  0  0  0  0  0  0  0  0  0  0  0  # atno 4302 bound_to 2510
   -3.4889  -16.6220   14.3235 LP  0  0  0  0  0  0  0  0  0  0  0  0  # atno 4306 bound_to 3712
   -3.1394  -17.4441   12.9565 LP  0  0  0  0  0  0  0  0  0  0  0  0  # atno 4307 bound_to 3712
    1.6999  -20.7703    9.5235 LP  0  0  0  0  0  0  0  0  0  0  0  0  # atno 4314 bound_to 3832
    1.9201  -19.6350    8.3706 LP  0  0  0  0  0  0  0  0  0  0  0  0  # atno 4315 bound_to 3832
   -5.4606  -22.4762   10.3075 LP  0  0  0  0  0  0  0  0  0  0  0  0  # atno 4318 bound_to 3762
   -4.5766  -22.0981   11.6275 LP  0  0  0  0  0  0  0  0  0  0  0  0  # atno 4319 bound_to 3762
   -3.7223   -5.1832    8.9508 LP  0  0  0  0  0  0  0  0  0  0  0  0  # atno 4320 bound_to 2467
   -5.3404   -5.3891    9.0284 LP  0  0  0  0  0  0  0  0  0  0  0  0  # atno 4321 bound_to 2467

> <Gold.Score>
     Score     S(PLP)   S(hbond)     S(cho)   S(metal)  DE(clash)   DE(tors)     intcor
     34.99     -33.55       0.99       0.00       0.00       0.00       0.77       0.00

> <Gold.PLP.Fitness>
34.9902

> <Gold.PLP.PLP>
-33.5518

> <Gold.PLP.part.hbond>
-1.0000

> <Gold.PLP.part.metal>
0.0000

> <Gold.PLP.part.buried>
-3.5052

> <Gold.PLP.part.nonpolar>
-29.8376

> <Gold.PLP.part.repulsive>
0.0193

> <Gold.PLP.ligand.clash>
0.0000

> <Gold.PLP.ligand.torsion>
0.7677

> <Gold.PLP.Chemscore.Hbond>
0.9913

> <Gold.PLP.Chemscore.CHOScore>
0.0000

> <Gold.PLP.Chemscore.Metal>
0.0000

> <Gold.Chemscore.Hbonds>
donor molecule, donor type, donor heavy atom, donor atom, acceptor molecule, acceptor atom, score
      P1  H  2456  2461       L1     3  0.99

> <Gold.PLP.Chemscore.Internal.Correction>
0.0000

