#       Name:                EN300-4287209_i001
#       Creating user name   fsindt
#       Creation time:       Mon Feb 27 17:52:16 2023


#       File generated by GOLD software.
#

@<TRIPOS>MOLECULE
EN300-4287209_i001|acide_1|mol2|195|dock7
    16    16     1
SMALL
USER_CHARGES


@<TRIPOS>ATOM
      1 O1          -0.7247 -10.5575   9.5326 O.co2          1 <1>               -1.0000
      2 C2          -0.1399 -11.3060   8.7622 C.2            1 <1>                0.0000
      3 O3           0.2754 -10.8808   7.6934 O.co2          1 <1>                0.0000
      4 C4           0.0698 -12.7201   9.1248 C.ar           1 <1>                0.0000
      5 C5          -0.2919 -13.1786  10.3917 C.ar           1 <1>                0.0000
      6 C6          -0.0906 -14.5153  10.7251 C.ar           1 <1>                0.0000
      7 C7          -0.4597 -14.9938  12.0233 C.1            1 <1>                0.0000
      8 C8          -0.7623 -15.3862  13.0877 C.1            1 <1>                0.0000
      9 C9           0.4713 -15.3890   9.7914 C.ar           1 <1>                0.0000
     10 C10          0.8283 -14.9311   8.5389 C.ar           1 <1>                0.0000
     11 C11          0.6270 -13.6074   8.1970 C.ar           1 <1>                0.0000
     12 Cl12         1.0793 -13.0411   6.6194 Cl             1 <1>                0.0000
     13 H13         -0.7257 -12.4996  11.1108 H              1 <1>                0.0000
     14 H14         -1.0329 -15.7372  14.0395 H              1 <1>                0.0000
     15 H15          0.6273 -16.4258  10.0503 H              1 <1>                0.0000
     16 H16          1.2627 -15.6116   7.8215 H              1 <1>                0.0000
@<TRIPOS>BOND
    1    1    2 ar    
    2    2    3 ar    
    3    2    4 1     
    4    4    5 ar    
    5    4   11 ar    
    6    5    6 ar    
    7    5   13 1     
    8    6    7 1     
    9    6    9 ar    
   10    7    8 3     
   11    8   14 1     
   12    9   10 ar    
   13    9   15 1     
   14   10   11 ar    
   15   10   16 1     
   16   11   12 1     
@<TRIPOS>SUBSTRUCTURE
      1 ****           1
@<TRIPOS>COMMENT
> <Gold.Version>
2022.2.0

> <Gold.Id.Protein>
3pbl|protein|mol2

> <Gold.Protein.RotatedTorsions>
[ 1303 1298 1297 1294 ] final  152.39 input  179.99 | X-H torsion
[ 2461 2456 2455 2452 ] final -130.33 input   30.03 | X-H torsion
[ 2515 2510 2509 2506 ] final -126.71 input  -89.99 | X-H torsion
[ 3721 3712 3711 3710 ] final  102.73 input -179.91 | X-H torsion
[ 3841 3832 3831 3830 ] final    1.46 input -179.91 | X-H torsion
[ 3767 3762 3761 3758 ] final   -2.82 input  -89.99 | X-H torsion
[ 2472 2467 2466 2463 ] final  123.76 input  -89.97 | X-H torsion

> <Gold.Protein.ActiveResidues>
 VAL82   VAL86   LEU89   PHE106  VAL107  ASP110  VAL111  MET112  CYS114  THR115 
 CYS181  SER182  ILE183  PHE188  VAL189  ILE190  SER192  SER193  SER196  TRP342 
 PHE345  PHE346  HIS349  VAL350  TYR365  THR369  GLY372  TYR373 

> <Gold.Protein.RotatedAtoms>
    4.9076   -9.2778    4.8739 H   0  0  0  0  0  0  0  0  0  0  0  0  # atno 1303 bound_to 1298
    0.6983   -9.2330    8.1545 H   0  0  0  0  0  0  0  0  0  0  0  0  # atno 2461 bound_to 2456
   -5.4423   -5.0971    8.1847 H   0  0  0  0  0  0  0  0  0  0  0  0  # atno 2472 bound_to 2467
    2.6790   -9.2341    5.1010 H   0  0  0  0  0  0  0  0  0  0  0  0  # atno 2515 bound_to 2510
   -2.8788  -17.4582   13.0468 H   0  0  0  0  0  0  0  0  0  0  0  0  # atno 3721 bound_to 3712
   -5.3478  -22.6819   10.1656 H   0  0  0  0  0  0  0  0  0  0  0  0  # atno 3767 bound_to 3762
    1.7496  -20.5034    9.5654 H   0  0  0  0  0  0  0  0  0  0  0  0  # atno 3841 bound_to 3832
    3.6580  -10.1953    4.3609 LP  0  0  0  0  0  0  0  0  0  0  0  0  # atno 4297 bound_to 1298
    3.7962   -8.6483    3.8566 LP  0  0  0  0  0  0  0  0  0  0  0  0  # atno 4298 bound_to 1298
    2.1549   -8.5224    7.9530 LP  0  0  0  0  0  0  0  0  0  0  0  0  # atno 4299 bound_to 2456
    0.8844   -8.0530    7.0407 LP  0  0  0  0  0  0  0  0  0  0  0  0  # atno 4300 bound_to 2456
    2.0321   -8.0610    6.0343 LP  0  0  0  0  0  0  0  0  0  0  0  0  # atno 4301 bound_to 2510
    2.5855   -7.7036    4.5401 LP  0  0  0  0  0  0  0  0  0  0  0  0  # atno 4302 bound_to 2510
   -2.6932  -17.9746   14.5557 LP  0  0  0  0  0  0  0  0  0  0  0  0  # atno 4306 bound_to 3712
   -3.5109  -16.5958   14.2446 LP  0  0  0  0  0  0  0  0  0  0  0  0  # atno 4307 bound_to 3712
    2.1226  -19.6497    8.2584 LP  0  0  0  0  0  0  0  0  0  0  0  0  # atno 4314 bound_to 3832
    3.0857  -20.8711    8.7557 LP  0  0  0  0  0  0  0  0  0  0  0  0  # atno 4315 bound_to 3832
   -4.8100  -21.9832   11.5402 LP  0  0  0  0  0  0  0  0  0  0  0  0  # atno 4318 bound_to 3762
   -3.9698  -23.2100   10.8650 LP  0  0  0  0  0  0  0  0  0  0  0  0  # atno 4319 bound_to 3762
   -3.8343   -4.8619    8.0252 LP  0  0  0  0  0  0  0  0  0  0  0  0  # atno 4320 bound_to 2467
   -4.4405   -5.4346    9.4292 LP  0  0  0  0  0  0  0  0  0  0  0  0  # atno 4321 bound_to 2467

> <Gold.Score>
     Score     S(PLP)   S(hbond)     S(cho)   S(metal)  DE(clash)   DE(tors)     intcor
     36.77     -33.83       0.99       0.00       0.00       0.00       0.02       0.00

> <Gold.PLP.Fitness>
36.7710

> <Gold.PLP.PLP>
-33.8265

> <Gold.PLP.part.hbond>
-1.3471

> <Gold.PLP.part.metal>
0.0000

> <Gold.PLP.part.buried>
-1.7926

> <Gold.PLP.part.nonpolar>
-31.1551

> <Gold.PLP.part.repulsive>
0.0308

> <Gold.PLP.ligand.clash>
0.0000

> <Gold.PLP.ligand.torsion>
0.0157

> <Gold.PLP.Chemscore.Hbond>
0.9920

> <Gold.PLP.Chemscore.CHOScore>
0.0000

> <Gold.PLP.Chemscore.Metal>
0.0000

> <Gold.Chemscore.Hbonds>
donor molecule, donor type, donor heavy atom, donor atom, acceptor molecule, acceptor atom, score
      P1  H  2456  2461       L1     3  0.99

> <Gold.PLP.Chemscore.Internal.Correction>
0.0000

