#       Name:                EN300-93482_i002
#       Creating user name   aseyller
#       Creation time:       Fri Apr 21 17:00:32 2023


#       File generated by GOLD software.
#

@<TRIPOS>MOLECULE
EN300-93482_i002|Sulfonylchlorides|mol2|138|dock20
    21    21     1
SMALL
USER_CHARGES


@<TRIPOS>ATOM
      1 C1          29.1091  37.8849  37.7920 C.3            1 <1>                0.0000
      2 C2          30.5230  37.4175  38.1428 C.3            1 <1>                0.0000
      3 C3          30.4773  35.9727  38.6532 C.3            1 <1>                0.0000
      4 O4          31.8125  35.4834  38.8011 O.3            1 <1>                0.0000
      5 C5          32.5535  35.4258  37.5798 C.3            1 <1>                0.0000
      6 C6          32.7054  36.8427  37.0145 C.3            1 <1>                0.0000
      7 N7          31.3710  37.4585  36.9408 N.pl3          1 <1>                0.0000
      8 S8          30.8392  38.1762  35.5465 S.o2           1 <1>                0.0000
      9 O9          29.8743  37.2968  34.9853 O.2            1 <1>                0.0000
     10 O10         30.5593  39.5304  35.8737 O.2            1 <1>                0.0000
     11 Cl11        32.3962  38.2104  34.2600 Cl             1 <1>                0.0000
     12 H12         28.5168  37.9666  38.7034 H              1 <1>                0.0000
     13 H13         29.1589  38.8577  37.3027 H              1 <1>                0.0000
     14 H14         28.6440  37.1635  37.1201 H              1 <1>                0.0000
     15 H15         30.9437  38.0653  38.9119 H              1 <1>                0.0000
     16 H16         29.9698  35.9430  39.6173 H              1 <1>                0.0000
     17 H17         29.9388  35.3508  37.9380 H              1 <1>                0.0000
     18 H18         33.5395  35.0028  37.7719 H              1 <1>                0.0000
     19 H19         32.0224  34.8020  36.8608 H              1 <1>                0.0000
     20 H20         33.3464  37.4325  37.6697 H              1 <1>                0.0000
     21 H21         33.1433  36.7950  36.0174 H              1 <1>                0.0000
@<TRIPOS>BOND
    1    1    2 1     
    2    1   12 1     
    3    1   13 1     
    4    1   14 1     
    5    2    3 1     
    6    2    7 1     
    7    2   15 1     
    8    3    4 1     
    9    3   16 1     
   10    3   17 1     
   11    4    5 1     
   12    5    6 1     
   13    5   18 1     
   14    5   19 1     
   15    6    7 1     
   16    6   20 1     
   17    6   21 1     
   18    7    8 1     
   19    8    9 2     
   20    8   10 2     
   21    8   11 1     
@<TRIPOS>SUBSTRUCTURE
      1 ****           1
@<TRIPOS>COMMENT
> <Gold.Version>
2022.2.0

> <Gold.Id.Protein>
1qkm|1qkm_protein|mol2

> <Gold.Protein.RotatedTorsions>
[  496  491  490  487 ] final   52.22 input  -89.99 | X-H torsion

> <Gold.Protein.ActiveResidues>
 MET295  LEU298  THR299  LEU301  ALA302  GLU305  TRP335  MET336  LEU339  MET340 
 GLY342  LEU343  ARG346  PHE356  ILE373  ILE376  PHE377  LEU380  LYS471  GLY472 
 MET473  HIS475  LEU476  LEU477  ASN478  MET479  VAL484  VAL487 

> <Gold.Protein.RotatedAtoms>
   36.4895   33.4233   42.3444 H   0  0  0  0  0  0  0  0  0  0  0  0  # atno 496  bound_to 491 

> <Gold.Score>
     Score     S(PLP)   S(hbond)     S(cho)   S(metal)  DE(clash)   DE(tors)     intcor
     29.74     -29.78       0.00       0.00       0.00       0.00       1.26       2.48

> <Gold.PLP.Fitness>
29.7416

> <Gold.PLP.PLP>
-29.7765

> <Gold.PLP.part.hbond>
0.0000

> <Gold.PLP.part.metal>
0.0000

> <Gold.PLP.part.buried>
-1.7317

> <Gold.PLP.part.nonpolar>
-28.3522

> <Gold.PLP.part.repulsive>
0.1337

> <Gold.PLP.ligand.clash>
0.0000

> <Gold.PLP.ligand.torsion>
1.2564

> <Gold.PLP.Chemscore.Hbond>
0.0000

> <Gold.PLP.Chemscore.CHOScore>
0.0000

> <Gold.PLP.Chemscore.Metal>
0.0000

> <Gold.PLP.Chemscore.Internal.Correction>
2.4779

