#       Name:                EN300-93482_i002
#       Creating user name   aseyller
#       Creation time:       Fri Apr 21 17:00:30 2023


#       File generated by GOLD software.
#

@<TRIPOS>MOLECULE
EN300-93482_i002|Sulfonylchlorides|mol2|138|dock14
    21    21     1
SMALL
USER_CHARGES


@<TRIPOS>ATOM
      1 C1          32.1381  36.0576  36.2222 C.3            1 <1>                0.0000
      2 C2          30.9047  36.0230  37.1267 C.3            1 <1>                0.0000
      3 C3          31.3224  35.6567  38.5555 C.3            1 <1>                0.0000
      4 O4          30.1996  35.8080  39.4274 O.3            1 <1>                0.0000
      5 C5          29.7016  37.1453  39.5141 C.3            1 <1>                0.0000
      6 C6          29.2010  37.5877  38.1343 C.3            1 <1>                0.0000
      7 N7          30.2727  37.3517  37.1541 N.pl3          1 <1>                0.0000
      8 S8          30.7538  38.5460  36.1128 S.o2           1 <1>                0.0000
      9 O9          32.1196  38.8073  36.4053 O.2            1 <1>                0.0000
     10 O10         30.2944  38.1635  34.8237 O.2            1 <1>                0.0000
     11 Cl11        29.7344  40.2181  36.6086 Cl             1 <1>                0.0000
     12 H12         32.5345  35.0485  36.1094 H              1 <1>                0.0000
     13 H13         31.8605  36.4502  35.2440 H              1 <1>                0.0000
     14 H14         32.8983  36.6987  36.6686 H              1 <1>                0.0000
     15 H15         30.1948  35.2859  36.7514 H              1 <1>                0.0000
     16 H16         31.6661  34.6227  38.5806 H              1 <1>                0.0000
     17 H17         32.1269  36.3167  38.8801 H              1 <1>                0.0000
     18 H18         28.8794  37.1820  40.2288 H              1 <1>                0.0000
     19 H19         30.5003  37.8106  39.8421 H              1 <1>                0.0000
     20 H20         28.3191  37.0085  37.8608 H              1 <1>                0.0000
     21 H21         28.9515  38.6486  38.1572 H              1 <1>                0.0000
@<TRIPOS>BOND
    1    1    2 1     
    2    1   12 1     
    3    1   13 1     
    4    1   14 1     
    5    2    3 1     
    6    2    7 1     
    7    2   15 1     
    8    3    4 1     
    9    3   16 1     
   10    3   17 1     
   11    4    5 1     
   12    5    6 1     
   13    5   18 1     
   14    5   19 1     
   15    6    7 1     
   16    6   20 1     
   17    6   21 1     
   18    7    8 1     
   19    8    9 2     
   20    8   10 2     
   21    8   11 1     
@<TRIPOS>SUBSTRUCTURE
      1 ****           1
@<TRIPOS>COMMENT
> <Gold.Version>
2022.2.0

> <Gold.Id.Protein>
1qkm|1qkm_protein|mol2

> <Gold.Protein.RotatedTorsions>
[  496  491  490  487 ] final   88.34 input  -89.99 | X-H torsion

> <Gold.Protein.ActiveResidues>
 MET295  LEU298  THR299  LEU301  ALA302  GLU305  TRP335  MET336  LEU339  MET340 
 GLY342  LEU343  ARG346  PHE356  ILE373  ILE376  PHE377  LEU380  LYS471  GLY472 
 MET473  HIS475  LEU476  LEU477  ASN478  MET479  VAL484  VAL487 

> <Gold.Protein.RotatedAtoms>
   36.8049   33.0332   42.0439 H   0  0  0  0  0  0  0  0  0  0  0  0  # atno 496  bound_to 491 

> <Gold.Score>
     Score     S(PLP)   S(hbond)     S(cho)   S(metal)  DE(clash)   DE(tors)     intcor
     27.75     -27.79       0.00       0.00       0.00       0.00       1.26       2.48

> <Gold.PLP.Fitness>
27.7540

> <Gold.PLP.PLP>
-27.7942

> <Gold.PLP.part.hbond>
0.0000

> <Gold.PLP.part.metal>
0.0000

> <Gold.PLP.part.buried>
-1.2688

> <Gold.PLP.part.nonpolar>
-26.5490

> <Gold.PLP.part.repulsive>
0.1261

> <Gold.PLP.ligand.clash>
0.0000

> <Gold.PLP.ligand.torsion>
1.2590

> <Gold.PLP.Chemscore.Hbond>
0.0000

> <Gold.PLP.Chemscore.CHOScore>
0.0000

> <Gold.PLP.Chemscore.Metal>
0.0000

> <Gold.PLP.Chemscore.Internal.Correction>
2.4779

