#       Name:                EN300-93482_i002
#       Creating user name   aseyller
#       Creation time:       Fri Apr 21 17:00:29 2023


#       File generated by GOLD software.
#

@<TRIPOS>MOLECULE
EN300-93482_i002|Sulfonylchlorides|mol2|138|dock9
    21    21     1
SMALL
USER_CHARGES


@<TRIPOS>ATOM
      1 C1          28.7060  37.9904  37.6000 C.3            1 <1>                0.0000
      2 C2          29.6516  37.1747  38.4839 C.3            1 <1>                0.0000
      3 C3          28.9385  35.9085  38.9719 C.3            1 <1>                0.0000
      4 O4          29.8808  35.0651  39.6388 O.3            1 <1>                0.0000
      5 C5          30.9426  34.5983  38.8031 C.3            1 <1>                0.0000
      6 C6          31.7583  35.7975  38.3064 C.3            1 <1>                0.0000
      7 N7          30.8332  36.7710  37.7051 N.pl3          1 <1>                0.0000
      8 S8          31.1131  37.3937  36.1964 S.o2           1 <1>                0.0000
      9 O9          32.4569  37.0664  35.8702 O.2            1 <1>                0.0000
     10 O10         30.0039  37.0140  35.3934 O.2            1 <1>                0.0000
     11 Cl11        31.0389  39.4060  36.3566 Cl             1 <1>                0.0000
     12 H12         27.8925  38.3872  38.2076 H              1 <1>                0.0000
     13 H13         29.2548  38.8148  37.1447 H              1 <1>                0.0000
     14 H14         28.2968  37.3505  36.8182 H              1 <1>                0.0000
     15 H15         29.9626  37.7739  39.3397 H              1 <1>                0.0000
     16 H16         28.1421  36.1828  39.6636 H              1 <1>                0.0000
     17 H17         28.5146  35.3779  38.1193 H              1 <1>                0.0000
     18 H18         31.5879  33.9301  39.3734 H              1 <1>                0.0000
     19 H19         30.5259  34.0630  37.9499 H              1 <1>                0.0000
     20 H20         32.2819  36.2576  39.1443 H              1 <1>                0.0000
     21 H21         32.4797  35.4666  37.5591 H              1 <1>                0.0000
@<TRIPOS>BOND
    1    1    2 1     
    2    1   12 1     
    3    1   13 1     
    4    1   14 1     
    5    2    3 1     
    6    2    7 1     
    7    2   15 1     
    8    3    4 1     
    9    3   16 1     
   10    3   17 1     
   11    4    5 1     
   12    5    6 1     
   13    5   18 1     
   14    5   19 1     
   15    6    7 1     
   16    6   20 1     
   17    6   21 1     
   18    7    8 1     
   19    8    9 2     
   20    8   10 2     
   21    8   11 1     
@<TRIPOS>SUBSTRUCTURE
      1 ****           1
@<TRIPOS>COMMENT
> <Gold.Version>
2022.2.0

> <Gold.Id.Protein>
1qkm|1qkm_protein|mol2

> <Gold.Protein.RotatedTorsions>
[  496  491  490  487 ] final  138.45 input  -89.99 | X-H torsion

> <Gold.Protein.ActiveResidues>
 MET295  LEU298  THR299  LEU301  ALA302  GLU305  TRP335  MET336  LEU339  MET340 
 GLY342  LEU343  ARG346  PHE356  ILE373  ILE376  PHE377  LEU380  LYS471  GLY472 
 MET473  HIS475  LEU476  LEU477  ASN478  MET479  VAL484  VAL487 

> <Gold.Protein.RotatedAtoms>
   37.2056   33.0152   41.3530 H   0  0  0  0  0  0  0  0  0  0  0  0  # atno 496  bound_to 491 

> <Gold.Score>
     Score     S(PLP)   S(hbond)     S(cho)   S(metal)  DE(clash)   DE(tors)     intcor
     28.38     -28.49       0.00       0.00       0.00       0.41       1.09       2.48

> <Gold.PLP.Fitness>
28.3764

> <Gold.PLP.PLP>
-28.4862

> <Gold.PLP.part.hbond>
0.0000

> <Gold.PLP.part.metal>
0.0000

> <Gold.PLP.part.buried>
-1.9368

> <Gold.PLP.part.nonpolar>
-27.5572

> <Gold.PLP.part.repulsive>
0.2792

> <Gold.PLP.ligand.clash>
0.4084

> <Gold.PLP.ligand.torsion>
1.0897

> <Gold.PLP.Chemscore.Hbond>
0.0000

> <Gold.PLP.Chemscore.CHOScore>
0.0000

> <Gold.PLP.Chemscore.Metal>
0.0000

> <Gold.PLP.Chemscore.Internal.Correction>
2.4779

