#       Name:                EN300-93482_i002
#       Creating user name   aseyller
#       Creation time:       Fri Apr 21 17:00:28 2023


#       File generated by GOLD software.
#

@<TRIPOS>MOLECULE
EN300-93482_i002|Sulfonylchlorides|mol2|138|dock8
    21    21     1
SMALL
USER_CHARGES


@<TRIPOS>ATOM
      1 C1          30.6962  38.6300  36.6958 C.3            1 <1>                0.0000
      2 C2          29.9890  38.0242  37.9097 C.3            1 <1>                0.0000
      3 C3          28.4855  37.9165  37.6307 C.3            1 <1>                0.0000
      4 O4          27.8620  37.1832  38.6878 O.3            1 <1>                0.0000
      5 C5          28.3174  35.8337  38.8119 C.3            1 <1>                0.0000
      6 C6          29.8124  35.8349  39.1514 C.3            1 <1>                0.0000
      7 N7          30.5118  36.6724  38.1642 N.pl3          1 <1>                0.0000
      8 S8          31.8476  36.1102  37.3631 S.o2           1 <1>                0.0000
      9 O9          31.5127  36.1004  35.9821 O.2            1 <1>                0.0000
     10 O10         32.9596  36.8223  37.8881 O.2            1 <1>                0.0000
     11 Cl11        32.1001  34.1799  37.9025 Cl             1 <1>                0.0000
     12 H12         30.3941  39.6711  36.5813 H              1 <1>                0.0000
     13 H13         31.7753  38.5789  36.8410 H              1 <1>                0.0000
     14 H14         30.4232  38.0720  35.8002 H              1 <1>                0.0000
     15 H15         30.1560  38.6536  38.7838 H              1 <1>                0.0000
     16 H16         28.0529  38.9154  37.5761 H              1 <1>                0.0000
     17 H17         28.3270  37.3979  36.6851 H              1 <1>                0.0000
     18 H18         27.7638  35.3344  39.6071 H              1 <1>                0.0000
     19 H19         28.1583  35.3077  37.8706 H              1 <1>                0.0000
     20 H20         29.9615  36.2432  40.1509 H              1 <1>                0.0000
     21 H21         30.1992  34.8166  39.1088 H              1 <1>                0.0000
@<TRIPOS>BOND
    1    1    2 1     
    2    1   12 1     
    3    1   13 1     
    4    1   14 1     
    5    2    3 1     
    6    2    7 1     
    7    2   15 1     
    8    3    4 1     
    9    3   16 1     
   10    3   17 1     
   11    4    5 1     
   12    5    6 1     
   13    5   18 1     
   14    5   19 1     
   15    6    7 1     
   16    6   20 1     
   17    6   21 1     
   18    7    8 1     
   19    8    9 2     
   20    8   10 2     
   21    8   11 1     
@<TRIPOS>SUBSTRUCTURE
      1 ****           1
@<TRIPOS>COMMENT
> <Gold.Version>
2022.2.0

> <Gold.Id.Protein>
1qkm|1qkm_protein|mol2

> <Gold.Protein.RotatedTorsions>
[  496  491  490  487 ] final  -30.10 input  -89.99 | X-H torsion

> <Gold.Protein.ActiveResidues>
 MET295  LEU298  THR299  LEU301  ALA302  GLU305  TRP335  MET336  LEU339  MET340 
 GLY342  LEU343  ARG346  PHE356  ILE373  ILE376  PHE377  LEU380  LYS471  GLY472 
 MET473  HIS475  LEU476  LEU477  ASN478  MET479  VAL484  VAL487 

> <Gold.Protein.RotatedAtoms>
   36.3153   34.5720   41.9068 H   0  0  0  0  0  0  0  0  0  0  0  0  # atno 496  bound_to 491 

> <Gold.Score>
     Score     S(PLP)   S(hbond)     S(cho)   S(metal)  DE(clash)   DE(tors)     intcor
     29.27     -29.31       0.00       0.00       0.00       0.00       1.26       2.48

> <Gold.PLP.Fitness>
29.2737

> <Gold.PLP.PLP>
-29.3136

> <Gold.PLP.part.hbond>
0.0000

> <Gold.PLP.part.metal>
0.0000

> <Gold.PLP.part.buried>
-1.0834

> <Gold.PLP.part.nonpolar>
-28.1135

> <Gold.PLP.part.repulsive>
0.0677

> <Gold.PLP.ligand.clash>
0.0000

> <Gold.PLP.ligand.torsion>
1.2589

> <Gold.PLP.Chemscore.Hbond>
0.0000

> <Gold.PLP.Chemscore.CHOScore>
0.0000

> <Gold.PLP.Chemscore.Metal>
0.0000

> <Gold.PLP.Chemscore.Internal.Correction>
2.4779

