#       Name:                EN300-93482_i002
#       Creating user name   aseyller
#       Creation time:       Fri Apr 21 17:00:31 2023


#       File generated by GOLD software.
#

@<TRIPOS>MOLECULE
EN300-93482_i002|Sulfonylchlorides|mol2|138|dock17
    21    21     1
SMALL
USER_CHARGES


@<TRIPOS>ATOM
      1 C1          26.7984  36.0719  39.5055 C.3            1 <1>                0.0000
      2 C2          27.1501  36.7882  38.2002 C.3            1 <1>                0.0000
      3 C3          26.5655  38.2052  38.2151 C.3            1 <1>                0.0000
      4 O4          27.0527  38.9272  37.0814 O.3            1 <1>                0.0000
      5 C5          28.4708  39.1073  37.0672 C.3            1 <1>                0.0000
      6 C6          29.1529  37.7364  36.9935 C.3            1 <1>                0.0000
      7 N7          28.6123  36.8906  38.0694 N.pl3          1 <1>                0.0000
      8 S8          29.6194  36.0784  39.1029 S.o2           1 <1>                0.0000
      9 O9          29.7002  36.8637  40.2844 O.2            1 <1>                0.0000
     10 O10         29.1914  34.7234  39.0980 O.2            1 <1>                0.0000
     11 Cl11        31.4635  36.0970  38.2786 Cl             1 <1>                0.0000
     12 H12         25.7239  35.8923  39.5434 H              1 <1>                0.0000
     13 H13         27.3276  35.1202  39.5518 H              1 <1>                0.0000
     14 H14         27.0929  36.6930  40.3516 H              1 <1>                0.0000
     15 H15         26.7435  36.2322  37.3553 H              1 <1>                0.0000
     16 H16         25.4778  38.1509  38.1722 H              1 <1>                0.0000
     17 H17         26.8697  38.7149  39.1294 H              1 <1>                0.0000
     18 H18         28.7536  39.7019  36.1985 H              1 <1>                0.0000
     19 H19         28.7818  39.6202  37.9774 H              1 <1>                0.0000
     20 H20         28.9485  37.2762  36.0268 H              1 <1>                0.0000
     21 H21         30.2286  37.8541  37.1245 H              1 <1>                0.0000
@<TRIPOS>BOND
    1    1    2 1     
    2    1   12 1     
    3    1   13 1     
    4    1   14 1     
    5    2    3 1     
    6    2    7 1     
    7    2   15 1     
    8    3    4 1     
    9    3   16 1     
   10    3   17 1     
   11    4    5 1     
   12    5    6 1     
   13    5   18 1     
   14    5   19 1     
   15    6    7 1     
   16    6   20 1     
   17    6   21 1     
   18    7    8 1     
   19    8    9 2     
   20    8   10 2     
   21    8   11 1     
@<TRIPOS>SUBSTRUCTURE
      1 ****           1
@<TRIPOS>COMMENT
> <Gold.Version>
2022.2.0

> <Gold.Id.Protein>
1qkm|1qkm_protein|mol2

> <Gold.Protein.RotatedTorsions>
[  496  491  490  487 ] final   -1.49 input  -89.99 | X-H torsion

> <Gold.Protein.ActiveResidues>
 MET295  LEU298  THR299  LEU301  ALA302  GLU305  TRP335  MET336  LEU339  MET340 
 GLY342  LEU343  ARG346  PHE356  ILE373  ILE376  PHE377  LEU380  LYS471  GLY472 
 MET473  HIS475  LEU476  LEU477  ASN478  MET479  VAL484  VAL487 

> <Gold.Protein.RotatedAtoms>
   36.2591   34.2347   42.2235 H   0  0  0  0  0  0  0  0  0  0  0  0  # atno 496  bound_to 491 

> <Gold.Score>
     Score     S(PLP)   S(hbond)     S(cho)   S(metal)  DE(clash)   DE(tors)     intcor
     29.63     -29.64       0.00       0.00       0.00       0.00       1.24       2.48

> <Gold.PLP.Fitness>
29.6322

> <Gold.PLP.PLP>
-29.6401

> <Gold.PLP.part.hbond>
0.0000

> <Gold.PLP.part.metal>
0.0000

> <Gold.PLP.part.buried>
-2.2540

> <Gold.PLP.part.nonpolar>
-28.3011

> <Gold.PLP.part.repulsive>
0.1442

> <Gold.PLP.ligand.clash>
0.0000

> <Gold.PLP.ligand.torsion>
1.2429

> <Gold.PLP.Chemscore.Hbond>
0.0000

> <Gold.PLP.Chemscore.CHOScore>
0.0000

> <Gold.PLP.Chemscore.Metal>
0.0000

> <Gold.PLP.Chemscore.Internal.Correction>
2.4779

