#       Name:                EN300-93482_i002
#       Creating user name   aseyller
#       Creation time:       Fri Apr 21 17:00:26 2023


#       File generated by GOLD software.
#

@<TRIPOS>MOLECULE
EN300-93482_i002|Sulfonylchlorides|mol2|138|dock1
    21    21     1
SMALL
USER_CHARGES


@<TRIPOS>ATOM
      1 C1          29.1961  38.1689  37.4518 C.3            1 <1>                0.0000
      2 C2          30.1376  37.2899  38.2775 C.3            1 <1>                0.0000
      3 C3          29.3781  36.0624  38.7934 C.3            1 <1>                0.0000
      4 O4          30.3031  35.1583  39.4024 O.3            1 <1>                0.0000
      5 C5          31.2898  34.6393  38.5075 C.3            1 <1>                0.0000
      6 C6          32.1472  35.7941  37.9771 C.3            1 <1>                0.0000
      7 N7          31.2504  36.8264  37.4335 N.pl3          1 <1>                0.0000
      8 S8          31.4862  37.4478  35.9168 S.o2           1 <1>                0.0000
      9 O9          30.3938  37.0005  35.1256 O.2            1 <1>                0.0000
     10 O10         31.8087  38.8207  36.0913 O.2            1 <1>                0.0000
     11 Cl11        33.1380  36.5657  35.1592 Cl             1 <1>                0.0000
     12 H12         28.4408  38.6060  38.1050 H              1 <1>                0.0000
     13 H13         29.7676  38.9647  36.9740 H              1 <1>                0.0000
     14 H14         28.7091  37.5624  36.6882 H              1 <1>                0.0000
     15 H15         30.5282  37.8607  39.1201 H              1 <1>                0.0000
     16 H16         28.6370  36.3752  39.5288 H              1 <1>                0.0000
     17 H17         28.8791  35.5666  37.9606 H              1 <1>                0.0000
     18 H18         31.9240  33.9285  39.0374 H              1 <1>                0.0000
     19 H19         30.7977  34.1384  37.6738 H              1 <1>                0.0000
     20 H20         32.7406  36.2139  38.7893 H              1 <1>                0.0000
     21 H21         32.8072  35.4297  37.1898 H              1 <1>                0.0000
@<TRIPOS>BOND
    1    1    2 1     
    2    1   12 1     
    3    1   13 1     
    4    1   14 1     
    5    2    3 1     
    6    2    7 1     
    7    2   15 1     
    8    3    4 1     
    9    3   16 1     
   10    3   17 1     
   11    4    5 1     
   12    5    6 1     
   13    5   18 1     
   14    5   19 1     
   15    6    7 1     
   16    6   20 1     
   17    6   21 1     
   18    7    8 1     
   19    8    9 2     
   20    8   10 2     
   21    8   11 1     
@<TRIPOS>SUBSTRUCTURE
      1 ****           1
@<TRIPOS>COMMENT
> <Gold.Version>
2022.2.0

> <Gold.Id.Protein>
1qkm|1qkm_protein|mol2

> <Gold.Protein.RotatedTorsions>
[  496  491  490  487 ] final  -33.22 input  -89.99 | X-H torsion

> <Gold.Protein.ActiveResidues>
 MET295  LEU298  THR299  LEU301  ALA302  GLU305  TRP335  MET336  LEU339  MET340 
 GLY342  LEU343  ARG346  PHE356  ILE373  ILE376  PHE377  LEU380  LYS471  GLY472 
 MET473  HIS475  LEU476  LEU477  ASN478  MET479  VAL484  VAL487 

> <Gold.Protein.RotatedAtoms>
   36.3290   34.5991   41.8653 H   0  0  0  0  0  0  0  0  0  0  0  0  # atno 496  bound_to 491 

> <Gold.Score>
     Score     S(PLP)   S(hbond)     S(cho)   S(metal)  DE(clash)   DE(tors)     intcor
     31.60     -31.64       0.00       0.00       0.00       0.00       1.26       2.48

> <Gold.PLP.Fitness>
31.6012

> <Gold.PLP.PLP>
-31.6413

> <Gold.PLP.part.hbond>
0.0000

> <Gold.PLP.part.metal>
0.0000

> <Gold.PLP.part.buried>
-2.7984

> <Gold.PLP.part.nonpolar>
-29.3307

> <Gold.PLP.part.repulsive>
0.5176

> <Gold.PLP.ligand.clash>
0.0000

> <Gold.PLP.ligand.torsion>
1.2605

> <Gold.PLP.Chemscore.Hbond>
0.0000

> <Gold.PLP.Chemscore.CHOScore>
0.0000

> <Gold.PLP.Chemscore.Metal>
0.0000

> <Gold.PLP.Chemscore.Internal.Correction>
2.4809

