#       Name:                EN300-93482_i002
#       Creating user name   aseyller
#       Creation time:       Fri Apr 21 17:00:29 2023


#       File generated by GOLD software.
#

@<TRIPOS>MOLECULE
EN300-93482_i002|Sulfonylchlorides|mol2|138|dock11
    21    21     1
SMALL
USER_CHARGES


@<TRIPOS>ATOM
      1 C1          31.1529  35.2755  38.5577 C.3            1 <1>                0.0000
      2 C2          32.2013  36.0944  37.8020 C.3            1 <1>                0.0000
      3 C3          32.7621  35.2679  36.6391 C.3            1 <1>                0.0000
      4 O4          33.5985  36.0995  35.8311 O.3            1 <1>                0.0000
      5 C5          32.9161  37.1954  35.2168 C.3            1 <1>                0.0000
      6 C6          32.3632  38.1205  36.3070 C.3            1 <1>                0.0000
      7 N7          31.5788  37.3086  37.2508 N.pl3          1 <1>                0.0000
      8 S8          30.0409  37.7479  37.6797 S.o2           1 <1>                0.0000
      9 O9          29.1634  36.9965  36.8522 O.2            1 <1>                0.0000
     10 O10         29.9938  37.7095  39.0994 O.2            1 <1>                0.0000
     11 Cl11        29.8032  39.6837  37.1534 Cl             1 <1>                0.0000
     12 H12         31.6389  34.4410  39.0633 H              1 <1>                0.0000
     13 H13         30.6590  35.9088  39.2946 H              1 <1>                0.0000
     14 H14         30.4139  34.8930  37.8536 H              1 <1>                0.0000
     15 H15         33.0095  36.3706  38.4793 H              1 <1>                0.0000
     16 H16         33.3465  34.4361  37.0321 H              1 <1>                0.0000
     17 H17         31.9396  34.8833  36.0360 H              1 <1>                0.0000
     18 H18         33.6114  37.7500  34.5867 H              1 <1>                0.0000
     19 H19         32.0942  36.8176  34.6086 H              1 <1>                0.0000
     20 H20         33.1878  38.6012  36.8334 H              1 <1>                0.0000
     21 H21         31.7235  38.8787  35.8553 H              1 <1>                0.0000
@<TRIPOS>BOND
    1    1    2 1     
    2    1   12 1     
    3    1   13 1     
    4    1   14 1     
    5    2    3 1     
    6    2    7 1     
    7    2   15 1     
    8    3    4 1     
    9    3   16 1     
   10    3   17 1     
   11    4    5 1     
   12    5    6 1     
   13    5   18 1     
   14    5   19 1     
   15    6    7 1     
   16    6   20 1     
   17    6   21 1     
   18    7    8 1     
   19    8    9 2     
   20    8   10 2     
   21    8   11 1     
@<TRIPOS>SUBSTRUCTURE
      1 ****           1
@<TRIPOS>COMMENT
> <Gold.Version>
2022.2.0

> <Gold.Id.Protein>
1qkm|1qkm_protein|mol2

> <Gold.Protein.RotatedTorsions>
[  496  491  490  487 ] final   88.86 input  -89.99 | X-H torsion

> <Gold.Protein.ActiveResidues>
 MET295  LEU298  THR299  LEU301  ALA302  GLU305  TRP335  MET336  LEU339  MET340 
 GLY342  LEU343  ARG346  PHE356  ILE373  ILE376  PHE377  LEU380  LYS471  GLY472 
 MET473  HIS475  LEU476  LEU477  ASN478  MET479  VAL484  VAL487 

> <Gold.Protein.RotatedAtoms>
   36.8097   33.0296   42.0378 H   0  0  0  0  0  0  0  0  0  0  0  0  # atno 496  bound_to 491 

> <Gold.Score>
     Score     S(PLP)   S(hbond)     S(cho)   S(metal)  DE(clash)   DE(tors)     intcor
     31.11     -31.12       0.00       0.00       0.00       0.01       1.24       2.48

> <Gold.PLP.Fitness>
31.1107

> <Gold.PLP.PLP>
-31.1176

> <Gold.PLP.part.hbond>
0.0000

> <Gold.PLP.part.metal>
0.0000

> <Gold.PLP.part.buried>
-1.9204

> <Gold.PLP.part.nonpolar>
-29.0037

> <Gold.PLP.part.repulsive>
0.1030

> <Gold.PLP.ligand.clash>
0.0069

> <Gold.PLP.ligand.torsion>
1.2389

> <Gold.PLP.Chemscore.Hbond>
0.0000

> <Gold.PLP.Chemscore.CHOScore>
0.0000

> <Gold.PLP.Chemscore.Metal>
0.0000

> <Gold.PLP.Chemscore.Internal.Correction>
2.4779

