#       Name:                EN300-93482_i002
#       Creating user name   aseyller
#       Creation time:       Fri Apr 21 17:00:28 2023


#       File generated by GOLD software.
#

@<TRIPOS>MOLECULE
EN300-93482_i002|Sulfonylchlorides|mol2|138|dock6
    21    21     1
SMALL
USER_CHARGES


@<TRIPOS>ATOM
      1 C1          30.3516  36.3019  38.8101 C.3            1 <1>                0.0000
      2 C2          29.8855  36.9991  37.5305 C.3            1 <1>                0.0000
      3 C3          29.4120  38.4195  37.8597 C.3            1 <1>                0.0000
      4 O4          29.1555  39.1240  36.6424 O.3            1 <1>                0.0000
      5 C5          30.3064  39.2959  35.8119 C.3            1 <1>                0.0000
      6 C6          30.8256  37.9204  35.3779 C.3            1 <1>                0.0000
      7 N7          31.0054  37.0917  36.5804 N.pl3          1 <1>                0.0000
      8 S8          32.4263  36.2873  36.8567 S.o2           1 <1>                0.0000
      9 O9          33.0958  36.9983  37.8890 O.2            1 <1>                0.0000
     10 O10         32.0951  34.9086  36.9511 O.2            1 <1>                0.0000
     11 Cl11        33.5602  36.4891  35.1972 Cl             1 <1>                0.0000
     12 H12         29.4954  36.1288  39.4622 H              1 <1>                0.0000
     13 H13         30.8137  35.3478  38.5564 H              1 <1>                0.0000
     14 H14         31.0776  36.9322  39.3236 H              1 <1>                0.0000
     15 H15         29.0682  36.4345  37.0816 H              1 <1>                0.0000
     16 H16         28.4981  38.3707  38.4516 H              1 <1>                0.0000
     17 H17         30.1856  38.9392  38.4250 H              1 <1>                0.0000
     18 H18         30.0357  39.8776  34.9306 H              1 <1>                0.0000
     19 H19         31.0831  39.8188  36.3699 H              1 <1>                0.0000
     20 H20         30.1032  37.4488  34.7117 H              1 <1>                0.0000
     21 H21         31.7802  38.0337  34.8640 H              1 <1>                0.0000
@<TRIPOS>BOND
    1    1    2 1     
    2    1   12 1     
    3    1   13 1     
    4    1   14 1     
    5    2    3 1     
    6    2    7 1     
    7    2   15 1     
    8    3    4 1     
    9    3   16 1     
   10    3   17 1     
   11    4    5 1     
   12    5    6 1     
   13    5   18 1     
   14    5   19 1     
   15    6    7 1     
   16    6   20 1     
   17    6   21 1     
   18    7    8 1     
   19    8    9 2     
   20    8   10 2     
   21    8   11 1     
@<TRIPOS>SUBSTRUCTURE
      1 ****           1
@<TRIPOS>COMMENT
> <Gold.Version>
2022.2.0

> <Gold.Id.Protein>
1qkm|1qkm_protein|mol2

> <Gold.Protein.RotatedTorsions>
[  496  491  490  487 ] final   46.41 input  -89.99 | X-H torsion

> <Gold.Protein.ActiveResidues>
 MET295  LEU298  THR299  LEU301  ALA302  GLU305  TRP335  MET336  LEU339  MET340 
 GLY342  LEU343  ARG346  PHE356  ILE373  ILE376  PHE377  LEU380  LYS471  GLY472 
 MET473  HIS475  LEU476  LEU477  ASN478  MET479  VAL484  VAL487 

> <Gold.Protein.RotatedAtoms>
   36.4468   33.5061   42.3658 H   0  0  0  0  0  0  0  0  0  0  0  0  # atno 496  bound_to 491 

> <Gold.Score>
     Score     S(PLP)   S(hbond)     S(cho)   S(metal)  DE(clash)   DE(tors)     intcor
     28.45     -28.48       0.00       0.00       0.00       0.00       1.26       2.48

> <Gold.PLP.Fitness>
28.4504

> <Gold.PLP.PLP>
-28.4841

> <Gold.PLP.part.hbond>
0.0000

> <Gold.PLP.part.metal>
0.0000

> <Gold.PLP.part.buried>
-0.8227

> <Gold.PLP.part.nonpolar>
-26.5200

> <Gold.PLP.part.repulsive>
0.0219

> <Gold.PLP.ligand.clash>
0.0000

> <Gold.PLP.ligand.torsion>
1.2558

> <Gold.PLP.Chemscore.Hbond>
0.0000

> <Gold.PLP.Chemscore.CHOScore>
0.0000

> <Gold.PLP.Chemscore.Metal>
0.0000

> <Gold.PLP.Chemscore.Internal.Correction>
2.4779

