#       Name:                EN300-93482_i002
#       Creating user name   aseyller
#       Creation time:       Fri Apr 21 17:00:27 2023


#       File generated by GOLD software.
#

@<TRIPOS>MOLECULE
EN300-93482_i002|Sulfonylchlorides|mol2|138|dock5
    21    21     1
SMALL
USER_CHARGES


@<TRIPOS>ATOM
      1 C1          29.2859  37.3544  38.2853 C.3            1 <1>                0.0000
      2 C2          30.5497  36.5308  38.5403 C.3            1 <1>                0.0000
      3 C3          30.1699  35.0673  38.7930 C.3            1 <1>                0.0000
      4 O4          31.3587  34.2748  38.8450 O.3            1 <1>                0.0000
      5 C5          32.1077  34.2624  37.6274 C.3            1 <1>                0.0000
      6 C6          32.5867  35.6848  37.3151 C.3            1 <1>                0.0000
      7 N7          31.4242  36.5859  37.3581 N.pl3          1 <1>                0.0000
      8 S8          31.1091  37.6309  36.1128 S.o2           1 <1>                0.0000
      9 O9          30.1360  36.9973  35.2937 O.2            1 <1>                0.0000
     10 O10         30.9161  38.9098  36.7012 O.2            1 <1>                0.0000
     11 Cl11        32.7913  37.7622  35.0020 Cl             1 <1>                0.0000
     12 H12         28.6971  37.4096  39.2010 H              1 <1>                0.0000
     13 H13         29.5649  38.3603  37.9716 H              1 <1>                0.0000
     14 H14         28.6950  36.8802  37.5016 H              1 <1>                0.0000
     15 H15         31.0780  36.9278  39.4072 H              1 <1>                0.0000
     16 H16         29.6375  34.9876  39.7407 H              1 <1>                0.0000
     17 H17         29.5308  34.7122  37.9845 H              1 <1>                0.0000
     18 H18         32.9693  33.6038  37.7367 H              1 <1>                0.0000
     19 H19         31.4755  33.9045  36.8147 H              1 <1>                0.0000
     20 H20         33.3206  35.9964  38.0583 H              1 <1>                0.0000
     21 H21         33.0352  35.7113  36.3219 H              1 <1>                0.0000
@<TRIPOS>BOND
    1    1    2 1     
    2    1   12 1     
    3    1   13 1     
    4    1   14 1     
    5    2    3 1     
    6    2    7 1     
    7    2   15 1     
    8    3    4 1     
    9    3   16 1     
   10    3   17 1     
   11    4    5 1     
   12    5    6 1     
   13    5   18 1     
   14    5   19 1     
   15    6    7 1     
   16    6   20 1     
   17    6   21 1     
   18    7    8 1     
   19    8    9 2     
   20    8   10 2     
   21    8   11 1     
@<TRIPOS>SUBSTRUCTURE
      1 ****           1
@<TRIPOS>COMMENT
> <Gold.Version>
2022.2.0

> <Gold.Id.Protein>
1qkm|1qkm_protein|mol2

> <Gold.Protein.RotatedTorsions>
[  496  491  490  487 ] final   83.25 input  -89.99 | X-H torsion

> <Gold.Protein.ActiveResidues>
 MET295  LEU298  THR299  LEU301  ALA302  GLU305  TRP335  MET336  LEU339  MET340 
 GLY342  LEU343  ARG346  PHE356  ILE373  ILE376  PHE377  LEU380  LYS471  GLY472 
 MET473  HIS475  LEU476  LEU477  ASN478  MET479  VAL484  VAL487 

> <Gold.Protein.RotatedAtoms>
   36.7578   33.0718   42.1014 H   0  0  0  0  0  0  0  0  0  0  0  0  # atno 496  bound_to 491 

> <Gold.Score>
     Score     S(PLP)   S(hbond)     S(cho)   S(metal)  DE(clash)   DE(tors)     intcor
     32.29     -32.29       0.00       0.00       0.00       0.00       1.24       2.48

> <Gold.PLP.Fitness>
32.2878

> <Gold.PLP.PLP>
-32.2894

> <Gold.PLP.part.hbond>
0.0000

> <Gold.PLP.part.metal>
0.0000

> <Gold.PLP.part.buried>
-3.3175

> <Gold.PLP.part.nonpolar>
-29.4445

> <Gold.PLP.part.repulsive>
0.1307

> <Gold.PLP.ligand.clash>
0.0000

> <Gold.PLP.ligand.torsion>
1.2397

> <Gold.PLP.Chemscore.Hbond>
0.0000

> <Gold.PLP.Chemscore.CHOScore>
0.0000

> <Gold.PLP.Chemscore.Metal>
0.0000

> <Gold.PLP.Chemscore.Internal.Correction>
2.4779

