#       Name:                EN300-93482_i002
#       Creating user name   aseyller
#       Creation time:       Fri Apr 21 17:00:27 2023


#       File generated by GOLD software.
#

@<TRIPOS>MOLECULE
EN300-93482_i002|Sulfonylchlorides|mol2|138|dock4
    21    21     1
SMALL
USER_CHARGES


@<TRIPOS>ATOM
      1 C1          30.1365  35.4889  39.2231 C.3            1 <1>                0.0000
      2 C2          28.6091  35.4854  39.3122 C.3            1 <1>                0.0000
      3 C3          28.1776  35.5550  40.7815 C.3            1 <1>                0.0000
      4 O4          26.7613  35.7385  40.8479 O.3            1 <1>                0.0000
      5 C5          26.3013  36.9597  40.2643 C.3            1 <1>                0.0000
      6 C6          26.6368  36.9620  38.7684 C.3            1 <1>                0.0000
      7 N7          28.0691  36.6626  38.6136 N.pl3          1 <1>                0.0000
      8 S8          29.0447  37.6222  37.6811 S.o2           1 <1>                0.0000
      9 O9          30.0020  38.1961  38.5606 O.2            1 <1>                0.0000
     10 O10         29.4001  36.8481  36.5437 O.2            1 <1>                0.0000
     11 Cl11        27.9088  39.1477  37.0006 Cl             1 <1>                0.0000
     12 H12         30.5268  34.5589  39.6364 H              1 <1>                0.0000
     13 H13         30.4393  35.5781  38.1798 H              1 <1>                0.0000
     14 H14         30.5316  36.3322  39.7895 H              1 <1>                0.0000
     15 H15         28.2169  34.5758  38.8572 H              1 <1>                0.0000
     16 H16         28.4485  34.6270  41.2850 H              1 <1>                0.0000
     17 H17         28.6765  36.3931  41.2682 H              1 <1>                0.0000
     18 H18         25.2224  37.0422  40.3956 H              1 <1>                0.0000
     19 H19         26.7934  37.8029  40.7490 H              1 <1>                0.0000
     20 H20         26.0454  36.2015  38.2585 H              1 <1>                0.0000
     21 H21         26.4188  37.9424  38.3449 H              1 <1>                0.0000
@<TRIPOS>BOND
    1    1    2 1     
    2    1   12 1     
    3    1   13 1     
    4    1   14 1     
    5    2    3 1     
    6    2    7 1     
    7    2   15 1     
    8    3    4 1     
    9    3   16 1     
   10    3   17 1     
   11    4    5 1     
   12    5    6 1     
   13    5   18 1     
   14    5   19 1     
   15    6    7 1     
   16    6   20 1     
   17    6   21 1     
   18    7    8 1     
   19    8    9 2     
   20    8   10 2     
   21    8   11 1     
@<TRIPOS>SUBSTRUCTURE
      1 ****           1
@<TRIPOS>COMMENT
> <Gold.Version>
2022.2.0

> <Gold.Id.Protein>
1qkm|1qkm_protein|mol2

> <Gold.Protein.RotatedTorsions>
[  496  491  490  487 ] final  -45.30 input  -89.99 | X-H torsion

> <Gold.Protein.ActiveResidues>
 MET295  LEU298  THR299  LEU301  ALA302  GLU305  TRP335  MET336  LEU339  MET340 
 GLY342  LEU343  ARG346  PHE356  ILE373  ILE376  PHE377  LEU380  LYS471  GLY472 
 MET473  HIS475  LEU476  LEU477  ASN478  MET479  VAL484  VAL487 

> <Gold.Protein.RotatedAtoms>
   36.3943   34.6819   41.6972 H   0  0  0  0  0  0  0  0  0  0  0  0  # atno 496  bound_to 491 

> <Gold.Score>
     Score     S(PLP)   S(hbond)     S(cho)   S(metal)  DE(clash)   DE(tors)     intcor
     31.90     -31.94       0.00       0.00       0.00       0.00       1.26       2.48

> <Gold.PLP.Fitness>
31.9025

> <Gold.PLP.PLP>
-31.9444

> <Gold.PLP.part.hbond>
0.0000

> <Gold.PLP.part.metal>
0.0000

> <Gold.PLP.part.buried>
-1.6669

> <Gold.PLP.part.nonpolar>
-30.7094

> <Gold.PLP.part.repulsive>
0.1356

> <Gold.PLP.ligand.clash>
0.0000

> <Gold.PLP.ligand.torsion>
1.2602

> <Gold.PLP.Chemscore.Hbond>
0.0000

> <Gold.PLP.Chemscore.CHOScore>
0.0000

> <Gold.PLP.Chemscore.Metal>
0.0000

> <Gold.PLP.Chemscore.Internal.Correction>
2.4784

