#       Name:                EN300-93482_i002
#       Creating user name   aseyller
#       Creation time:       Fri Apr 21 17:00:29 2023


#       File generated by GOLD software.
#

@<TRIPOS>MOLECULE
EN300-93482_i002|Sulfonylchlorides|mol2|138|dock12
    21    21     1
SMALL
USER_CHARGES


@<TRIPOS>ATOM
      1 C1          31.1950  35.0308  39.0229 C.3            1 <1>                0.0000
      2 C2          31.0241  36.4083  38.3794 C.3            1 <1>                0.0000
      3 C3          31.2663  36.3063  36.8692 C.3            1 <1>                0.0000
      4 O4          30.9244  37.5501  36.2526 O.3            1 <1>                0.0000
      5 C5          29.5479  37.9114  36.3876 C.3            1 <1>                0.0000
      6 C6          29.2177  38.0956  37.8732 C.3            1 <1>                0.0000
      7 N7          29.6510  36.8904  38.5978 N.pl3          1 <1>                0.0000
      8 S8          28.6237  36.0998  39.6281 S.o2           1 <1>                0.0000
      9 O9          28.4566  34.7904  39.1018 O.2            1 <1>                0.0000
     10 O10         29.0996  36.3541  40.9427 O.2            1 <1>                0.0000
     11 Cl11        26.8231  37.0047  39.4884 Cl             1 <1>                0.0000
     12 H12         32.2407  34.7290  38.9632 H              1 <1>                0.0000
     13 H13         30.8894  35.0776  40.0681 H              1 <1>                0.0000
     14 H14         30.5766  34.3042  38.4957 H              1 <1>                0.0000
     15 H15         31.7340  37.1093  38.8185 H              1 <1>                0.0000
     16 H16         32.3170  36.0844  36.6831 H              1 <1>                0.0000
     17 H17         30.6464  35.5116  36.4539 H              1 <1>                0.0000
     18 H18         29.3625  38.8443  35.8550 H              1 <1>                0.0000
     19 H19         28.9218  37.1225  35.9706 H              1 <1>                0.0000
     20 H20         29.7453  38.9669  38.2612 H              1 <1>                0.0000
     21 H21         28.1432  38.2316  37.9963 H              1 <1>                0.0000
@<TRIPOS>BOND
    1    1    2 1     
    2    1   12 1     
    3    1   13 1     
    4    1   14 1     
    5    2    3 1     
    6    2    7 1     
    7    2   15 1     
    8    3    4 1     
    9    3   16 1     
   10    3   17 1     
   11    4    5 1     
   12    5    6 1     
   13    5   18 1     
   14    5   19 1     
   15    6    7 1     
   16    6   20 1     
   17    6   21 1     
   18    7    8 1     
   19    8    9 2     
   20    8   10 2     
   21    8   11 1     
@<TRIPOS>SUBSTRUCTURE
      1 ****           1
@<TRIPOS>COMMENT
> <Gold.Version>
2022.2.0

> <Gold.Id.Protein>
1qkm|1qkm_protein|mol2

> <Gold.Protein.RotatedTorsions>
[  496  491  490  487 ] final   24.26 input  -89.99 | X-H torsion

> <Gold.Protein.ActiveResidues>
 MET295  LEU298  THR299  LEU301  ALA302  GLU305  TRP335  MET336  LEU339  MET340 
 GLY342  LEU343  ARG346  PHE356  ILE373  ILE376  PHE377  LEU380  LYS471  GLY472 
 MET473  HIS475  LEU476  LEU477  ASN478  MET479  VAL484  VAL487 

> <Gold.Protein.RotatedAtoms>
   36.3194   33.8452   42.3697 H   0  0  0  0  0  0  0  0  0  0  0  0  # atno 496  bound_to 491 

> <Gold.Score>
     Score     S(PLP)   S(hbond)     S(cho)   S(metal)  DE(clash)   DE(tors)     intcor
     29.10     -29.14       0.00       0.00       0.00       0.00       1.26       2.48

> <Gold.PLP.Fitness>
29.1048

> <Gold.PLP.PLP>
-29.1444

> <Gold.PLP.part.hbond>
0.0000

> <Gold.PLP.part.metal>
0.0000

> <Gold.PLP.part.buried>
-2.2123

> <Gold.PLP.part.nonpolar>
-26.7634

> <Gold.PLP.part.repulsive>
0.1432

> <Gold.PLP.ligand.clash>
0.0000

> <Gold.PLP.ligand.torsion>
1.2587

> <Gold.PLP.Chemscore.Hbond>
0.0000

> <Gold.PLP.Chemscore.CHOScore>
0.0000

> <Gold.PLP.Chemscore.Metal>
0.0000

> <Gold.PLP.Chemscore.Internal.Correction>
2.4779

