#       Name:                EN300-93482_i002
#       Creating user name   aseyller
#       Creation time:       Fri Apr 21 17:00:30 2023


#       File generated by GOLD software.
#

@<TRIPOS>MOLECULE
EN300-93482_i002|Sulfonylchlorides|mol2|138|dock15
    21    21     1
SMALL
USER_CHARGES


@<TRIPOS>ATOM
      1 C1          28.5011  35.7928  41.7715 C.3            1 <1>                0.0000
      2 C2          27.2496  35.8422  40.8927 C.3            1 <1>                0.0000
      3 C3          26.2755  36.8917  41.4401 C.3            1 <1>                0.0000
      4 O4          25.1995  37.0631  40.5145 O.3            1 <1>                0.0000
      5 C5          25.6014  37.5568  39.2345 C.3            1 <1>                0.0000
      6 C6          26.5410  36.5412  38.5742 C.3            1 <1>                0.0000
      7 N7          27.6218  36.2248  39.5214 N.pl3          1 <1>                0.0000
      8 S8          29.2099  36.2975  39.0579 S.o2           1 <1>                0.0000
      9 O9          29.8196  37.2920  39.8694 O.2            1 <1>                0.0000
     10 O10         29.6715  34.9550  38.9954 O.2            1 <1>                0.0000
     11 Cl11        29.2489  37.0027  37.1654 Cl             1 <1>                0.0000
     12 H12         28.2406  35.3959  42.7527 H              1 <1>                0.0000
     13 H13         29.2471  35.1490  41.3055 H              1 <1>                0.0000
     14 H14         28.9071  36.7982  41.8825 H              1 <1>                0.0000
     15 H15         26.7685  34.8641  40.8838 H              1 <1>                0.0000
     16 H16         25.8808  36.5570  42.3993 H              1 <1>                0.0000
     17 H17         26.7976  37.8396  41.5710 H              1 <1>                0.0000
     18 H18         24.7217  37.7004  38.6070 H              1 <1>                0.0000
     19 H19         26.1210  38.5070  39.3575 H              1 <1>                0.0000
     20 H20         25.9883  35.6337  38.3312 H              1 <1>                0.0000
     21 H21         26.9634  36.9690  37.6649 H              1 <1>                0.0000
@<TRIPOS>BOND
    1    1    2 1     
    2    1   12 1     
    3    1   13 1     
    4    1   14 1     
    5    2    3 1     
    6    2    7 1     
    7    2   15 1     
    8    3    4 1     
    9    3   16 1     
   10    3   17 1     
   11    4    5 1     
   12    5    6 1     
   13    5   18 1     
   14    5   19 1     
   15    6    7 1     
   16    6   20 1     
   17    6   21 1     
   18    7    8 1     
   19    8    9 2     
   20    8   10 2     
   21    8   11 1     
@<TRIPOS>SUBSTRUCTURE
      1 ****           1
@<TRIPOS>COMMENT
> <Gold.Version>
2022.2.0

> <Gold.Id.Protein>
1qkm|1qkm_protein|mol2

> <Gold.Protein.RotatedTorsions>
[  496  491  490  487 ] final   35.78 input  -89.99 | X-H torsion

> <Gold.Protein.ActiveResidues>
 MET295  LEU298  THR299  LEU301  ALA302  GLU305  TRP335  MET336  LEU339  MET340 
 GLY342  LEU343  ARG346  PHE356  ILE373  ILE376  PHE377  LEU380  LYS471  GLY472 
 MET473  HIS475  LEU476  LEU477  ASN478  MET479  VAL484  VAL487 

> <Gold.Protein.RotatedAtoms>
   36.3779   33.6658   42.3831 H   0  0  0  0  0  0  0  0  0  0  0  0  # atno 496  bound_to 491 

> <Gold.Score>
     Score     S(PLP)   S(hbond)     S(cho)   S(metal)  DE(clash)   DE(tors)     intcor
     34.75     -34.79       0.00       0.00       0.00       0.00       1.26       2.48

> <Gold.PLP.Fitness>
34.7486

> <Gold.PLP.PLP>
-34.7890

> <Gold.PLP.part.hbond>
0.0000

> <Gold.PLP.part.metal>
0.0000

> <Gold.PLP.part.buried>
-2.3947

> <Gold.PLP.part.nonpolar>
-33.8761

> <Gold.PLP.part.repulsive>
1.0869

> <Gold.PLP.ligand.clash>
0.0000

> <Gold.PLP.ligand.torsion>
1.2591

> <Gold.PLP.Chemscore.Hbond>
0.0000

> <Gold.PLP.Chemscore.CHOScore>
0.0000

> <Gold.PLP.Chemscore.Metal>
0.0000

> <Gold.PLP.Chemscore.Internal.Correction>
2.4779

