#       Name:                EN300-93482_i002
#       Creating user name   aseyller
#       Creation time:       Fri Apr 21 17:00:26 2023


#       File generated by GOLD software.
#

@<TRIPOS>MOLECULE
EN300-93482_i002
    21    21     1
SMALL
USER_CHARGES


@<TRIPOS>ATOM
      1 C1          -0.6888   1.9844   0.1977 C.3            1 <1>                0.0000
      2 C2           0.1350   0.8765  -0.4616 C.3            1 <1>                0.0000
      3 C3           1.5443   0.8528   0.1411 C.3            1 <1>                0.0000
      4 O4           2.2439  -0.2962  -0.3429 O.3            1 <1>                0.0000
      5 C5           1.6542  -1.5426   0.0346 C.3            1 <1>                0.0000
      6 C6           0.2505  -1.6415  -0.5736 C.3            1 <1>                0.0000
      7 N7          -0.4987  -0.4279  -0.2116 N.pl3          1 <1>                0.0000
      8 S8          -2.0101  -0.5270   0.4577 S.o2           1 <1>                0.0000
      9 O9          -2.2265  -1.8988   0.7588 O.2            1 <1>                0.0000
     10 O10         -2.0856   0.5040   1.4327 O.2            1 <1>                0.0000
     11 Cl11        -3.3368  -0.0440  -0.9870 Cl             1 <1>                0.0000
     12 H12         -0.2851   2.9560  -0.0873 H              1 <1>                0.0000
     13 H13         -1.7254   1.9111  -0.1312 H              1 <1>                0.0000
     14 H14         -0.6428   1.8756   1.2813 H              1 <1>                0.0000
     15 H15          0.1978   1.0550  -1.5351 H              1 <1>                0.0000
     16 H16          2.0806   1.7555  -0.1513 H              1 <1>                0.0000
     17 H17          1.4747   0.8056   1.2279 H              1 <1>                0.0000
     18 H18          2.2696  -2.3631  -0.3345 H              1 <1>                0.0000
     19 H19          1.5850  -1.5984   1.1210 H              1 <1>                0.0000
     20 H20          0.3250  -1.7172  -1.6584 H              1 <1>                0.0000
     21 H21         -0.2599  -2.5197  -0.1780 H              1 <1>                0.0000
@<TRIPOS>BOND
    1    1    2 1     
    2    1   12 1     
    3    1   13 1     
    4    1   14 1     
    5    2    3 1     
    6    2    7 1     
    7    2   15 1     
    8    3    4 1     
    9    3   16 1     
   10    3   17 1     
   11    4    5 1     
   12    5    6 1     
   13    5   18 1     
   14    5   19 1     
   15    6    7 1     
   16    6   20 1     
   17    6   21 1     
   18    7    8 1     
   19    8    9 2     
   20    8   10 2     
   21    8   11 1     
@<TRIPOS>SUBSTRUCTURE
      1 ****           1
