#       Name:                EN300-93482_i002
#       Creating user name   aseyller
#       Creation time:       Fri Apr 21 17:00:31 2023


#       File generated by GOLD software.
#

@<TRIPOS>MOLECULE
EN300-93482_i002|Sulfonylchlorides|mol2|138|dock18
    21    21     1
SMALL
USER_CHARGES


@<TRIPOS>ATOM
      1 C1          29.3894  39.0635  36.0928 C.3            1 <1>                0.0000
      2 C2          29.1977  38.4429  37.4780 C.3            1 <1>                0.0000
      3 C3          27.7778  37.8778  37.5986 C.3            1 <1>                0.0000
      4 O4          27.6669  37.1398  38.8180 O.3            1 <1>                0.0000
      5 C5          28.5302  36.0028  38.8946 C.3            1 <1>                0.0000
      6 C6          29.9886  36.4720  38.8404 C.3            1 <1>                0.0000
      7 N7          30.1536  37.3396  37.6635 N.pl3          1 <1>                0.0000
      8 S8          31.3785  37.0818  36.5794 S.o2           1 <1>                0.0000
      9 O9          30.7595  36.7134  35.3545 O.2            1 <1>                0.0000
     10 O10         32.2621  38.1879  36.7018 O.2            1 <1>                0.0000
     11 Cl11        32.4042  35.4600  37.2105 Cl             1 <1>                0.0000
     12 H12         28.7646  39.9522  36.0031 H              1 <1>                0.0000
     13 H13         30.4354  39.3399  35.9601 H              1 <1>                0.0000
     14 H14         29.1047  38.3406  35.3282 H              1 <1>                0.0000
     15 H15         29.3576  39.2007  38.2451 H              1 <1>                0.0000
     16 H16         27.0589  38.6971  37.6023 H              1 <1>                0.0000
     17 H17         27.5754  37.2186  36.7544 H              1 <1>                0.0000
     18 H18         28.3525  35.4733  39.8307 H              1 <1>                0.0000
     19 H19         28.3305  35.3369  38.0551 H              1 <1>                0.0000
     20 H20         30.2283  37.0308  39.7451 H              1 <1>                0.0000
     21 H21         30.6489  35.6088  38.7557 H              1 <1>                0.0000
@<TRIPOS>BOND
    1    1    2 1     
    2    1   12 1     
    3    1   13 1     
    4    1   14 1     
    5    2    3 1     
    6    2    7 1     
    7    2   15 1     
    8    3    4 1     
    9    3   16 1     
   10    3   17 1     
   11    4    5 1     
   12    5    6 1     
   13    5   18 1     
   14    5   19 1     
   15    6    7 1     
   16    6   20 1     
   17    6   21 1     
   18    7    8 1     
   19    8    9 2     
   20    8   10 2     
   21    8   11 1     
@<TRIPOS>SUBSTRUCTURE
      1 ****           1
@<TRIPOS>COMMENT
> <Gold.Version>
2022.2.0

> <Gold.Id.Protein>
1qkm|1qkm_protein|mol2

> <Gold.Protein.RotatedTorsions>
[  496  491  490  487 ] final  128.94 input  -89.99 | X-H torsion

> <Gold.Protein.ActiveResidues>
 MET295  LEU298  THR299  LEU301  ALA302  GLU305  TRP335  MET336  LEU339  MET340 
 GLY342  LEU343  ARG346  PHE356  ILE373  ILE376  PHE377  LEU380  LYS471  GLY472 
 MET473  HIS475  LEU476  LEU477  ASN478  MET479  VAL484  VAL487 

> <Gold.Protein.RotatedAtoms>
   37.1458   32.9669   41.4892 H   0  0  0  0  0  0  0  0  0  0  0  0  # atno 496  bound_to 491 

> <Gold.Score>
     Score     S(PLP)   S(hbond)     S(cho)   S(metal)  DE(clash)   DE(tors)     intcor
     28.60     -28.65       0.00       0.00       0.00       0.00       1.26       2.48

> <Gold.PLP.Fitness>
28.6035

> <Gold.PLP.PLP>
-28.6469

> <Gold.PLP.part.hbond>
0.0000

> <Gold.PLP.part.metal>
0.0000

> <Gold.PLP.part.buried>
-0.9912

> <Gold.PLP.part.nonpolar>
-27.2979

> <Gold.PLP.part.repulsive>
0.0590

> <Gold.PLP.ligand.clash>
0.0000

> <Gold.PLP.ligand.torsion>
1.2607

> <Gold.PLP.Chemscore.Hbond>
0.0000

> <Gold.PLP.Chemscore.CHOScore>
0.0000

> <Gold.PLP.Chemscore.Metal>
0.0000

> <Gold.PLP.Chemscore.Internal.Correction>
2.4779

