#       Name:                EN300-93482_i002
#       Creating user name   aseyller
#       Creation time:       Fri Apr 21 17:00:30 2023


#       File generated by GOLD software.
#

@<TRIPOS>MOLECULE
EN300-93482_i002|Sulfonylchlorides|mol2|138|dock13
    21    21     1
SMALL
USER_CHARGES


@<TRIPOS>ATOM
      1 C1          32.9953  36.7798  35.1939 C.3            1 <1>                0.0000
      2 C2          32.0546  35.9993  36.1141 C.3            1 <1>                0.0000
      3 C3          32.8314  35.4875  37.3325 C.3            1 <1>                0.0000
      4 O4          31.9138  34.9236  38.2728 O.3            1 <1>                0.0000
      5 C5          30.9662  35.8566  38.7976 C.3            1 <1>                0.0000
      6 C6          30.0940  36.3872  37.6541 C.3            1 <1>                0.0000
      7 N7          30.9782  36.8838  36.5879 N.pl3          1 <1>                0.0000
      8 S8          30.7684  38.3935  35.9406 S.o2           1 <1>                0.0000
      9 O9          31.9479  39.1266  36.2416 O.2            1 <1>                0.0000
     10 O10         30.2906  38.1995  34.6165 O.2            1 <1>                0.0000
     11 Cl11        29.2692  39.2799  36.9638 Cl             1 <1>                0.0000
     12 H12         33.7206  36.0967  34.7517 H              1 <1>                0.0000
     13 H13         32.4167  37.2571  34.4031 H              1 <1>                0.0000
     14 H14         33.5191  37.5417  35.7714 H              1 <1>                0.0000
     15 H15         31.6260  35.1566  35.5716 H              1 <1>                0.0000
     16 H16         33.5434  34.7252  37.0166 H              1 <1>                0.0000
     17 H17         33.3661  36.3158  37.7976 H              1 <1>                0.0000
     18 H18         30.3364  35.3596  39.5355 H              1 <1>                0.0000
     19 H19         31.4942  36.6862  39.2679 H              1 <1>                0.0000
     20 H20         29.4674  35.5837  37.2671 H              1 <1>                0.0000
     21 H21         29.4658  37.2002  38.0184 H              1 <1>                0.0000
@<TRIPOS>BOND
    1    1    2 1     
    2    1   12 1     
    3    1   13 1     
    4    1   14 1     
    5    2    3 1     
    6    2    7 1     
    7    2   15 1     
    8    3    4 1     
    9    3   16 1     
   10    3   17 1     
   11    4    5 1     
   12    5    6 1     
   13    5   18 1     
   14    5   19 1     
   15    6    7 1     
   16    6   20 1     
   17    6   21 1     
   18    7    8 1     
   19    8    9 2     
   20    8   10 2     
   21    8   11 1     
@<TRIPOS>SUBSTRUCTURE
      1 ****           1
@<TRIPOS>COMMENT
> <Gold.Version>
2022.2.0

> <Gold.Id.Protein>
1qkm|1qkm_protein|mol2

> <Gold.Protein.RotatedTorsions>
[  496  491  490  487 ] final  -37.79 input  -89.99 | X-H torsion

> <Gold.Protein.ActiveResidues>
 MET295  LEU298  THR299  LEU301  ALA302  GLU305  TRP335  MET336  LEU339  MET340 
 GLY342  LEU343  ARG346  PHE356  ILE373  ILE376  PHE377  LEU380  LYS471  GLY472 
 MET473  HIS475  LEU476  LEU477  ASN478  MET479  VAL484  VAL487 

> <Gold.Protein.RotatedAtoms>
   36.3514   34.6346   41.8030 H   0  0  0  0  0  0  0  0  0  0  0  0  # atno 496  bound_to 491 

> <Gold.Score>
     Score     S(PLP)   S(hbond)     S(cho)   S(metal)  DE(clash)   DE(tors)     intcor
     28.37     -28.41       0.00       0.00       0.00       0.00       1.26       2.48

> <Gold.PLP.Fitness>
28.3727

> <Gold.PLP.PLP>
-28.4143

> <Gold.PLP.part.hbond>
0.0000

> <Gold.PLP.part.metal>
0.0000

> <Gold.PLP.part.buried>
-0.9967

> <Gold.PLP.part.nonpolar>
-27.4279

> <Gold.PLP.part.repulsive>
0.0979

> <Gold.PLP.ligand.clash>
0.0000

> <Gold.PLP.ligand.torsion>
1.2598

> <Gold.PLP.Chemscore.Hbond>
0.0000

> <Gold.PLP.Chemscore.CHOScore>
0.0000

> <Gold.PLP.Chemscore.Metal>
0.0000

> <Gold.PLP.Chemscore.Internal.Correction>
2.4779

