#       Name:                EN300-93482_i002
#       Creating user name   aseyller
#       Creation time:       Fri Apr 21 17:00:27 2023


#       File generated by GOLD software.
#

@<TRIPOS>MOLECULE
EN300-93482_i002|Sulfonylchlorides|mol2|138|dock3
    21    21     1
SMALL
USER_CHARGES


@<TRIPOS>ATOM
      1 C1          28.9926  37.8968  37.7586 C.3            1 <1>                0.0000
      2 C2          30.2534  37.2517  38.3374 C.3            1 <1>                0.0000
      3 C3          29.9591  35.7971  38.7217 C.3            1 <1>                0.0000
      4 O4          31.1810  35.1500  39.0853 O.3            1 <1>                0.0000
      5 C5          32.1390  35.0712  38.0271 C.3            1 <1>                0.0000
      6 C6          32.5449  36.4886  37.6073 C.3            1 <1>                0.0000
      7 N7          31.3221  37.2573  37.3258 N.pl3          1 <1>                0.0000
      8 S8          31.1535  38.1034  35.9124 S.o2           1 <1>                0.0000
      9 O9          32.4474  38.1718  35.3288 O.2            1 <1>                0.0000
     10 O10         30.0281  37.5492  35.2447 O.2            1 <1>                0.0000
     11 Cl11        30.6492  39.9964  36.4050 Cl             1 <1>                0.0000
     12 H12         28.2433  37.9986  38.5436 H              1 <1>                0.0000
     13 H13         29.2382  38.8815  37.3609 H              1 <1>                0.0000
     14 H14         28.5980  37.2700  36.9588 H              1 <1>                0.0000
     15 H15         30.5780  37.8056  39.2183 H              1 <1>                0.0000
     16 H16         29.2705  35.7758  39.5663 H              1 <1>                0.0000
     17 H17         29.5117  35.2797  37.8730 H              1 <1>                0.0000
     18 H18         33.0187  34.5278  38.3722 H              1 <1>                0.0000
     19 H19         31.6994  34.5512  37.1759 H              1 <1>                0.0000
     20 H20         33.1008  36.9656  38.4145 H              1 <1>                0.0000
     21 H21         33.1641  36.4429  36.7114 H              1 <1>                0.0000
@<TRIPOS>BOND
    1    1    2 1     
    2    1   12 1     
    3    1   13 1     
    4    1   14 1     
    5    2    3 1     
    6    2    7 1     
    7    2   15 1     
    8    3    4 1     
    9    3   16 1     
   10    3   17 1     
   11    4    5 1     
   12    5    6 1     
   13    5   18 1     
   14    5   19 1     
   15    6    7 1     
   16    6   20 1     
   17    6   21 1     
   18    7    8 1     
   19    8    9 2     
   20    8   10 2     
   21    8   11 1     
@<TRIPOS>SUBSTRUCTURE
      1 ****           1
@<TRIPOS>COMMENT
> <Gold.Version>
2022.2.0

> <Gold.Id.Protein>
1qkm|1qkm_protein|mol2

> <Gold.Protein.RotatedTorsions>
[  496  491  490  487 ] final  -31.15 input  -89.99 | X-H torsion

> <Gold.Protein.ActiveResidues>
 MET295  LEU298  THR299  LEU301  ALA302  GLU305  TRP335  MET336  LEU339  MET340 
 GLY342  LEU343  ARG346  PHE356  ILE373  ILE376  PHE377  LEU380  LYS471  GLY472 
 MET473  HIS475  LEU476  LEU477  ASN478  MET479  VAL484  VAL487 

> <Gold.Protein.RotatedAtoms>
   36.3197   34.5814   41.8929 H   0  0  0  0  0  0  0  0  0  0  0  0  # atno 496  bound_to 491 

> <Gold.Score>
     Score     S(PLP)   S(hbond)     S(cho)   S(metal)  DE(clash)   DE(tors)     intcor
     30.21     -30.32       0.00       0.00       0.00       0.42       1.09       2.48

> <Gold.PLP.Fitness>
30.2063

> <Gold.PLP.PLP>
-30.3237

> <Gold.PLP.part.hbond>
0.0000

> <Gold.PLP.part.metal>
0.0000

> <Gold.PLP.part.buried>
-3.0016

> <Gold.PLP.part.nonpolar>
-28.1420

> <Gold.PLP.part.repulsive>
0.7287

> <Gold.PLP.ligand.clash>
0.4164

> <Gold.PLP.ligand.torsion>
1.0897

> <Gold.PLP.Chemscore.Hbond>
0.0000

> <Gold.PLP.Chemscore.CHOScore>
0.0000

> <Gold.PLP.Chemscore.Metal>
0.0000

> <Gold.PLP.Chemscore.Internal.Correction>
2.4784

