#       Name:                EN300-93482_i002
#       Creating user name   aseyller
#       Creation time:       Fri Apr 21 17:00:32 2023


#       File generated by GOLD software.
#

@<TRIPOS>MOLECULE
EN300-93482_i002|Sulfonylchlorides|mol2|138|dock19
    21    21     1
SMALL
USER_CHARGES


@<TRIPOS>ATOM
      1 C1          30.2155  37.9667  37.8643 C.3            1 <1>                0.0000
      2 C2          30.5619  36.4974  37.6152 C.3            1 <1>                0.0000
      3 C3          32.0757  36.2945  37.7466 C.3            1 <1>                0.0000
      4 O4          32.3690  34.8961  37.6976 O.3            1 <1>                0.0000
      5 C5          31.7957  34.1399  38.7667 C.3            1 <1>                0.0000
      6 C6          30.2675  34.2326  38.6875 C.3            1 <1>                0.0000
      7 N7          29.8918  35.6535  38.6173 N.pl3          1 <1>                0.0000
      8 S8          28.7488  36.2843  39.6361 S.o2           1 <1>                0.0000
      9 O9          28.0833  35.1768  40.2276 O.2            1 <1>                0.0000
     10 O10         29.4004  37.2947  40.3937 O.2            1 <1>                0.0000
     11 Cl11        27.3791  37.2262  38.4883 Cl             1 <1>                0.0000
     12 H12         30.6147  38.5766  37.0538 H              1 <1>                0.0000
     13 H13         29.1325  38.0825  37.9065 H              1 <1>                0.0000
     14 H14         30.6524  38.2879  38.8098 H              1 <1>                0.0000
     15 H15         30.2382  36.2083  36.6153 H              1 <1>                0.0000
     16 H16         32.5836  36.8020  36.9266 H              1 <1>                0.0000
     17 H17         32.4168  36.7050  38.6970 H              1 <1>                0.0000
     18 H18         32.1022  33.0974  38.6805 H              1 <1>                0.0000
     19 H19         32.1358  34.5426  39.7208 H              1 <1>                0.0000
     20 H20         29.9141  33.7147  37.7959 H              1 <1>                0.0000
     21 H21         29.8258  33.7794  39.5751 H              1 <1>                0.0000
@<TRIPOS>BOND
    1    1    2 1     
    2    1   12 1     
    3    1   13 1     
    4    1   14 1     
    5    2    3 1     
    6    2    7 1     
    7    2   15 1     
    8    3    4 1     
    9    3   16 1     
   10    3   17 1     
   11    4    5 1     
   12    5    6 1     
   13    5   18 1     
   14    5   19 1     
   15    6    7 1     
   16    6   20 1     
   17    6   21 1     
   18    7    8 1     
   19    8    9 2     
   20    8   10 2     
   21    8   11 1     
@<TRIPOS>SUBSTRUCTURE
      1 ****           1
@<TRIPOS>COMMENT
> <Gold.Version>
2022.2.0

> <Gold.Id.Protein>
1qkm|1qkm_protein|mol2

> <Gold.Protein.RotatedTorsions>
[  496  491  490  487 ] final   -7.20 input  -89.99 | X-H torsion

> <Gold.Protein.ActiveResidues>
 MET295  LEU298  THR299  LEU301  ALA302  GLU305  TRP335  MET336  LEU339  MET340 
 GLY342  LEU343  ARG346  PHE356  ILE373  ILE376  PHE377  LEU380  LYS471  GLY472 
 MET473  HIS475  LEU476  LEU477  ASN478  MET479  VAL484  VAL487 

> <Gold.Protein.RotatedAtoms>
   36.2599   34.3129   42.1714 H   0  0  0  0  0  0  0  0  0  0  0  0  # atno 496  bound_to 491 

> <Gold.Score>
     Score     S(PLP)   S(hbond)     S(cho)   S(metal)  DE(clash)   DE(tors)     intcor
     28.97     -29.09       0.00       0.00       0.00       0.42       1.09       2.48

> <Gold.PLP.Fitness>
28.9698

> <Gold.PLP.PLP>
-29.0901

> <Gold.PLP.part.hbond>
0.0000

> <Gold.PLP.part.metal>
0.0000

> <Gold.PLP.part.buried>
-1.5526

> <Gold.PLP.part.nonpolar>
-27.0378

> <Gold.PLP.part.repulsive>
0.1881

> <Gold.PLP.ligand.clash>
0.4188

> <Gold.PLP.ligand.torsion>
1.0897

> <Gold.PLP.Chemscore.Hbond>
0.0000

> <Gold.PLP.Chemscore.CHOScore>
0.0000

> <Gold.PLP.Chemscore.Metal>
0.0000

> <Gold.PLP.Chemscore.Internal.Correction>
2.4779

