#       Name:                EN300-93482_i002
#       Creating user name   aseyller
#       Creation time:       Fri Apr 21 17:00:31 2023


#       File generated by GOLD software.
#

@<TRIPOS>MOLECULE
EN300-93482_i002|Sulfonylchlorides|mol2|138|dock16
    21    21     1
SMALL
USER_CHARGES


@<TRIPOS>ATOM
      1 C1          26.9155  36.7201  38.7062 C.3            1 <1>                0.0000
      2 C2          27.8087  37.2801  37.5974 C.3            1 <1>                0.0000
      3 C3          27.6903  38.8081  37.5615 C.3            1 <1>                0.0000
      4 O4          28.6618  39.3342  36.6541 O.3            1 <1>                0.0000
      5 C5          30.0161  39.0723  37.0300 C.3            1 <1>                0.0000
      6 C6          30.2535  37.5578  37.0387 C.3            1 <1>                0.0000
      7 N7          29.2122  36.9296  37.8671 N.pl3          1 <1>                0.0000
      8 S8          29.6081  35.8600  39.0677 S.o2           1 <1>                0.0000
      9 O9          28.7853  34.7176  38.8749 O.2            1 <1>                0.0000
     10 O10         31.0275  35.7991  39.0990 O.2            1 <1>                0.0000
     11 Cl11        29.0341  36.6873  40.8189 Cl             1 <1>                0.0000
     12 H12         25.8692  36.8777  38.4443 H              1 <1>                0.0000
     13 H13         27.1045  35.6527  38.8206 H              1 <1>                0.0000
     14 H14         27.1363  37.2308  39.6435 H              1 <1>                0.0000
     15 H15         27.5044  36.8657  36.6363 H              1 <1>                0.0000
     16 H16         26.6912  39.0881  37.2277 H              1 <1>                0.0000
     17 H17         27.8681  39.2106  38.5588 H              1 <1>                0.0000
     18 H18         30.6901  39.5424  36.3138 H              1 <1>                0.0000
     19 H19         30.2022  39.4757  38.0253 H              1 <1>                0.0000
     20 H20         30.1960  37.1714  36.0211 H              1 <1>                0.0000
     21 H21         31.2362  37.3427  37.4586 H              1 <1>                0.0000
@<TRIPOS>BOND
    1    1    2 1     
    2    1   12 1     
    3    1   13 1     
    4    1   14 1     
    5    2    3 1     
    6    2    7 1     
    7    2   15 1     
    8    3    4 1     
    9    3   16 1     
   10    3   17 1     
   11    4    5 1     
   12    5    6 1     
   13    5   18 1     
   14    5   19 1     
   15    6    7 1     
   16    6   20 1     
   17    6   21 1     
   18    7    8 1     
   19    8    9 2     
   20    8   10 2     
   21    8   11 1     
@<TRIPOS>SUBSTRUCTURE
      1 ****           1
@<TRIPOS>COMMENT
> <Gold.Version>
2022.2.0

> <Gold.Id.Protein>
1qkm|1qkm_protein|mol2

> <Gold.Protein.RotatedTorsions>
[  496  491  490  487 ] final  -85.11 input  -89.99 | X-H torsion

> <Gold.Protein.ActiveResidues>
 MET295  LEU298  THR299  LEU301  ALA302  GLU305  TRP335  MET336  LEU339  MET340 
 GLY342  LEU343  ARG346  PHE356  ILE373  ILE376  PHE377  LEU380  LYS471  GLY472 
 MET473  HIS475  LEU476  LEU477  ASN478  MET479  VAL484  VAL487 

> <Gold.Protein.RotatedAtoms>
   36.7124   34.6824   41.1393 H   0  0  0  0  0  0  0  0  0  0  0  0  # atno 496  bound_to 491 

> <Gold.Score>
     Score     S(PLP)   S(hbond)     S(cho)   S(metal)  DE(clash)   DE(tors)     intcor
     30.09     -30.14       0.00       0.00       0.00       0.45       1.04       2.48

> <Gold.PLP.Fitness>
30.0858

> <Gold.PLP.PLP>
-30.1398

> <Gold.PLP.part.hbond>
0.0000

> <Gold.PLP.part.metal>
0.0000

> <Gold.PLP.part.buried>
-2.5504

> <Gold.PLP.part.nonpolar>
-28.5041

> <Gold.PLP.part.repulsive>
0.1270

> <Gold.PLP.ligand.clash>
0.4480

> <Gold.PLP.ligand.torsion>
1.0420

> <Gold.PLP.Chemscore.Hbond>
0.0000

> <Gold.PLP.Chemscore.CHOScore>
0.0000

> <Gold.PLP.Chemscore.Metal>
0.0000

> <Gold.PLP.Chemscore.Internal.Correction>
2.4779

