#       Name:                EN300-93482_i002
#       Creating user name   aseyller
#       Creation time:       Fri Apr 21 17:00:27 2023


#       File generated by GOLD software.
#

@<TRIPOS>MOLECULE
EN300-93482_i002|Sulfonylchlorides|mol2|138|dock2
    21    21     1
SMALL
USER_CHARGES


@<TRIPOS>ATOM
      1 C1          29.6390  38.9030  37.2991 C.3            1 <1>                0.0000
      2 C2          30.0187  37.8944  38.3850 C.3            1 <1>                0.0000
      3 C3          28.7729  37.1181  38.8270 C.3            1 <1>                0.0000
      4 O4          29.1652  36.0569  39.7010 O.3            1 <1>                0.0000
      5 C5          30.0172  35.0829  39.0934 C.3            1 <1>                0.0000
      6 C6          31.3267  35.7550  38.6651 C.3            1 <1>                0.0000
      7 N7          30.9977  36.9349  37.8498 N.pl3          1 <1>                0.0000
      8 S8          31.7079  37.1758  36.3733 S.o2           1 <1>                0.0000
      9 O9          30.7735  36.7282  35.4008 O.2            1 <1>                0.0000
     10 O10         32.2375  38.4943  36.3932 O.2            1 <1>                0.0000
     11 Cl11        33.2914  35.9267  36.2604 Cl             1 <1>                0.0000
     12 H12         29.0073  39.6800  37.7298 H              1 <1>                0.0000
     13 H13         30.5430  39.3547  36.8907 H              1 <1>                0.0000
     14 H14         29.0960  38.3931  36.5033 H              1 <1>                0.0000
     15 H15         30.4470  38.4185  39.2395 H              1 <1>                0.0000
     16 H16         28.0928  37.7892  39.3516 H              1 <1>                0.0000
     17 H17         28.2731  36.7030  37.9518 H              1 <1>                0.0000
     18 H18         30.2323  34.2899  39.8097 H              1 <1>                0.0000
     19 H19         29.5218  34.6605  38.2191 H              1 <1>                0.0000
     20 H20         31.8870  36.0632  39.5478 H              1 <1>                0.0000
     21 H21         31.9224  35.0568  38.0768 H              1 <1>                0.0000
@<TRIPOS>BOND
    1    1    2 1     
    2    1   12 1     
    3    1   13 1     
    4    1   14 1     
    5    2    3 1     
    6    2    7 1     
    7    2   15 1     
    8    3    4 1     
    9    3   16 1     
   10    3   17 1     
   11    4    5 1     
   12    5    6 1     
   13    5   18 1     
   14    5   19 1     
   15    6    7 1     
   16    6   20 1     
   17    6   21 1     
   18    7    8 1     
   19    8    9 2     
   20    8   10 2     
   21    8   11 1     
@<TRIPOS>SUBSTRUCTURE
      1 ****           1
@<TRIPOS>COMMENT
> <Gold.Version>
2022.2.0

> <Gold.Id.Protein>
1qkm|1qkm_protein|mol2

> <Gold.Protein.RotatedTorsions>
[  496  491  490  487 ] final  -40.91 input  -89.99 | X-H torsion

> <Gold.Protein.ActiveResidues>
 MET295  LEU298  THR299  LEU301  ALA302  GLU305  TRP335  MET336  LEU339  MET340 
 GLY342  LEU343  ARG346  PHE356  ILE373  ILE376  PHE377  LEU380  LYS471  GLY472 
 MET473  HIS475  LEU476  LEU477  ASN478  MET479  VAL484  VAL487 

> <Gold.Protein.RotatedAtoms>
   36.3683   34.6559   41.7595 H   0  0  0  0  0  0  0  0  0  0  0  0  # atno 496  bound_to 491 

> <Gold.Score>
     Score     S(PLP)   S(hbond)     S(cho)   S(metal)  DE(clash)   DE(tors)     intcor
     29.14     -29.15       0.00       0.00       0.00       0.00       1.24       2.48

> <Gold.PLP.Fitness>
29.1388

> <Gold.PLP.PLP>
-29.1476

> <Gold.PLP.part.hbond>
0.0000

> <Gold.PLP.part.metal>
0.0000

> <Gold.PLP.part.buried>
-2.6716

> <Gold.PLP.part.nonpolar>
-26.4684

> <Gold.PLP.part.repulsive>
0.1315

> <Gold.PLP.ligand.clash>
0.0000

> <Gold.PLP.ligand.torsion>
1.2436

> <Gold.PLP.Chemscore.Hbond>
0.0000

> <Gold.PLP.Chemscore.CHOScore>
0.0000

> <Gold.PLP.Chemscore.Metal>
0.0000

> <Gold.PLP.Chemscore.Internal.Correction>
2.4784

