#       Name:                EN300-93482_i002
#       Creating user name   aseyller
#       Creation time:       Fri Apr 21 17:00:29 2023


#       File generated by GOLD software.
#

@<TRIPOS>MOLECULE
EN300-93482_i002|Sulfonylchlorides|mol2|138|dock10
    21    21     1
SMALL
USER_CHARGES


@<TRIPOS>ATOM
      1 C1          31.8817  38.2473  35.8484 C.3            1 <1>                0.0000
      2 C2          30.8841  38.2283  37.0083 C.3            1 <1>                0.0000
      3 C3          29.4599  38.3986  36.4672 C.3            1 <1>                0.0000
      4 O4          28.5253  38.1942  37.5295 O.3            1 <1>                0.0000
      5 C5          28.5573  36.8806  38.0927 C.3            1 <1>                0.0000
      6 C6          29.9353  36.6327  38.7170 C.3            1 <1>                0.0000
      7 N7          30.9630  36.9366  37.7089 N.pl3          1 <1>                0.0000
      8 S8          32.1726  35.8569  37.3722 S.o2           1 <1>                0.0000
      9 O9          32.0208  35.4973  36.0059 O.2            1 <1>                0.0000
     10 O10         33.3676  36.4154  37.9007 O.2            1 <1>                0.0000
     11 Cl11        31.7998  34.1872  38.4463 Cl             1 <1>                0.0000
     12 H12         31.9060  39.2434  35.4063 H              1 <1>                0.0000
     13 H13         32.8740  37.9898  36.2185 H              1 <1>                0.0000
     14 H14         31.5757  37.5224  35.0941 H              1 <1>                0.0000
     15 H15         31.1123  39.0375  37.7021 H              1 <1>                0.0000
     16 H16         29.3408  39.4050  36.0660 H              1 <1>                0.0000
     17 H17         29.2803  37.6678  35.6786 H              1 <1>                0.0000
     18 H18         27.7887  36.7951  38.8609 H              1 <1>                0.0000
     19 H19         28.3744  36.1444  37.3100 H              1 <1>                0.0000
     20 H20         30.0677  37.2807  39.5834 H              1 <1>                0.0000
     21 H21         30.0176  35.5895  39.0223 H              1 <1>                0.0000
@<TRIPOS>BOND
    1    1    2 1     
    2    1   12 1     
    3    1   13 1     
    4    1   14 1     
    5    2    3 1     
    6    2    7 1     
    7    2   15 1     
    8    3    4 1     
    9    3   16 1     
   10    3   17 1     
   11    4    5 1     
   12    5    6 1     
   13    5   18 1     
   14    5   19 1     
   15    6    7 1     
   16    6   20 1     
   17    6   21 1     
   18    7    8 1     
   19    8    9 2     
   20    8   10 2     
   21    8   11 1     
@<TRIPOS>SUBSTRUCTURE
      1 ****           1
@<TRIPOS>COMMENT
> <Gold.Version>
2022.2.0

> <Gold.Id.Protein>
1qkm|1qkm_protein|mol2

> <Gold.Protein.RotatedTorsions>
[  496  491  490  487 ] final   -6.93 input  -89.99 | X-H torsion

> <Gold.Protein.ActiveResidues>
 MET295  LEU298  THR299  LEU301  ALA302  GLU305  TRP335  MET336  LEU339  MET340 
 GLY342  LEU343  ARG346  PHE356  ILE373  ILE376  PHE377  LEU380  LYS471  GLY472 
 MET473  HIS475  LEU476  LEU477  ASN478  MET479  VAL484  VAL487 

> <Gold.Protein.RotatedAtoms>
   36.2598   34.3093   42.1740 H   0  0  0  0  0  0  0  0  0  0  0  0  # atno 496  bound_to 491 

> <Gold.Score>
     Score     S(PLP)   S(hbond)     S(cho)   S(metal)  DE(clash)   DE(tors)     intcor
     29.00     -29.04       0.00       0.00       0.00       0.00       1.26       2.48

> <Gold.PLP.Fitness>
29.0038

> <Gold.PLP.PLP>
-29.0441

> <Gold.PLP.part.hbond>
0.0000

> <Gold.PLP.part.metal>
0.0000

> <Gold.PLP.part.buried>
-2.4861

> <Gold.PLP.part.nonpolar>
-27.0220

> <Gold.PLP.part.repulsive>
0.0922

> <Gold.PLP.ligand.clash>
0.0000

> <Gold.PLP.ligand.torsion>
1.2591

> <Gold.PLP.Chemscore.Hbond>
0.0000

> <Gold.PLP.Chemscore.CHOScore>
0.0000

> <Gold.PLP.Chemscore.Metal>
0.0000

> <Gold.PLP.Chemscore.Internal.Correction>
2.4779

