#       Name:                EN300-93482_i002
#       Creating user name   aseyller
#       Creation time:       Fri Apr 21 17:00:28 2023


#       File generated by GOLD software.
#

@<TRIPOS>MOLECULE
EN300-93482_i002|Sulfonylchlorides|mol2|138|dock7
    21    21     1
SMALL
USER_CHARGES


@<TRIPOS>ATOM
      1 C1          30.2769  37.9114  35.0229 C.3            1 <1>                0.0000
      2 C2          31.1039  36.7679  35.6139 C.3            1 <1>                0.0000
      3 C3          32.5961  37.0445  35.3974 C.3            1 <1>                0.0000
      4 O4          33.3634  36.0720  36.1111 O.3            1 <1>                0.0000
      5 C5          33.1781  36.1052  37.5282 C.3            1 <1>                0.0000
      6 C6          31.7157  35.7805  37.8537 C.3            1 <1>                0.0000
      7 N7          30.8547  36.6724  37.0610 N.pl3          1 <1>                0.0000
      8 S8          29.6415  37.5433  37.7763 S.o2           1 <1>                0.0000
      9 O9          29.9961  38.9126  37.6397 O.2            1 <1>                0.0000
     10 O10         28.4200  37.0045  37.2895 O.2            1 <1>                0.0000
     11 Cl11        29.6974  37.1343  39.7537 Cl             1 <1>                0.0000
     12 H12         30.3713  37.9047  33.9370 H              1 <1>                0.0000
     13 H13         29.2299  37.7821  35.2972 H              1 <1>                0.0000
     14 H14         30.6401  38.8621  35.4133 H              1 <1>                0.0000
     15 H15         30.8307  35.8295  35.1311 H              1 <1>                0.0000
     16 H16         32.8275  36.9821  34.3342 H              1 <1>                0.0000
     17 H17         32.8387  38.0413  35.7657 H              1 <1>                0.0000
     18 H18         33.8282  35.3670  37.9978 H              1 <1>                0.0000
     19 H19         33.4228  37.0987  37.9042 H              1 <1>                0.0000
     20 H20         31.5043  34.7425  37.5970 H              1 <1>                0.0000
     21 H21         31.5316  35.9413  38.9160 H              1 <1>                0.0000
@<TRIPOS>BOND
    1    1    2 1     
    2    1   12 1     
    3    1   13 1     
    4    1   14 1     
    5    2    3 1     
    6    2    7 1     
    7    2   15 1     
    8    3    4 1     
    9    3   16 1     
   10    3   17 1     
   11    4    5 1     
   12    5    6 1     
   13    5   18 1     
   14    5   19 1     
   15    6    7 1     
   16    6   20 1     
   17    6   21 1     
   18    7    8 1     
   19    8    9 2     
   20    8   10 2     
   21    8   11 1     
@<TRIPOS>SUBSTRUCTURE
      1 ****           1
@<TRIPOS>COMMENT
> <Gold.Version>
2022.2.0

> <Gold.Id.Protein>
1qkm|1qkm_protein|mol2

> <Gold.Protein.RotatedTorsions>
[  496  491  490  487 ] final  163.08 input  -89.99 | X-H torsion

> <Gold.Protein.ActiveResidues>
 MET295  LEU298  THR299  LEU301  ALA302  GLU305  TRP335  MET336  LEU339  MET340 
 GLY342  LEU343  ARG346  PHE356  ILE373  ILE376  PHE377  LEU380  LYS471  GLY472 
 MET473  HIS475  LEU476  LEU477  ASN478  MET479  VAL484  VAL487 

> <Gold.Protein.RotatedAtoms>
   37.3041   33.2405   41.0346 H   0  0  0  0  0  0  0  0  0  0  0  0  # atno 496  bound_to 491 

> <Gold.Score>
     Score     S(PLP)   S(hbond)     S(cho)   S(metal)  DE(clash)   DE(tors)     intcor
     28.73     -28.78       0.00       0.00       0.00       0.00       1.26       2.48

> <Gold.PLP.Fitness>
28.7327

> <Gold.PLP.PLP>
-28.7760

> <Gold.PLP.part.hbond>
0.0000

> <Gold.PLP.part.metal>
0.0000

> <Gold.PLP.part.buried>
-2.8528

> <Gold.PLP.part.nonpolar>
-26.4021

> <Gold.PLP.part.repulsive>
0.0433

> <Gold.PLP.ligand.clash>
0.0000

> <Gold.PLP.ligand.torsion>
1.2606

> <Gold.PLP.Chemscore.Hbond>
0.0000

> <Gold.PLP.Chemscore.CHOScore>
0.0000

> <Gold.PLP.Chemscore.Metal>
0.0000

> <Gold.PLP.Chemscore.Internal.Correction>
2.4779

