#       Name:                EN300-99098_i001
#       Creating user name   aseyller
#       Creation time:       Fri Apr 21 16:43:26 2023


#       File generated by GOLD software.
#

@<TRIPOS>MOLECULE
EN300-99098_i001|Sulfonylchlorides|mol2|66|dock18
    27    27     1
SMALL
USER_CHARGES


@<TRIPOS>ATOM
      1 C1          34.6775  36.4165  35.2756 C.3            1 <1>                0.0000
      2 C2          33.3030  36.7014  34.6670 C.3            1 <1>                0.0000
      3 O3          32.3577  37.0041  35.7267 O.3            1 <1>                0.0000
      4 C4          32.1167  36.0318  36.6274 C.2            1 <1>                0.0000
      5 O5          32.6760  34.9582  36.5266 O.2            1 <1>                0.0000
      6 C6          31.1721  36.2711  37.7377 C.ar           1 <1>                0.0000
      7 C7          30.9099  35.2611  38.6654 C.ar           1 <1>                0.0000
      8 C8          30.0271  35.4915  39.7000 C.ar           1 <1>                0.0000
      9 C9          29.4018  36.7199  39.8195 C.ar           1 <1>                0.0000
     10 C10         28.4382  36.9641  40.9522 C.3            1 <1>                0.0000
     11 S11         26.7628  36.5042  40.4307 S.o2           1 <1>                0.0000
     12 O12         26.7416  35.1706  39.9404 O.2            1 <1>                0.0000
     13 O13         25.8047  36.9509  41.3802 O.2            1 <1>                0.0000
     14 Cl14        26.4134  37.6408  38.7978 Cl             1 <1>                0.0000
     15 C15         29.6574  37.7254  38.9040 C.ar           1 <1>                0.0000
     16 C16         30.5420  37.5103  37.8676 C.ar           1 <1>                0.0000
     17 H17         35.0189  37.2920  35.8280 H              1 <1>                0.0000
     18 H18         34.6058  35.5651  35.9525 H              1 <1>                0.0000
     19 H19         35.3871  36.1893  34.4801 H              1 <1>                0.0000
     20 H20         33.3748  37.5527  33.9901 H              1 <1>                0.0000
     21 H21         32.9616  35.8259  34.1147 H              1 <1>                0.0000
     22 H22         31.3967  34.3015  38.5729 H              1 <1>                0.0000
     23 H23         29.8233  34.7111  40.4184 H              1 <1>                0.0000
     24 H24         28.7290  36.3618  41.8129 H              1 <1>                0.0000
     25 H25         28.4572  38.0194  41.2242 H              1 <1>                0.0000
     26 H26         29.1658  38.6820  39.0030 H              1 <1>                0.0000
     27 H27         30.7405  38.2960  37.1536 H              1 <1>                0.0000
@<TRIPOS>BOND
    1    1    2 1     
    2    1   17 1     
    3    1   18 1     
    4    1   19 1     
    5    2    3 1     
    6    2   20 1     
    7    2   21 1     
    8    3    4 1     
    9    4    5 2     
   10    4    6 1     
   11    6    7 ar    
   12    6   16 ar    
   13    7    8 ar    
   14    7   22 1     
   15    8    9 ar    
   16    8   23 1     
   17    9   10 1     
   18    9   15 ar    
   19   10   11 1     
   20   10   24 1     
   21   10   25 1     
   22   11   12 2     
   23   11   13 2     
   24   11   14 1     
   25   15   16 ar    
   26   15   26 1     
   27   16   27 1     
@<TRIPOS>SUBSTRUCTURE
      1 ****           1
@<TRIPOS>COMMENT
> <Gold.Version>
2022.2.0

> <Gold.Id.Protein>
1qkm|1qkm_protein|mol2

> <Gold.Protein.RotatedTorsions>
[  496  491  490  487 ] final -159.01 input  -89.99 | X-H torsion

> <Gold.Protein.ActiveResidues>
 MET295  LEU298  THR299  LEU301  ALA302  GLU305  TRP335  MET336  LEU339  MET340 
 GLY342  LEU343  ARG346  PHE356  ILE373  ILE376  PHE377  LEU380  LYS471  GLY472 
 MET473  HIS475  LEU476  LEU477  ASN478  MET479  VAL484  VAL487 

> <Gold.Protein.RotatedAtoms>
   37.2715   33.7788   40.7436 H   0  0  0  0  0  0  0  0  0  0  0  0  # atno 496  bound_to 491 

> <Gold.Score>
     Score     S(PLP)   S(hbond)     S(cho)   S(metal)  DE(clash)   DE(tors)     intcor
     39.93     -40.68       0.00       0.00       0.00       0.00       0.45       0.15

> <Gold.PLP.Fitness>
39.9342

> <Gold.PLP.PLP>
-40.6808

> <Gold.PLP.part.hbond>
0.0000

> <Gold.PLP.part.metal>
0.0000

> <Gold.PLP.part.buried>
-0.4336

> <Gold.PLP.part.nonpolar>
-41.0029

> <Gold.PLP.part.repulsive>
0.3734

> <Gold.PLP.ligand.clash>
0.0000

> <Gold.PLP.ligand.torsion>
0.4504

> <Gold.PLP.Chemscore.Hbond>
0.0000

> <Gold.PLP.Chemscore.CHOScore>
0.0000

> <Gold.PLP.Chemscore.Metal>
0.0000

> <Gold.PLP.Chemscore.Internal.Correction>
0.1541

