#       Name:                EN300-99098_i001
#       Creating user name   aseyller
#       Creation time:       Fri Apr 21 16:43:16 2023


#       File generated by GOLD software.
#

@<TRIPOS>MOLECULE
EN300-99098_i001|Sulfonylchlorides|mol2|66|dock11
    27    27     1
SMALL
USER_CHARGES


@<TRIPOS>ATOM
      1 C1          25.5338  37.5711  41.2262 C.3            1 <1>                0.0000
      2 C2          25.8040  36.1019  40.8960 C.3            1 <1>                0.0000
      3 O3          27.1789  35.9499  40.4546 O.3            1 <1>                0.0000
      4 C4          27.5491  36.6397  39.3584 C.2            1 <1>                0.0000
      5 O5          26.7313  37.3042  38.7540 O.2            1 <1>                0.0000
      6 C6          28.9495  36.5880  38.8911 C.ar           1 <1>                0.0000
      7 C7          29.7785  35.5321  39.2751 C.ar           1 <1>                0.0000
      8 C8          31.0851  35.4899  38.8347 C.ar           1 <1>                0.0000
      9 C9          31.5748  36.4910  38.0146 C.ar           1 <1>                0.0000
     10 C10         33.0034  36.4383  37.5378 C.3            1 <1>                0.0000
     11 S11         33.0669  36.8476  35.7718 S.o2           1 <1>                0.0000
     12 O12         32.5932  38.1687  35.5487 O.2            1 <1>                0.0000
     13 O13         34.2888  36.4013  35.2001 O.2            1 <1>                0.0000
     14 Cl14        31.6619  35.6657  34.9296 Cl             1 <1>                0.0000
     15 C15         30.7586  37.5399  37.6298 C.ar           1 <1>                0.0000
     16 C16         29.4485  37.5918  38.0586 C.ar           1 <1>                0.0000
     17 H17         26.2078  37.8953  42.0191 H              1 <1>                0.0000
     18 H18         25.6992  38.1797  40.3372 H              1 <1>                0.0000
     19 H19         24.5016  37.6852  41.5575 H              1 <1>                0.0000
     20 H20         25.6385  35.4933  41.7850 H              1 <1>                0.0000
     21 H21         25.1299  35.7777  40.1032 H              1 <1>                0.0000
     22 H22         29.3978  34.7504  39.9157 H              1 <1>                0.0000
     23 H23         31.7274  34.6737  39.1309 H              1 <1>                0.0000
     24 H24         33.6005  37.1570  38.0990 H              1 <1>                0.0000
     25 H25         33.4014  35.4355  37.6929 H              1 <1>                0.0000
     26 H26         31.1472  38.3182  36.9896 H              1 <1>                0.0000
     27 H27         28.8126  38.4112  37.7576 H              1 <1>                0.0000
@<TRIPOS>BOND
    1    1    2 1     
    2    1   17 1     
    3    1   18 1     
    4    1   19 1     
    5    2    3 1     
    6    2   20 1     
    7    2   21 1     
    8    3    4 1     
    9    4    5 2     
   10    4    6 1     
   11    6    7 ar    
   12    6   16 ar    
   13    7    8 ar    
   14    7   22 1     
   15    8    9 ar    
   16    8   23 1     
   17    9   10 1     
   18    9   15 ar    
   19   10   11 1     
   20   10   24 1     
   21   10   25 1     
   22   11   12 2     
   23   11   13 2     
   24   11   14 1     
   25   15   16 ar    
   26   15   26 1     
   27   16   27 1     
@<TRIPOS>SUBSTRUCTURE
      1 ****           1
@<TRIPOS>COMMENT
> <Gold.Version>
2022.2.0

> <Gold.Id.Protein>
1qkm|1qkm_protein|mol2

> <Gold.Protein.RotatedTorsions>
[  496  491  490  487 ] final  -57.65 input  -89.99 | X-H torsion

> <Gold.Protein.ActiveResidues>
 MET295  LEU298  THR299  LEU301  ALA302  GLU305  TRP335  MET336  LEU339  MET340 
 GLY342  LEU343  ARG346  PHE356  ILE373  ILE376  PHE377  LEU380  LYS471  GLY472 
 MET473  HIS475  LEU476  LEU477  ASN478  MET479  VAL484  VAL487 

> <Gold.Protein.RotatedAtoms>
   36.4791   34.7279   41.5188 H   0  0  0  0  0  0  0  0  0  0  0  0  # atno 496  bound_to 491 

> <Gold.Score>
     Score     S(PLP)   S(hbond)     S(cho)   S(metal)  DE(clash)   DE(tors)     intcor
     42.15     -43.16       0.00       0.00       0.00       0.00       0.58       0.15

> <Gold.PLP.Fitness>
42.1464

> <Gold.PLP.PLP>
-43.1594

> <Gold.PLP.part.hbond>
0.0000

> <Gold.PLP.part.metal>
0.0000

> <Gold.PLP.part.buried>
-0.9576

> <Gold.PLP.part.nonpolar>
-42.5968

> <Gold.PLP.part.repulsive>
0.3074

> <Gold.PLP.ligand.clash>
0.0000

> <Gold.PLP.ligand.torsion>
0.5836

> <Gold.PLP.Chemscore.Hbond>
0.0000

> <Gold.PLP.Chemscore.CHOScore>
0.0000

> <Gold.PLP.Chemscore.Metal>
0.0000

> <Gold.PLP.Chemscore.Internal.Correction>
0.1541

