#       Name:                EN300-99098_i001
#       Creating user name   aseyller
#       Creation time:       Fri Apr 21 16:43:07 2023


#       File generated by GOLD software.
#

@<TRIPOS>MOLECULE
EN300-99098_i001|Sulfonylchlorides|mol2|66|dock2
    27    27     1
SMALL
USER_CHARGES


@<TRIPOS>ATOM
      1 C1          26.0978  37.4518  41.8027 C.3            1 <1>                0.0000
      2 C2          25.7668  36.3941  40.7480 C.3            1 <1>                0.0000
      3 O3          26.9792  36.0169  40.0436 O.3            1 <1>                0.0000
      4 C4          27.3897  36.8322  39.0530 C.2            1 <1>                0.0000
      5 O5          26.5975  37.5776  38.5122 O.2            1 <1>                0.0000
      6 C6          28.8033  36.8199  38.6242 C.ar           1 <1>                0.0000
      7 C7          29.7144  35.9572  39.2366 C.ar           1 <1>                0.0000
      8 C8          31.0329  35.9506  38.8310 C.ar           1 <1>                0.0000
      9 C9          31.4532  36.7965  37.8200 C.ar           1 <1>                0.0000
     10 C10         32.8953  36.7840  37.3825 C.3            1 <1>                0.0000
     11 S11         32.9816  36.5059  35.5920 S.o2           1 <1>                0.0000
     12 O12         34.3341  36.4677  35.1580 O.2            1 <1>                0.0000
     13 O13         32.0572  35.5012  35.1983 O.2            1 <1>                0.0000
     14 Cl14        32.2464  38.2042  34.7822 Cl             1 <1>                0.0000
     15 C15         30.5555  37.6536  37.2084 C.ar           1 <1>                0.0000
     16 C16         29.2330  37.6668  37.6006 C.ar           1 <1>                0.0000
     17 H17         26.8184  37.0446  42.5120 H              1 <1>                0.0000
     18 H18         26.5232  38.3295  41.3161 H              1 <1>                0.0000
     19 H19         25.1877  37.7349  42.3315 H              1 <1>                0.0000
     20 H20         25.3414  35.5164  41.2346 H              1 <1>                0.0000
     21 H21         25.0462  36.8013  40.0387 H              1 <1>                0.0000
     22 H22         29.3879  35.2969  40.0264 H              1 <1>                0.0000
     23 H23         31.7388  35.2838  39.3039 H              1 <1>                0.0000
     24 H24         33.3566  37.7415  37.6241 H              1 <1>                0.0000
     25 H25         33.4251  35.9845  37.9003 H              1 <1>                0.0000
     26 H26         30.8902  38.3114  36.4199 H              1 <1>                0.0000
     27 H27         28.5334  38.3363  37.1225 H              1 <1>                0.0000
@<TRIPOS>BOND
    1    1    2 1     
    2    1   17 1     
    3    1   18 1     
    4    1   19 1     
    5    2    3 1     
    6    2   20 1     
    7    2   21 1     
    8    3    4 1     
    9    4    5 2     
   10    4    6 1     
   11    6    7 ar    
   12    6   16 ar    
   13    7    8 ar    
   14    7   22 1     
   15    8    9 ar    
   16    8   23 1     
   17    9   10 1     
   18    9   15 ar    
   19   10   11 1     
   20   10   24 1     
   21   10   25 1     
   22   11   12 2     
   23   11   13 2     
   24   11   14 1     
   25   15   16 ar    
   26   15   26 1     
   27   16   27 1     
@<TRIPOS>SUBSTRUCTURE
      1 ****           1
@<TRIPOS>COMMENT
> <Gold.Version>
2022.2.0

> <Gold.Id.Protein>
1qkm|1qkm_protein|mol2

> <Gold.Protein.RotatedTorsions>
[  496  491  490  487 ] final   71.04 input  -89.99 | X-H torsion

> <Gold.Protein.ActiveResidues>
 MET295  LEU298  THR299  LEU301  ALA302  GLU305  TRP335  MET336  LEU339  MET340 
 GLY342  LEU343  ARG346  PHE356  ILE373  ILE376  PHE377  LEU380  LYS471  GLY472 
 MET473  HIS475  LEU476  LEU477  ASN478  MET479  VAL484  VAL487 

> <Gold.Protein.RotatedAtoms>
   36.6466   33.1884   42.2210 H   0  0  0  0  0  0  0  0  0  0  0  0  # atno 496  bound_to 491 

> <Gold.Score>
     Score     S(PLP)   S(hbond)     S(cho)   S(metal)  DE(clash)   DE(tors)     intcor
     44.99     -45.92       0.00       0.00       0.00       0.00       0.61       0.28

> <Gold.PLP.Fitness>
44.9873

> <Gold.PLP.PLP>
-45.9230

> <Gold.PLP.part.hbond>
0.0000

> <Gold.PLP.part.metal>
0.0000

> <Gold.PLP.part.buried>
-3.1178

> <Gold.PLP.part.nonpolar>
-43.2751

> <Gold.PLP.part.repulsive>
0.3373

> <Gold.PLP.ligand.clash>
0.0000

> <Gold.PLP.ligand.torsion>
0.6090

> <Gold.PLP.Chemscore.Hbond>
0.0000

> <Gold.PLP.Chemscore.CHOScore>
0.0000

> <Gold.PLP.Chemscore.Metal>
0.0000

> <Gold.PLP.Chemscore.Internal.Correction>
0.2822

