#       Name:                EN300-99098_i001
#       Creating user name   aseyller
#       Creation time:       Fri Apr 21 16:43:09 2023


#       File generated by GOLD software.
#

@<TRIPOS>MOLECULE
EN300-99098_i001|Sulfonylchlorides|mol2|66|dock4
    27    27     1
SMALL
USER_CHARGES


@<TRIPOS>ATOM
      1 C1          26.1036  37.4396  41.8439 C.3            1 <1>                0.0000
      2 C2          25.6891  36.3069  40.9028 C.3            1 <1>                0.0000
      3 O3          26.7530  36.0584  39.9464 O.3            1 <1>                0.0000
      4 C4          26.9944  37.0216  39.0361 C.2            1 <1>                0.0000
      5 O5          26.0914  37.7416  38.6596 O.2            1 <1>                0.0000
      6 C6          28.3573  37.2024  38.4957 C.ar           1 <1>                0.0000
      7 C7          28.6136  38.2075  37.5611 C.ar           1 <1>                0.0000
      8 C8          29.8888  38.3710  37.0610 C.ar           1 <1>                0.0000
      9 C9          30.9125  37.5415  37.4831 C.ar           1 <1>                0.0000
     10 C10         32.3029  37.7259  36.9320 C.3            1 <1>                0.0000
     11 S11         32.7010  36.3478  35.8216 S.o2           1 <1>                0.0000
     12 O12         31.6352  36.1179  34.9103 O.2            1 <1>                0.0000
     13 O13         34.0442  36.4444  35.3686 O.2            1 <1>                0.0000
     14 Cl14        32.6943  34.7194  37.0170 Cl             1 <1>                0.0000
     15 C15         30.6657  36.5438  38.4095 C.ar           1 <1>                0.0000
     16 C16         29.3964  36.3726  38.9218 C.ar           1 <1>                0.0000
     17 H17         27.0116  37.1560  42.3761 H              1 <1>                0.0000
     18 H18         26.2896  38.3439  41.2644 H              1 <1>                0.0000
     19 H19         25.3049  37.6261  42.5618 H              1 <1>                0.0000
     20 H20         25.5031  35.4026  41.4823 H              1 <1>                0.0000
     21 H21         24.7811  36.5905  40.3706 H              1 <1>                0.0000
     22 H22         27.8153  38.8552  37.2302 H              1 <1>                0.0000
     23 H23         30.0884  39.1481  36.3380 H              1 <1>                0.0000
     24 H24         32.3533  38.6640  36.3792 H              1 <1>                0.0000
     25 H25         33.0192  37.7494  37.7532 H              1 <1>                0.0000
     26 H26         31.4694  35.8997  38.7347 H              1 <1>                0.0000
     27 H27         29.2051  35.5933  39.6447 H              1 <1>                0.0000
@<TRIPOS>BOND
    1    1    2 1     
    2    1   17 1     
    3    1   18 1     
    4    1   19 1     
    5    2    3 1     
    6    2   20 1     
    7    2   21 1     
    8    3    4 1     
    9    4    5 2     
   10    4    6 1     
   11    6    7 ar    
   12    6   16 ar    
   13    7    8 ar    
   14    7   22 1     
   15    8    9 ar    
   16    8   23 1     
   17    9   10 1     
   18    9   15 ar    
   19   10   11 1     
   20   10   24 1     
   21   10   25 1     
   22   11   12 2     
   23   11   13 2     
   24   11   14 1     
   25   15   16 ar    
   26   15   26 1     
   27   16   27 1     
@<TRIPOS>SUBSTRUCTURE
      1 ****           1
@<TRIPOS>COMMENT
> <Gold.Version>
2022.2.0

> <Gold.Id.Protein>
1qkm|1qkm_protein|mol2

> <Gold.Protein.RotatedTorsions>
[  496  491  490  487 ] final -137.99 input  -89.99 | X-H torsion

> <Gold.Protein.ActiveResidues>
 MET295  LEU298  THR299  LEU301  ALA302  GLU305  TRP335  MET336  LEU339  MET340 
 GLY342  LEU343  ARG346  PHE356  ILE373  ILE376  PHE377  LEU380  LYS471  GLY472 
 MET473  HIS475  LEU476  LEU477  ASN478  MET479  VAL484  VAL487 

> <Gold.Protein.RotatedAtoms>
   37.1609   34.1041   40.7270 H   0  0  0  0  0  0  0  0  0  0  0  0  # atno 496  bound_to 491 

> <Gold.Score>
     Score     S(PLP)   S(hbond)     S(cho)   S(metal)  DE(clash)   DE(tors)     intcor
     41.39     -42.38       0.00       0.00       0.00       0.00       0.59       0.19

> <Gold.PLP.Fitness>
41.3948

> <Gold.PLP.PLP>
-42.3808

> <Gold.PLP.part.hbond>
0.0000

> <Gold.PLP.part.metal>
0.0000

> <Gold.PLP.part.buried>
-2.9598

> <Gold.PLP.part.nonpolar>
-41.0513

> <Gold.PLP.part.repulsive>
0.6454

> <Gold.PLP.ligand.clash>
0.0000

> <Gold.PLP.ligand.torsion>
0.5889

> <Gold.PLP.Chemscore.Hbond>
0.0000

> <Gold.PLP.Chemscore.CHOScore>
0.0000

> <Gold.PLP.Chemscore.Metal>
0.0000

> <Gold.PLP.Chemscore.Internal.Correction>
0.1917

