#       Name:                EN300-99098_i001
#       Creating user name   aseyller
#       Creation time:       Fri Apr 21 16:43:10 2023


#       File generated by GOLD software.
#

@<TRIPOS>MOLECULE
EN300-99098_i001|Sulfonylchlorides|mol2|66|dock5
    27    27     1
SMALL
USER_CHARGES


@<TRIPOS>ATOM
      1 C1          33.3352  36.7175  34.9165 C.3            1 <1>                0.0000
      2 C2          32.5453  37.9520  35.3556 C.3            1 <1>                0.0000
      3 O3          31.5222  37.5585  36.3080 O.3            1 <1>                0.0000
      4 C4          30.5301  38.4399  36.5388 C.2            1 <1>                0.0000
      5 O5          30.6431  39.5919  36.1704 O.2            1 <1>                0.0000
      6 C6          29.3045  38.0056  37.2399 C.ar           1 <1>                0.0000
      7 C7          29.3122  36.8406  38.0094 C.ar           1 <1>                0.0000
      8 C8          28.1643  36.4411  38.6619 C.ar           1 <1>                0.0000
      9 C9          27.0070  37.1918  38.5547 C.ar           1 <1>                0.0000
     10 C10         25.7567  36.7488  39.2700 C.3            1 <1>                0.0000
     11 S11         26.0660  36.7038  41.0569 S.o2           1 <1>                0.0000
     12 O12         26.7621  37.8711  41.4720 O.2            1 <1>                0.0000
     13 O13         24.9112  36.2535  41.7516 O.2            1 <1>                0.0000
     14 Cl14        27.4063  35.2120  41.2989 Cl             1 <1>                0.0000
     15 C15         26.9924  38.3476  37.7943 C.ar           1 <1>                0.0000
     16 C16         28.1346  38.7615  37.1408 C.ar           1 <1>                0.0000
     17 H17         33.8056  36.2588  35.7863 H              1 <1>                0.0000
     18 H18         32.6597  36.0013  34.4488 H              1 <1>                0.0000
     19 H19         34.1032  37.0129  34.2016 H              1 <1>                0.0000
     20 H20         33.2208  38.6682  35.8234 H              1 <1>                0.0000
     21 H21         32.0749  38.4107  34.4859 H              1 <1>                0.0000
     22 H22         30.2146  36.2532  38.0934 H              1 <1>                0.0000
     23 H23         28.1688  35.5401  39.2575 H              1 <1>                0.0000
     24 H24         24.9493  37.4500  39.0586 H              1 <1>                0.0000
     25 H25         25.4738  35.7543  38.9251 H              1 <1>                0.0000
     26 H26         26.0856  38.9289  37.7148 H              1 <1>                0.0000
     27 H27         28.1219  39.6638  36.5475 H              1 <1>                0.0000
@<TRIPOS>BOND
    1    1    2 1     
    2    1   17 1     
    3    1   18 1     
    4    1   19 1     
    5    2    3 1     
    6    2   20 1     
    7    2   21 1     
    8    3    4 1     
    9    4    5 2     
   10    4    6 1     
   11    6    7 ar    
   12    6   16 ar    
   13    7    8 ar    
   14    7   22 1     
   15    8    9 ar    
   16    8   23 1     
   17    9   10 1     
   18    9   15 ar    
   19   10   11 1     
   20   10   24 1     
   21   10   25 1     
   22   11   12 2     
   23   11   13 2     
   24   11   14 1     
   25   15   16 ar    
   26   15   26 1     
   27   16   27 1     
@<TRIPOS>SUBSTRUCTURE
      1 ****           1
@<TRIPOS>COMMENT
> <Gold.Version>
2022.2.0

> <Gold.Id.Protein>
1qkm|1qkm_protein|mol2

> <Gold.Protein.RotatedTorsions>
[  496  491  490  487 ] final    3.99 input  -89.99 | X-H torsion

> <Gold.Protein.ActiveResidues>
 MET295  LEU298  THR299  LEU301  ALA302  GLU305  TRP335  MET336  LEU339  MET340 
 GLY342  LEU343  ARG346  PHE356  ILE373  ILE376  PHE377  LEU380  LYS471  GLY472 
 MET473  HIS475  LEU476  LEU477  ASN478  MET479  VAL484  VAL487 

> <Gold.Protein.RotatedAtoms>
   36.2632   34.1559   42.2673 H   0  0  0  0  0  0  0  0  0  0  0  0  # atno 496  bound_to 491 

> <Gold.Score>
     Score     S(PLP)   S(hbond)     S(cho)   S(metal)  DE(clash)   DE(tors)     intcor
     41.77     -40.16       0.82       0.00       0.00       0.00       0.51       0.19

> <Gold.PLP.Fitness>
41.7723

> <Gold.PLP.PLP>
-40.1620

> <Gold.PLP.part.hbond>
-1.0000

> <Gold.PLP.part.metal>
0.0000

> <Gold.PLP.part.buried>
6.0902

> <Gold.PLP.part.nonpolar>
-47.9118

> <Gold.PLP.part.repulsive>
2.1431

> <Gold.PLP.ligand.clash>
0.0000

> <Gold.PLP.ligand.torsion>
0.5147

> <Gold.PLP.Chemscore.Hbond>
0.8160

> <Gold.PLP.Chemscore.CHOScore>
0.0000

> <Gold.PLP.Chemscore.Metal>
0.0000

> <Gold.Chemscore.Hbonds>
donor molecule, donor type, donor heavy atom, donor atom, acceptor molecule, acceptor atom, score
      P1  H  1258  1270       L1    13  0.82

> <Gold.PLP.Chemscore.Internal.Correction>
0.1917

