#       Name:                EN300-99098_i001
#       Creating user name   aseyller
#       Creation time:       Fri Apr 21 16:43:14 2023


#       File generated by GOLD software.
#

@<TRIPOS>MOLECULE
EN300-99098_i001|Sulfonylchlorides|mol2|66|dock9
    27    27     1
SMALL
USER_CHARGES


@<TRIPOS>ATOM
      1 C1          26.2026  37.5593  42.1485 C.3            1 <1>                0.0000
      2 C2          25.8002  37.0046  40.7806 C.3            1 <1>                0.0000
      3 O3          26.9667  36.9518  39.9175 O.3            1 <1>                0.0000
      4 C4          27.9816  36.1571  40.3089 C.2            1 <1>                0.0000
      5 O5          27.9024  35.5404  41.3524 O.2            1 <1>                0.0000
      6 C6          29.1908  36.0357  39.4691 C.ar           1 <1>                0.0000
      7 C7          29.9295  34.8509  39.4704 C.ar           1 <1>                0.0000
      8 C8          31.0575  34.7442  38.6834 C.ar           1 <1>                0.0000
      9 C9          31.4574  35.8080  37.8943 C.ar           1 <1>                0.0000
     10 C10         32.6910  35.6841  37.0375 C.3            1 <1>                0.0000
     11 S11         32.7112  37.0196  35.8100 S.o2           1 <1>                0.0000
     12 O12         32.6871  38.2872  36.4518 O.2            1 <1>                0.0000
     13 O13         33.6498  36.7371  34.7813 O.2            1 <1>                0.0000
     14 Cl14        30.9151  36.8903  34.8949 Cl             1 <1>                0.0000
     15 C15         30.7298  36.9848  37.8877 C.ar           1 <1>                0.0000
     16 C16         29.5969  37.1032  38.6658 C.ar           1 <1>                0.0000
     17 H17         26.9565  36.9115  42.5958 H              1 <1>                0.0000
     18 H18         26.6110  38.5627  42.0279 H              1 <1>                0.0000
     19 H19         25.3269  37.5990  42.7963 H              1 <1>                0.0000
     20 H20         25.3918  36.0013  40.9011 H              1 <1>                0.0000
     21 H21         25.0463  37.6525  40.3332 H              1 <1>                0.0000
     22 H22         29.6189  34.0200  40.0865 H              1 <1>                0.0000
     23 H23         31.6298  33.8283  38.6835 H              1 <1>                0.0000
     24 H24         33.5786  35.7550  37.6661 H              1 <1>                0.0000
     25 H25         32.6834  34.7213  36.5267 H              1 <1>                0.0000
     26 H26         31.0475  37.8114  37.2694 H              1 <1>                0.0000
     27 H27         29.0299  38.0224  38.6599 H              1 <1>                0.0000
@<TRIPOS>BOND
    1    1    2 1     
    2    1   17 1     
    3    1   18 1     
    4    1   19 1     
    5    2    3 1     
    6    2   20 1     
    7    2   21 1     
    8    3    4 1     
    9    4    5 2     
   10    4    6 1     
   11    6    7 ar    
   12    6   16 ar    
   13    7    8 ar    
   14    7   22 1     
   15    8    9 ar    
   16    8   23 1     
   17    9   10 1     
   18    9   15 ar    
   19   10   11 1     
   20   10   24 1     
   21   10   25 1     
   22   11   12 2     
   23   11   13 2     
   24   11   14 1     
   25   15   16 ar    
   26   15   26 1     
   27   16   27 1     
@<TRIPOS>SUBSTRUCTURE
      1 ****           1
@<TRIPOS>COMMENT
> <Gold.Version>
2022.2.0

> <Gold.Id.Protein>
1qkm|1qkm_protein|mol2

> <Gold.Protein.RotatedTorsions>
[  496  491  490  487 ] final -156.50 input  -89.99 | X-H torsion

> <Gold.Protein.ActiveResidues>
 MET295  LEU298  THR299  LEU301  ALA302  GLU305  TRP335  MET336  LEU339  MET340 
 GLY342  LEU343  ARG346  PHE356  ILE373  ILE376  PHE377  LEU380  LYS471  GLY472 
 MET473  HIS475  LEU476  LEU477  ASN478  MET479  VAL484  VAL487 

> <Gold.Protein.RotatedAtoms>
   37.2614   33.8182   40.7358 H   0  0  0  0  0  0  0  0  0  0  0  0  # atno 496  bound_to 491 

> <Gold.Score>
     Score     S(PLP)   S(hbond)     S(cho)   S(metal)  DE(clash)   DE(tors)     intcor
     44.46     -45.68       0.00       0.00       0.00       0.00       0.69       0.15

> <Gold.PLP.Fitness>
44.4569

> <Gold.PLP.PLP>
-45.6794

> <Gold.PLP.part.hbond>
0.0000

> <Gold.PLP.part.metal>
0.0000

> <Gold.PLP.part.buried>
-4.2961

> <Gold.PLP.part.nonpolar>
-42.0778

> <Gold.PLP.part.repulsive>
0.3819

> <Gold.PLP.ligand.clash>
0.0000

> <Gold.PLP.ligand.torsion>
0.6884

> <Gold.PLP.Chemscore.Hbond>
0.0000

> <Gold.PLP.Chemscore.CHOScore>
0.0000

> <Gold.PLP.Chemscore.Metal>
0.0000

> <Gold.PLP.Chemscore.Internal.Correction>
0.1541

