#       Name:                EN300-99098_i001
#       Creating user name   aseyller
#       Creation time:       Fri Apr 21 16:43:11 2023


#       File generated by GOLD software.
#

@<TRIPOS>MOLECULE
EN300-99098_i001|Sulfonylchlorides|mol2|66|dock6
    27    27     1
SMALL
USER_CHARGES


@<TRIPOS>ATOM
      1 C1          26.0988  37.5256  41.8023 C.3            1 <1>                0.0000
      2 C2          25.6395  36.3734  40.9067 C.3            1 <1>                0.0000
      3 O3          26.6298  36.1414  39.8704 O.3            1 <1>                0.0000
      4 C4          27.8696  35.8030  40.2741 C.2            1 <1>                0.0000
      5 O5          28.0253  35.1988  41.3164 O.2            1 <1>                0.0000
      6 C6          29.0400  36.1665  39.4492 C.ar           1 <1>                0.0000
      7 C7          30.1134  35.2822  39.3266 C.ar           1 <1>                0.0000
      8 C8          31.2030  35.6279  38.5544 C.ar           1 <1>                0.0000
      9 C9          31.2337  36.8479  37.9025 C.ar           1 <1>                0.0000
     10 C10         32.4276  37.2188  37.0609 C.3            1 <1>                0.0000
     11 S11         31.8810  37.6155  35.3774 S.o2           1 <1>                0.0000
     12 O12         32.9952  37.9228  34.5507 O.2            1 <1>                0.0000
     13 O13         30.8812  36.7010  34.9492 O.2            1 <1>                0.0000
     14 Cl14        30.9014  39.3720  35.5663 Cl             1 <1>                0.0000
     15 C15         30.1731  37.7288  38.0192 C.ar           1 <1>                0.0000
     16 C16         29.0750  37.3936  38.7839 C.ar           1 <1>                0.0000
     17 H17         27.0532  37.2699  42.2626 H              1 <1>                0.0000
     18 H18         26.2150  38.4282  41.2023 H              1 <1>                0.0000
     19 H19         25.3553  37.6998  42.5801 H              1 <1>                0.0000
     20 H20         25.5232  35.4709  41.5067 H              1 <1>                0.0000
     21 H21         24.6851  36.6291  40.4464 H              1 <1>                0.0000
     22 H22         30.0911  34.3299  39.8355 H              1 <1>                0.0000
     23 H23         32.0341  34.9447  38.4587 H              1 <1>                0.0000
     24 H24         32.9233  38.0866  37.4959 H              1 <1>                0.0000
     25 H25         33.1239  36.3808  37.0289 H              1 <1>                0.0000
     26 H26         30.2035  38.6795  37.5077 H              1 <1>                0.0000
     27 H27         28.2479  38.0821  38.8743 H              1 <1>                0.0000
@<TRIPOS>BOND
    1    1    2 1     
    2    1   17 1     
    3    1   18 1     
    4    1   19 1     
    5    2    3 1     
    6    2   20 1     
    7    2   21 1     
    8    3    4 1     
    9    4    5 2     
   10    4    6 1     
   11    6    7 ar    
   12    6   16 ar    
   13    7    8 ar    
   14    7   22 1     
   15    8    9 ar    
   16    8   23 1     
   17    9   10 1     
   18    9   15 ar    
   19   10   11 1     
   20   10   24 1     
   21   10   25 1     
   22   11   12 2     
   23   11   13 2     
   24   11   14 1     
   25   15   16 ar    
   26   15   26 1     
   27   16   27 1     
@<TRIPOS>SUBSTRUCTURE
      1 ****           1
@<TRIPOS>COMMENT
> <Gold.Version>
2022.2.0

> <Gold.Id.Protein>
1qkm|1qkm_protein|mol2

> <Gold.Protein.RotatedTorsions>
[  496  491  490  487 ] final  150.11 input  -89.99 | X-H torsion

> <Gold.Protein.ActiveResidues>
 MET295  LEU298  THR299  LEU301  ALA302  GLU305  TRP335  MET336  LEU339  MET340 
 GLY342  LEU343  ARG346  PHE356  ILE373  ILE376  PHE377  LEU380  LYS471  GLY472 
 MET473  HIS475  LEU476  LEU477  ASN478  MET479  VAL484  VAL487 

> <Gold.Protein.RotatedAtoms>
   37.2632   33.1052   41.1939 H   0  0  0  0  0  0  0  0  0  0  0  0  # atno 496  bound_to 491 

> <Gold.Score>
     Score     S(PLP)   S(hbond)     S(cho)   S(metal)  DE(clash)   DE(tors)     intcor
     43.21     -45.30       0.00       0.00       0.00       0.00       1.14       0.19

> <Gold.PLP.Fitness>
43.2101

> <Gold.PLP.PLP>
-45.3002

> <Gold.PLP.part.hbond>
0.0000

> <Gold.PLP.part.metal>
0.0000

> <Gold.PLP.part.buried>
-5.1830

> <Gold.PLP.part.nonpolar>
-41.8173

> <Gold.PLP.part.repulsive>
0.8580

> <Gold.PLP.ligand.clash>
0.0000

> <Gold.PLP.ligand.torsion>
1.1409

> <Gold.PLP.Chemscore.Hbond>
0.0000

> <Gold.PLP.Chemscore.CHOScore>
0.0000

> <Gold.PLP.Chemscore.Metal>
0.0000

> <Gold.PLP.Chemscore.Internal.Correction>
0.1917

