#       Name:                EN300-99098_i001
#       Creating user name   aseyller
#       Creation time:       Fri Apr 21 16:43:15 2023


#       File generated by GOLD software.
#

@<TRIPOS>MOLECULE
EN300-99098_i001|Sulfonylchlorides|mol2|66|dock10
    27    27     1
SMALL
USER_CHARGES


@<TRIPOS>ATOM
      1 C1          25.4806  37.3541  41.6239 C.3            1 <1>                0.0000
      2 C2          25.8033  36.0446  40.9014 C.3            1 <1>                0.0000
      3 O3          27.0484  36.1902  40.1686 O.3            1 <1>                0.0000
      4 C4          27.0491  37.0453  39.1278 C.2            1 <1>                0.0000
      5 O5          26.0218  37.6053  38.8010 O.2            1 <1>                0.0000
      6 C6          28.2991  37.3021  38.3836 C.ar           1 <1>                0.0000
      7 C7          29.4876  36.6818  38.7736 C.ar           1 <1>                0.0000
      8 C8          30.6511  36.9258  38.0739 C.ar           1 <1>                0.0000
      9 C9          30.6423  37.7833  36.9881 C.ar           1 <1>                0.0000
     10 C10         31.9174  38.0453  36.2288 C.3            1 <1>                0.0000
     11 S11         32.7913  36.4793  35.9559 S.o2           1 <1>                0.0000
     12 O12         33.4337  36.0522  37.1493 O.2            1 <1>                0.0000
     13 O13         31.9888  35.5863  35.1959 O.2            1 <1>                0.0000
     14 Cl14        34.3120  36.9602  34.7163 Cl             1 <1>                0.0000
     15 C15         29.4679  38.4010  36.5958 C.ar           1 <1>                0.0000
     16 C16         28.2961  38.1619  37.2833 C.ar           1 <1>                0.0000
     17 H17         26.2854  37.5935  42.3190 H              1 <1>                0.0000
     18 H18         25.3805  38.1569  40.8935 H              1 <1>                0.0000
     19 H19         24.5460  37.2447  42.1739 H              1 <1>                0.0000
     20 H20         25.9035  35.2417  41.6318 H              1 <1>                0.0000
     21 H21         24.9985  35.8052  40.2063 H              1 <1>                0.0000
     22 H22         29.4961  36.0128  39.6214 H              1 <1>                0.0000
     23 H23         31.5712  36.4466  38.3745 H              1 <1>                0.0000
     24 H24         31.6807  38.5016  35.2676 H              1 <1>                0.0000
     25 H25         32.5512  38.7195  36.8048 H              1 <1>                0.0000
     26 H26         29.4680  39.0693  35.7474 H              1 <1>                0.0000
     27 H27         27.3802  38.6447  36.9762 H              1 <1>                0.0000
@<TRIPOS>BOND
    1    1    2 1     
    2    1   17 1     
    3    1   18 1     
    4    1   19 1     
    5    2    3 1     
    6    2   20 1     
    7    2   21 1     
    8    3    4 1     
    9    4    5 2     
   10    4    6 1     
   11    6    7 ar    
   12    6   16 ar    
   13    7    8 ar    
   14    7   22 1     
   15    8    9 ar    
   16    8   23 1     
   17    9   10 1     
   18    9   15 ar    
   19   10   11 1     
   20   10   24 1     
   21   10   25 1     
   22   11   12 2     
   23   11   13 2     
   24   11   14 1     
   25   15   16 ar    
   26   15   26 1     
   27   16   27 1     
@<TRIPOS>SUBSTRUCTURE
      1 ****           1
@<TRIPOS>COMMENT
> <Gold.Version>
2022.2.0

> <Gold.Id.Protein>
1qkm|1qkm_protein|mol2

> <Gold.Protein.RotatedTorsions>
[  496  491  490  487 ] final  117.14 input  -89.99 | X-H torsion

> <Gold.Protein.ActiveResidues>
 MET295  LEU298  THR299  LEU301  ALA302  GLU305  TRP335  MET336  LEU339  MET340 
 GLY342  LEU343  ARG346  PHE356  ILE373  ILE376  PHE377  LEU380  LYS471  GLY472 
 MET473  HIS475  LEU476  LEU477  ASN478  MET479  VAL484  VAL487 

> <Gold.Protein.RotatedAtoms>
   37.0581   32.9403   41.6601 H   0  0  0  0  0  0  0  0  0  0  0  0  # atno 496  bound_to 491 

> <Gold.Score>
     Score     S(PLP)   S(hbond)     S(cho)   S(metal)  DE(clash)   DE(tors)     intcor
     40.59     -41.16       0.00       0.00       0.00       0.00       0.36       0.15

> <Gold.PLP.Fitness>
40.5883

> <Gold.PLP.PLP>
-41.1623

> <Gold.PLP.part.hbond>
0.0000

> <Gold.PLP.part.metal>
0.0000

> <Gold.PLP.part.buried>
1.0710

> <Gold.PLP.part.nonpolar>
-42.9131

> <Gold.PLP.part.repulsive>
0.2159

> <Gold.PLP.ligand.clash>
0.0000

> <Gold.PLP.ligand.torsion>
0.3640

> <Gold.PLP.Chemscore.Hbond>
0.0000

> <Gold.PLP.Chemscore.CHOScore>
0.0000

> <Gold.PLP.Chemscore.Metal>
0.0000

> <Gold.PLP.Chemscore.Internal.Correction>
0.1541

