#       Name:                EN300-99098_i001
#       Creating user name   aseyller
#       Creation time:       Fri Apr 21 16:43:20 2023


#       File generated by GOLD software.
#

@<TRIPOS>MOLECULE
EN300-99098_i001|Sulfonylchlorides|mol2|66|dock14
    27    27     1
SMALL
USER_CHARGES


@<TRIPOS>ATOM
      1 C1          25.3205  37.5538  41.7831 C.3            1 <1>                0.0000
      2 C2          25.4728  36.0471  41.5652 C.3            1 <1>                0.0000
      3 O3          26.6640  35.7903  40.7756 O.3            1 <1>                0.0000
      4 C4          26.7993  36.4846  39.6292 C.2            1 <1>                0.0000
      5 O5          25.8185  36.9385  39.0746 O.2            1 <1>                0.0000
      6 C6          28.1405  36.6940  39.0465 C.ar           1 <1>                0.0000
      7 C7          29.2380  35.9858  39.5398 C.ar           1 <1>                0.0000
      8 C8          30.4875  36.1860  38.9907 C.ar           1 <1>                0.0000
      9 C9          30.6547  37.0864  37.9535 C.ar           1 <1>                0.0000
     10 C10         32.0228  37.3001  37.3589 C.3            1 <1>                0.0000
     11 S11         31.9025  37.2985  35.5489 S.o2           1 <1>                0.0000
     12 O12         30.8777  36.4133  35.1181 O.2            1 <1>                0.0000
     13 O13         31.9869  38.6234  35.0424 O.2            1 <1>                0.0000
     14 Cl14        33.6128  36.4189  34.9309 Cl             1 <1>                0.0000
     15 C15         29.5714  37.7912  37.4594 C.ar           1 <1>                0.0000
     16 C16         28.3154  37.5969  37.9957 C.ar           1 <1>                0.0000
     17 H17         26.1950  37.9350  42.3104 H              1 <1>                0.0000
     18 H18         25.2315  38.0533  40.8184 H              1 <1>                0.0000
     19 H19         24.4263  37.7466  42.3758 H              1 <1>                0.0000
     20 H20         25.5618  35.5476  42.5299 H              1 <1>                0.0000
     21 H21         24.5982  35.6660  41.0379 H              1 <1>                0.0000
     22 H22         29.1091  35.2832  40.3498 H              1 <1>                0.0000
     23 H23         31.3374  35.6388  39.3713 H              1 <1>                0.0000
     24 H24         32.4199  38.2577  37.6957 H              1 <1>                0.0000
     25 H25         32.6877  36.4981  37.6796 H              1 <1>                0.0000
     26 H26         29.7088  38.4926  36.6497 H              1 <1>                0.0000
     27 H27         27.4706  38.1477  37.6092 H              1 <1>                0.0000
@<TRIPOS>BOND
    1    1    2 1     
    2    1   17 1     
    3    1   18 1     
    4    1   19 1     
    5    2    3 1     
    6    2   20 1     
    7    2   21 1     
    8    3    4 1     
    9    4    5 2     
   10    4    6 1     
   11    6    7 ar    
   12    6   16 ar    
   13    7    8 ar    
   14    7   22 1     
   15    8    9 ar    
   16    8   23 1     
   17    9   10 1     
   18    9   15 ar    
   19   10   11 1     
   20   10   24 1     
   21   10   25 1     
   22   11   12 2     
   23   11   13 2     
   24   11   14 1     
   25   15   16 ar    
   26   15   26 1     
   27   16   27 1     
@<TRIPOS>SUBSTRUCTURE
      1 ****           1
@<TRIPOS>COMMENT
> <Gold.Version>
2022.2.0

> <Gold.Id.Protein>
1qkm|1qkm_protein|mol2

> <Gold.Protein.RotatedTorsions>
[  496  491  490  487 ] final   69.00 input  -89.99 | X-H torsion

> <Gold.Protein.ActiveResidues>
 MET295  LEU298  THR299  LEU301  ALA302  GLU305  TRP335  MET336  LEU339  MET340 
 GLY342  LEU343  ARG346  PHE356  ILE373  ILE376  PHE377  LEU380  LYS471  GLY472 
 MET473  HIS475  LEU476  LEU477  ASN478  MET479  VAL484  VAL487 

> <Gold.Protein.RotatedAtoms>
   36.6285   33.2109   42.2381 H   0  0  0  0  0  0  0  0  0  0  0  0  # atno 496  bound_to 491 

> <Gold.Score>
     Score     S(PLP)   S(hbond)     S(cho)   S(metal)  DE(clash)   DE(tors)     intcor
     40.47     -42.42       0.00       0.00       0.00       0.00       1.05       0.15

> <Gold.PLP.Fitness>
40.4735

> <Gold.PLP.PLP>
-42.4206

> <Gold.PLP.part.hbond>
0.0000

> <Gold.PLP.part.metal>
0.0000

> <Gold.PLP.part.buried>
2.7556

> <Gold.PLP.part.nonpolar>
-45.7903

> <Gold.PLP.part.repulsive>
0.3576

> <Gold.PLP.ligand.clash>
0.0000

> <Gold.PLP.ligand.torsion>
1.0506

> <Gold.PLP.Chemscore.Hbond>
0.0000

> <Gold.PLP.Chemscore.CHOScore>
0.0000

> <Gold.PLP.Chemscore.Metal>
0.0000

> <Gold.PLP.Chemscore.Internal.Correction>
0.1541

