#       Name:                EN300-99098_i001
#       Creating user name   aseyller
#       Creation time:       Fri Apr 21 16:43:23 2023


#       File generated by GOLD software.
#

@<TRIPOS>MOLECULE
EN300-99098_i001|Sulfonylchlorides|mol2|66|dock16
    27    27     1
SMALL
USER_CHARGES


@<TRIPOS>ATOM
      1 C1          32.0230  37.9192  34.2817 C.3            1 <1>                0.0000
      2 C2          32.6001  38.1978  35.6710 C.3            1 <1>                0.0000
      3 O3          31.7656  37.5659  36.6773 O.3            1 <1>                0.0000
      4 C4          30.4773  37.9550  36.7358 C.2            1 <1>                0.0000
      5 O5          30.0717  38.8265  35.9931 O.2            1 <1>                0.0000
      6 C6          29.5577  37.3220  37.7032 C.ar           1 <1>                0.0000
      7 C7          28.1853  37.2896  37.4483 C.ar           1 <1>                0.0000
      8 C8          27.3323  36.6965  38.3558 C.ar           1 <1>                0.0000
      9 C9          27.8338  36.1348  39.5165 C.ar           1 <1>                0.0000
     10 C10         26.8957  35.4890  40.5034 C.3            1 <1>                0.0000
     11 S11         25.6837  36.7117  41.0749 S.o2           1 <1>                0.0000
     12 O12         25.3497  37.6106  40.0262 O.2            1 <1>                0.0000
     13 O13         24.6729  36.0858  41.8531 O.2            1 <1>                0.0000
     14 Cl14        26.7005  37.8479  42.3999 Cl             1 <1>                0.0000
     15 C15         29.1927  36.1630  39.7752 C.ar           1 <1>                0.0000
     16 C16         30.0577  36.7482  38.8739 C.ar           1 <1>                0.0000
     17 H17         31.9963  36.8434  34.1082 H              1 <1>                0.0000
     18 H18         31.0121  38.3223  34.2206 H              1 <1>                0.0000
     19 H19         32.6494  38.3936  33.5263 H              1 <1>                0.0000
     20 H20         33.6110  37.7947  35.7320 H              1 <1>                0.0000
     21 H21         32.6268  39.2736  35.8444 H              1 <1>                0.0000
     22 H22         27.7924  37.7282  36.5430 H              1 <1>                0.0000
     23 H23         26.2704  36.6706  38.1598 H              1 <1>                0.0000
     24 H24         26.3764  34.6602  40.0223 H              1 <1>                0.0000
     25 H25         27.4647  35.1160  41.3550 H              1 <1>                0.0000
     26 H26         29.5777  35.7227  40.6833 H              1 <1>                0.0000
     27 H27         31.1182  36.7696  39.0770 H              1 <1>                0.0000
@<TRIPOS>BOND
    1    1    2 1     
    2    1   17 1     
    3    1   18 1     
    4    1   19 1     
    5    2    3 1     
    6    2   20 1     
    7    2   21 1     
    8    3    4 1     
    9    4    5 2     
   10    4    6 1     
   11    6    7 ar    
   12    6   16 ar    
   13    7    8 ar    
   14    7   22 1     
   15    8    9 ar    
   16    8   23 1     
   17    9   10 1     
   18    9   15 ar    
   19   10   11 1     
   20   10   24 1     
   21   10   25 1     
   22   11   12 2     
   23   11   13 2     
   24   11   14 1     
   25   15   16 ar    
   26   15   26 1     
   27   16   27 1     
@<TRIPOS>SUBSTRUCTURE
      1 ****           1
@<TRIPOS>COMMENT
> <Gold.Version>
2022.2.0

> <Gold.Id.Protein>
1qkm|1qkm_protein|mol2

> <Gold.Protein.RotatedTorsions>
[  496  491  490  487 ] final  141.47 input  -89.99 | X-H torsion

> <Gold.Protein.ActiveResidues>
 MET295  LEU298  THR299  LEU301  ALA302  GLU305  TRP335  MET336  LEU339  MET340 
 GLY342  LEU343  ARG346  PHE356  ILE373  ILE376  PHE377  LEU380  LYS471  GLY472 
 MET473  HIS475  LEU476  LEU477  ASN478  MET479  VAL484  VAL487 

> <Gold.Protein.RotatedAtoms>
   37.2223   33.0354   41.3107 H   0  0  0  0  0  0  0  0  0  0  0  0  # atno 496  bound_to 491 

> <Gold.Score>
     Score     S(PLP)   S(hbond)     S(cho)   S(metal)  DE(clash)   DE(tors)     intcor
     42.11     -40.35       0.96       0.00       0.00       0.06       0.61       0.15

> <Gold.PLP.Fitness>
42.1075

> <Gold.PLP.PLP>
-40.3498

> <Gold.PLP.part.hbond>
-1.0000

> <Gold.PLP.part.metal>
0.0000

> <Gold.PLP.part.buried>
-4.3090

> <Gold.PLP.part.nonpolar>
-38.5495

> <Gold.PLP.part.repulsive>
3.3489

> <Gold.PLP.ligand.clash>
0.0571

> <Gold.PLP.ligand.torsion>
0.6097

> <Gold.PLP.Chemscore.Hbond>
0.9600

> <Gold.PLP.Chemscore.CHOScore>
0.0000

> <Gold.PLP.Chemscore.Metal>
0.0000

> <Gold.Chemscore.Hbonds>
donor molecule, donor type, donor heavy atom, donor atom, acceptor molecule, acceptor atom, score
      P1  H  1258  1270       L1    13  0.96

> <Gold.PLP.Chemscore.Internal.Correction>
0.1541

