#       Name:                EN300-99098_i001
#       Creating user name   aseyller
#       Creation time:       Fri Apr 21 16:43:12 2023


#       File generated by GOLD software.
#

@<TRIPOS>MOLECULE
EN300-99098_i001|Sulfonylchlorides|mol2|66|dock7
    27    27     1
SMALL
USER_CHARGES


@<TRIPOS>ATOM
      1 C1          25.5566  37.3306  41.4906 C.3            1 <1>                0.0000
      2 C2          25.9430  35.9928  40.8568 C.3            1 <1>                0.0000
      3 O3          27.1819  36.1483  40.1155 O.3            1 <1>                0.0000
      4 C4          27.1884  37.0539  39.1183 C.2            1 <1>                0.0000
      5 O5          26.1565  37.6056  38.7921 O.2            1 <1>                0.0000
      6 C6          28.4504  37.3761  38.4213 C.ar           1 <1>                0.0000
      7 C7          29.6219  36.6851  38.7366 C.ar           1 <1>                0.0000
      8 C8          30.7968  36.9908  38.0815 C.ar           1 <1>                0.0000
      9 C9          30.8160  37.9799  37.1142 C.ar           1 <1>                0.0000
     10 C10         32.1034  38.3086  36.4030 C.3            1 <1>                0.0000
     11 S11         32.3016  37.2104  34.9729 S.o2           1 <1>                0.0000
     12 O12         31.4208  36.0997  35.0711 O.2            1 <1>                0.0000
     13 O13         32.3967  37.9662  33.7733 O.2            1 <1>                0.0000
     14 Cl14        34.1414  36.4091  35.2039 Cl             1 <1>                0.0000
     15 C15         29.6586  38.6682  36.7963 C.ar           1 <1>                0.0000
     16 C16         28.4757  38.3691  37.4399 C.ar           1 <1>                0.0000
     17 H17         26.3471  37.6537  42.1679 H              1 <1>                0.0000
     18 H18         25.4206  38.0775  40.7084 H              1 <1>                0.0000
     19 H19         24.6266  37.2138  42.0469 H              1 <1>                0.0000
     20 H20         26.0790  35.2460  41.6389 H              1 <1>                0.0000
     21 H21         25.1525  35.6697  40.1794 H              1 <1>                0.0000
     22 H22         29.6085  35.9134  39.4920 H              1 <1>                0.0000
     23 H23         31.7038  36.4571  38.3245 H              1 <1>                0.0000
     24 H24         32.0775  39.3444  36.0648 H              1 <1>                0.0000
     25 H25         32.9414  38.1703  37.0862 H              1 <1>                0.0000
     26 H26         29.6806  39.4392  36.0402 H              1 <1>                0.0000
     27 H27         27.5730  38.9072  37.1910 H              1 <1>                0.0000
@<TRIPOS>BOND
    1    1    2 1     
    2    1   17 1     
    3    1   18 1     
    4    1   19 1     
    5    2    3 1     
    6    2   20 1     
    7    2   21 1     
    8    3    4 1     
    9    4    5 2     
   10    4    6 1     
   11    6    7 ar    
   12    6   16 ar    
   13    7    8 ar    
   14    7   22 1     
   15    8    9 ar    
   16    8   23 1     
   17    9   10 1     
   18    9   15 ar    
   19   10   11 1     
   20   10   24 1     
   21   10   25 1     
   22   11   12 2     
   23   11   13 2     
   24   11   14 1     
   25   15   16 ar    
   26   15   26 1     
   27   16   27 1     
@<TRIPOS>SUBSTRUCTURE
      1 ****           1
@<TRIPOS>COMMENT
> <Gold.Version>
2022.2.0

> <Gold.Id.Protein>
1qkm|1qkm_protein|mol2

> <Gold.Protein.RotatedTorsions>
[  496  491  490  487 ] final  -70.34 input  -89.99 | X-H torsion

> <Gold.Protein.ActiveResidues>
 MET295  LEU298  THR299  LEU301  ALA302  GLU305  TRP335  MET336  LEU339  MET340 
 GLY342  LEU343  ARG346  PHE356  ILE373  ILE376  PHE377  LEU380  LYS471  GLY472 
 MET473  HIS475  LEU476  LEU477  ASN478  MET479  VAL484  VAL487 

> <Gold.Protein.RotatedAtoms>
   36.5812   34.7323   41.3370 H   0  0  0  0  0  0  0  0  0  0  0  0  # atno 496  bound_to 491 

> <Gold.Score>
     Score     S(PLP)   S(hbond)     S(cho)   S(metal)  DE(clash)   DE(tors)     intcor
     43.18     -44.09       0.00       0.00       0.00       0.00       0.55       0.18

> <Gold.PLP.Fitness>
43.1788

> <Gold.PLP.PLP>
-44.0926

> <Gold.PLP.part.hbond>
0.0000

> <Gold.PLP.part.metal>
0.0000

> <Gold.PLP.part.buried>
-3.4542

> <Gold.PLP.part.nonpolar>
-41.6708

> <Gold.PLP.part.repulsive>
0.3834

> <Gold.PLP.ligand.clash>
0.0000

> <Gold.PLP.ligand.torsion>
0.5452

> <Gold.PLP.Chemscore.Hbond>
0.0000

> <Gold.PLP.Chemscore.CHOScore>
0.0000

> <Gold.PLP.Chemscore.Metal>
0.0000

> <Gold.PLP.Chemscore.Internal.Correction>
0.1766

