#       Name:                EN300-99098_i001
#       Creating user name   aseyller
#       Creation time:       Fri Apr 21 16:43:29 2023


#       File generated by GOLD software.
#

@<TRIPOS>MOLECULE
EN300-99098_i001|Sulfonylchlorides|mol2|66|dock20
    27    27     1
SMALL
USER_CHARGES


@<TRIPOS>ATOM
      1 C1          33.5121  36.6665  34.9006 C.3            1 <1>                0.0000
      2 C2          32.7707  37.8872  35.4491 C.3            1 <1>                0.0000
      3 O3          31.4369  37.4954  35.8684 O.3            1 <1>                0.0000
      4 C4          31.2742  37.1714  37.1657 C.2            1 <1>                0.0000
      5 O5          32.2335  36.8431  37.8348 O.2            1 <1>                0.0000
      6 C6          29.9291  37.2151  37.7750 C.ar           1 <1>                0.0000
      7 C7          29.7675  36.9563  39.1374 C.ar           1 <1>                0.0000
      8 C8          28.5087  36.9993  39.6999 C.ar           1 <1>                0.0000
      9 C9          27.4075  37.2977  38.9170 C.ar           1 <1>                0.0000
     10 C10         26.0354  37.3424  39.5384 C.3            1 <1>                0.0000
     11 S11         26.0551  36.4423  41.1132 S.o2           1 <1>                0.0000
     12 O12         24.7650  36.4514  41.7090 O.2            1 <1>                0.0000
     13 O13         26.7961  35.2363  40.9890 O.2            1 <1>                0.0000
     14 Cl14        27.1771  37.5927  42.3372 Cl             1 <1>                0.0000
     15 C15         27.5605  37.5558  37.5663 C.ar           1 <1>                0.0000
     16 C16         28.8143  37.5214  36.9920 C.ar           1 <1>                0.0000
     17 H17         33.5844  35.9057  35.6778 H              1 <1>                0.0000
     18 H18         32.9668  36.2633  34.0472 H              1 <1>                0.0000
     19 H19         34.5133  36.9607  34.5858 H              1 <1>                0.0000
     20 H20         33.3160  38.2904  36.3024 H              1 <1>                0.0000
     21 H21         32.6984  38.6480  34.6718 H              1 <1>                0.0000
     22 H22         30.6260  36.7225  39.7495 H              1 <1>                0.0000
     23 H23         28.3822  36.7993  40.7537 H              1 <1>                0.0000
     24 H24         25.7506  38.3794  39.7163 H              1 <1>                0.0000
     25 H25         25.3158  36.8786  38.8638 H              1 <1>                0.0000
     26 H26         26.6968  37.7880  36.9609 H              1 <1>                0.0000
     27 H27         28.9323  37.7229  35.9375 H              1 <1>                0.0000
@<TRIPOS>BOND
    1    1    2 1     
    2    1   17 1     
    3    1   18 1     
    4    1   19 1     
    5    2    3 1     
    6    2   20 1     
    7    2   21 1     
    8    3    4 1     
    9    4    5 2     
   10    4    6 1     
   11    6    7 ar    
   12    6   16 ar    
   13    7    8 ar    
   14    7   22 1     
   15    8    9 ar    
   16    8   23 1     
   17    9   10 1     
   18    9   15 ar    
   19   10   11 1     
   20   10   24 1     
   21   10   25 1     
   22   11   12 2     
   23   11   13 2     
   24   11   14 1     
   25   15   16 ar    
   26   15   26 1     
   27   16   27 1     
@<TRIPOS>SUBSTRUCTURE
      1 ****           1
@<TRIPOS>COMMENT
> <Gold.Version>
2022.2.0

> <Gold.Id.Protein>
1qkm|1qkm_protein|mol2

> <Gold.Protein.RotatedTorsions>
[  496  491  490  487 ] final  -95.29 input  -89.99 | X-H torsion

> <Gold.Protein.ActiveResidues>
 MET295  LEU298  THR299  LEU301  ALA302  GLU305  TRP335  MET336  LEU339  MET340 
 GLY342  LEU343  ARG346  PHE356  ILE373  ILE376  PHE377  LEU380  LYS471  GLY472 
 MET473  HIS475  LEU476  LEU477  ASN478  MET479  VAL484  VAL487 

> <Gold.Protein.RotatedAtoms>
   36.8063   34.6152   41.0181 H   0  0  0  0  0  0  0  0  0  0  0  0  # atno 496  bound_to 491 

> <Gold.Score>
     Score     S(PLP)   S(hbond)     S(cho)   S(metal)  DE(clash)   DE(tors)     intcor
     39.90     -39.36       0.77       0.00       0.00       0.00       0.96       0.15

> <Gold.PLP.Fitness>
39.9041

> <Gold.PLP.PLP>
-39.3602

> <Gold.PLP.part.hbond>
-1.0000

> <Gold.PLP.part.metal>
0.0000

> <Gold.PLP.part.buried>
-4.0925

> <Gold.PLP.part.nonpolar>
-36.4272

> <Gold.PLP.part.repulsive>
2.6855

> <Gold.PLP.ligand.clash>
0.0000

> <Gold.PLP.ligand.torsion>
0.9571

> <Gold.PLP.Chemscore.Hbond>
0.7680

> <Gold.PLP.Chemscore.CHOScore>
0.0000

> <Gold.PLP.Chemscore.Metal>
0.0000

> <Gold.Chemscore.Hbonds>
donor molecule, donor type, donor heavy atom, donor atom, acceptor molecule, acceptor atom, score
      P1  H  1258  1270       L1    12  0.77

> <Gold.PLP.Chemscore.Internal.Correction>
0.1541

