#       Name:                EN300-99098_i001
#       Creating user name   aseyller
#       Creation time:       Fri Apr 21 16:43:24 2023


#       File generated by GOLD software.
#

@<TRIPOS>MOLECULE
EN300-99098_i001|Sulfonylchlorides|mol2|66|dock17
    27    27     1
SMALL
USER_CHARGES


@<TRIPOS>ATOM
      1 C1          25.7991  37.2889  41.5280 C.3            1 <1>                0.0000
      2 C2          25.4749  36.9669  40.0679 C.3            1 <1>                0.0000
      3 O3          26.6686  37.1353  39.2585 O.3            1 <1>                0.0000
      4 C4          27.7378  36.3824  39.5817 C.2            1 <1>                0.0000
      5 O5          27.6364  35.5134  40.4244 O.2            1 <1>                0.0000
      6 C6          29.0338  36.6135  38.9113 C.ar           1 <1>                0.0000
      7 C7          30.1163  35.7698  39.1676 C.ar           1 <1>                0.0000
      8 C8          31.3234  35.9911  38.5378 C.ar           1 <1>                0.0000
      9 C9          31.4631  37.0466  37.6541 C.ar           1 <1>                0.0000
     10 C10         32.7850  37.2824  36.9702 C.3            1 <1>                0.0000
     11 S11         32.6373  36.8698  35.2099 S.o2           1 <1>                0.0000
     12 O12         31.6537  37.6850  34.5875 O.2            1 <1>                0.0000
     13 O13         33.9224  36.6992  34.6282 O.2            1 <1>                0.0000
     14 Cl14        31.8325  35.0171  35.1924 Cl             1 <1>                0.0000
     15 C15         30.3943  37.8863  37.3951 C.ar           1 <1>                0.0000
     16 C16         29.1800  37.6733  38.0140 C.ar           1 <1>                0.0000
     17 H17         26.5779  36.6147  41.8845 H              1 <1>                0.0000
     18 H18         26.1474  38.3189  41.6042 H              1 <1>                0.0000
     19 H19         24.9030  37.1626  42.1355 H              1 <1>                0.0000
     20 H20         25.1265  35.9369  39.9916 H              1 <1>                0.0000
     21 H21         24.6961  37.6412  39.7113 H              1 <1>                0.0000
     22 H22         30.0090  34.9460  39.8577 H              1 <1>                0.0000
     23 H23         32.1617  35.3392  38.7351 H              1 <1>                0.0000
     24 H24         33.0668  38.3301  37.0753 H              1 <1>                0.0000
     25 H25         33.5483  36.6532  37.4280 H              1 <1>                0.0000
     26 H26         30.5100  38.7084  36.7043 H              1 <1>                0.0000
     27 H27         28.3466  38.3296  37.8110 H              1 <1>                0.0000
@<TRIPOS>BOND
    1    1    2 1     
    2    1   17 1     
    3    1   18 1     
    4    1   19 1     
    5    2    3 1     
    6    2   20 1     
    7    2   21 1     
    8    3    4 1     
    9    4    5 2     
   10    4    6 1     
   11    6    7 ar    
   12    6   16 ar    
   13    7    8 ar    
   14    7   22 1     
   15    8    9 ar    
   16    8   23 1     
   17    9   10 1     
   18    9   15 ar    
   19   10   11 1     
   20   10   24 1     
   21   10   25 1     
   22   11   12 2     
   23   11   13 2     
   24   11   14 1     
   25   15   16 ar    
   26   15   26 1     
   27   16   27 1     
@<TRIPOS>SUBSTRUCTURE
      1 ****           1
@<TRIPOS>COMMENT
> <Gold.Version>
2022.2.0

> <Gold.Id.Protein>
1qkm|1qkm_protein|mol2

> <Gold.Protein.RotatedTorsions>
[  496  491  490  487 ] final  -88.00 input  -89.99 | X-H torsion

> <Gold.Protein.ActiveResidues>
 MET295  LEU298  THR299  LEU301  ALA302  GLU305  TRP335  MET336  LEU339  MET340 
 GLY342  LEU343  ARG346  PHE356  ILE373  ILE376  PHE377  LEU380  LYS471  GLY472 
 MET473  HIS475  LEU476  LEU477  ASN478  MET479  VAL484  VAL487 

> <Gold.Protein.RotatedAtoms>
   36.7389   34.6659   41.1034 H   0  0  0  0  0  0  0  0  0  0  0  0  # atno 496  bound_to 491 

> <Gold.Score>
     Score     S(PLP)   S(hbond)     S(cho)   S(metal)  DE(clash)   DE(tors)     intcor
     42.13     -42.61       0.00       0.00       0.00       0.00       0.32       0.15

> <Gold.PLP.Fitness>
42.1270

> <Gold.PLP.PLP>
-42.6138

> <Gold.PLP.part.hbond>
0.0000

> <Gold.PLP.part.metal>
0.0000

> <Gold.PLP.part.buried>
-3.8230

> <Gold.PLP.part.nonpolar>
-40.9402

> <Gold.PLP.part.repulsive>
1.3180

> <Gold.PLP.ligand.clash>
0.0000

> <Gold.PLP.ligand.torsion>
0.3205

> <Gold.PLP.Chemscore.Hbond>
0.0000

> <Gold.PLP.Chemscore.CHOScore>
0.0000

> <Gold.PLP.Chemscore.Metal>
0.0000

> <Gold.PLP.Chemscore.Internal.Correction>
0.1541

