#       Name:                EN300-99098_i001
#       Creating user name   aseyller
#       Creation time:       Fri Apr 21 16:43:18 2023


#       File generated by GOLD software.
#

@<TRIPOS>MOLECULE
EN300-99098_i001|Sulfonylchlorides|mol2|66|dock12
    27    27     1
SMALL
USER_CHARGES


@<TRIPOS>ATOM
      1 C1          25.2344  37.5165  40.8196 C.3            1 <1>                0.0000
      2 C2          26.4277  36.6924  41.3074 C.3            1 <1>                0.0000
      3 O3          27.4604  36.6850  40.2867 O.3            1 <1>                0.0000
      4 C4          28.6011  36.0293  40.5756 C.2            1 <1>                0.0000
      5 O5          28.7550  35.5330  41.6737 O.2            1 <1>                0.0000
      6 C6          29.6648  35.9136  39.5572 C.ar           1 <1>                0.0000
      7 C7          29.8394  36.9223  38.6077 C.ar           1 <1>                0.0000
      8 C8          30.8351  36.8080  37.6598 C.ar           1 <1>                0.0000
      9 C9          31.6595  35.6969  37.6482 C.ar           1 <1>                0.0000
     10 C10         32.7447  35.5789  36.6093 C.3            1 <1>                0.0000
     11 S11         32.4461  36.7805  35.2837 S.o2           1 <1>                0.0000
     12 O12         33.4679  36.7014  34.2994 O.2            1 <1>                0.0000
     13 O13         31.0736  36.7865  34.9159 O.2            1 <1>                0.0000
     14 Cl14        32.7353  38.5782  36.1584 Cl             1 <1>                0.0000
     15 C15         31.4923  34.6938  38.5865 C.ar           1 <1>                0.0000
     16 C16         30.5041  34.7977  39.5433 C.ar           1 <1>                0.0000
     17 H17         25.5559  38.5388  40.6206 H              1 <1>                0.0000
     18 H18         24.8380  37.0757  39.9049 H              1 <1>                0.0000
     19 H19         24.4592  37.5220  41.5858 H              1 <1>                0.0000
     20 H20         26.8241  37.1332  42.2221 H              1 <1>                0.0000
     21 H21         26.1062  35.6701  41.5064 H              1 <1>                0.0000
     22 H22         29.1962  37.7898  38.6150 H              1 <1>                0.0000
     23 H23         30.9712  37.5876  36.9247 H              1 <1>                0.0000
     24 H24         33.7121  35.7791  37.0700 H              1 <1>                0.0000
     25 H25         32.7418  34.5712  36.1938 H              1 <1>                0.0000
     26 H26         32.1393  33.8291  38.5719 H              1 <1>                0.0000
     27 H27         30.3747  34.0140  40.2751 H              1 <1>                0.0000
@<TRIPOS>BOND
    1    1    2 1     
    2    1   17 1     
    3    1   18 1     
    4    1   19 1     
    5    2    3 1     
    6    2   20 1     
    7    2   21 1     
    8    3    4 1     
    9    4    5 2     
   10    4    6 1     
   11    6    7 ar    
   12    6   16 ar    
   13    7    8 ar    
   14    7   22 1     
   15    8    9 ar    
   16    8   23 1     
   17    9   10 1     
   18    9   15 ar    
   19   10   11 1     
   20   10   24 1     
   21   10   25 1     
   22   11   12 2     
   23   11   13 2     
   24   11   14 1     
   25   15   16 ar    
   26   15   26 1     
   27   16   27 1     
@<TRIPOS>SUBSTRUCTURE
      1 ****           1
@<TRIPOS>COMMENT
> <Gold.Version>
2022.2.0

> <Gold.Id.Protein>
1qkm|1qkm_protein|mol2

> <Gold.Protein.RotatedTorsions>
[  496  491  490  487 ] final  116.22 input  -89.99 | X-H torsion

> <Gold.Protein.ActiveResidues>
 MET295  LEU298  THR299  LEU301  ALA302  GLU305  TRP335  MET336  LEU339  MET340 
 GLY342  LEU343  ARG346  PHE356  ILE373  ILE376  PHE377  LEU380  LYS471  GLY472 
 MET473  HIS475  LEU476  LEU477  ASN478  MET479  VAL484  VAL487 

> <Gold.Protein.RotatedAtoms>
   37.0507   32.9398   41.6733 H   0  0  0  0  0  0  0  0  0  0  0  0  # atno 496  bound_to 491 

> <Gold.Score>
     Score     S(PLP)   S(hbond)     S(cho)   S(metal)  DE(clash)   DE(tors)     intcor
     42.74     -44.04       0.00       0.00       0.00       0.01       0.72       0.15

> <Gold.PLP.Fitness>
42.7410

> <Gold.PLP.PLP>
-44.0406

> <Gold.PLP.part.hbond>
-0.2475

> <Gold.PLP.part.metal>
0.0000

> <Gold.PLP.part.buried>
-3.6772

> <Gold.PLP.part.nonpolar>
-41.4698

> <Gold.PLP.part.repulsive>
1.0856

> <Gold.PLP.ligand.clash>
0.0091

> <Gold.PLP.ligand.torsion>
0.7223

> <Gold.PLP.Chemscore.Hbond>
0.0000

> <Gold.PLP.Chemscore.CHOScore>
0.0000

> <Gold.PLP.Chemscore.Metal>
0.0000

> <Gold.PLP.Chemscore.Internal.Correction>
0.1541

