#       Name:                EN300-99098_i001
#       Creating user name   aseyller
#       Creation time:       Fri Apr 21 16:43:22 2023


#       File generated by GOLD software.
#

@<TRIPOS>MOLECULE
EN300-99098_i001|Sulfonylchlorides|mol2|66|dock15
    27    27     1
SMALL
USER_CHARGES


@<TRIPOS>ATOM
      1 C1          26.1584  37.5466  42.2585 C.3            1 <1>                0.0000
      2 C2          25.4311  36.7189  41.1970 C.3            1 <1>                0.0000
      3 O3          26.1210  36.8482  39.9259 O.3            1 <1>                0.0000
      4 C4          27.3827  36.3804  39.8645 C.2            1 <1>                0.0000
      5 O5          27.7189  35.4460  40.5641 O.2            1 <1>                0.0000
      6 C6          28.3577  37.0038  38.9463 C.ar           1 <1>                0.0000
      7 C7          29.7210  36.7349  39.0830 C.ar           1 <1>                0.0000
      8 C8          30.6259  37.3201  38.2219 C.ar           1 <1>                0.0000
      9 C9          30.1854  38.1720  37.2246 C.ar           1 <1>                0.0000
     10 C10         31.1800  38.8080  36.2878 C.3            1 <1>                0.0000
     11 S11         31.6973  37.5958  35.0414 S.o2           1 <1>                0.0000
     12 O12         30.6358  36.6976  34.7486 O.2            1 <1>                0.0000
     13 O13         32.4274  38.2310  34.0010 O.2            1 <1>                0.0000
     14 Cl14        33.0692  36.4542  35.9875 Cl             1 <1>                0.0000
     15 C15         28.8358  38.4424  37.0831 C.ar           1 <1>                0.0000
     16 C16         27.9195  37.8599  37.9340 C.ar           1 <1>                0.0000
     17 H17         27.1818  37.1861  42.3622 H              1 <1>                0.0000
     18 H18         26.1709  38.5940  41.9569 H              1 <1>                0.0000
     19 H19         25.6405  37.4496  43.2127 H              1 <1>                0.0000
     20 H20         25.4186  35.6715  41.4987 H              1 <1>                0.0000
     21 H21         24.4077  37.0794  41.0933 H              1 <1>                0.0000
     22 H22         30.0663  36.0707  39.8614 H              1 <1>                0.0000
     23 H23         31.6808  37.1130  38.3265 H              1 <1>                0.0000
     24 H24         30.7185  39.6629  35.7936 H              1 <1>                0.0000
     25 H25         32.0500  39.1414  36.8534 H              1 <1>                0.0000
     26 H26         28.4987  39.1085  36.3025 H              1 <1>                0.0000
     27 H27         26.8664  38.0719  37.8225 H              1 <1>                0.0000
@<TRIPOS>BOND
    1    1    2 1     
    2    1   17 1     
    3    1   18 1     
    4    1   19 1     
    5    2    3 1     
    6    2   20 1     
    7    2   21 1     
    8    3    4 1     
    9    4    5 2     
   10    4    6 1     
   11    6    7 ar    
   12    6   16 ar    
   13    7    8 ar    
   14    7   22 1     
   15    8    9 ar    
   16    8   23 1     
   17    9   10 1     
   18    9   15 ar    
   19   10   11 1     
   20   10   24 1     
   21   10   25 1     
   22   11   12 2     
   23   11   13 2     
   24   11   14 1     
   25   15   16 ar    
   26   15   26 1     
   27   16   27 1     
@<TRIPOS>SUBSTRUCTURE
      1 ****           1
@<TRIPOS>COMMENT
> <Gold.Version>
2022.2.0

> <Gold.Id.Protein>
1qkm|1qkm_protein|mol2

> <Gold.Protein.RotatedTorsions>
[  496  491  490  487 ] final    7.22 input  -89.99 | X-H torsion

> <Gold.Protein.ActiveResidues>
 MET295  LEU298  THR299  LEU301  ALA302  GLU305  TRP335  MET336  LEU339  MET340 
 GLY342  LEU343  ARG346  PHE356  ILE373  ILE376  PHE377  LEU380  LYS471  GLY472 
 MET473  HIS475  LEU476  LEU477  ASN478  MET479  VAL484  VAL487 

> <Gold.Protein.RotatedAtoms>
   36.2679   34.1081   42.2900 H   0  0  0  0  0  0  0  0  0  0  0  0  # atno 496  bound_to 491 

> <Gold.Score>
     Score     S(PLP)   S(hbond)     S(cho)   S(metal)  DE(clash)   DE(tors)     intcor
     41.59     -43.62       0.00       0.00       0.00       0.00       1.09       0.15

> <Gold.PLP.Fitness>
41.5913

> <Gold.PLP.PLP>
-43.6216

> <Gold.PLP.part.hbond>
0.0000

> <Gold.PLP.part.metal>
0.0000

> <Gold.PLP.part.buried>
-3.7996

> <Gold.PLP.part.nonpolar>
-40.6834

> <Gold.PLP.part.repulsive>
0.4377

> <Gold.PLP.ligand.clash>
0.0000

> <Gold.PLP.ligand.torsion>
1.0922

> <Gold.PLP.Chemscore.Hbond>
0.0000

> <Gold.PLP.Chemscore.CHOScore>
0.0000

> <Gold.PLP.Chemscore.Metal>
0.0000

> <Gold.PLP.Chemscore.Internal.Correction>
0.1541

