#       Name:                EN300-99098_i001
#       Creating user name   aseyller
#       Creation time:       Fri Apr 21 16:43:19 2023


#       File generated by GOLD software.
#

@<TRIPOS>MOLECULE
EN300-99098_i001|Sulfonylchlorides|mol2|66|dock13
    27    27     1
SMALL
USER_CHARGES


@<TRIPOS>ATOM
      1 C1          25.4848  37.5912  41.7977 C.3            1 <1>                0.0000
      2 C2          25.5026  36.1037  41.4403 C.3            1 <1>                0.0000
      3 O3          26.6794  35.8119  40.6413 O.3            1 <1>                0.0000
      4 C4          26.8282  36.5050  39.4959 C.2            1 <1>                0.0000
      5 O5          25.8541  36.9596  38.9301 O.2            1 <1>                0.0000
      6 C6          28.1760  36.7123  38.9277 C.ar           1 <1>                0.0000
      7 C7          28.3602  37.5984  37.8646 C.ar           1 <1>                0.0000
      8 C8          29.6216  37.7876  37.3392 C.ar           1 <1>                0.0000
      9 C9          30.7028  37.1014  37.8631 C.ar           1 <1>                0.0000
     10 C10         32.0777  37.3129  37.2836 C.3            1 <1>                0.0000
     11 S11         31.9681  37.3765  35.4740 S.o2           1 <1>                0.0000
     12 O12         33.2617  37.5053  34.9003 O.2            1 <1>                0.0000
     13 O13         31.0480  36.4051  34.9958 O.2            1 <1>                0.0000
     14 Cl14        31.0724  39.1449  35.0853 Cl             1 <1>                0.0000
     15 C15         30.5275  36.2221  38.9170 C.ar           1 <1>                0.0000
     16 C16         29.2724  36.0274  39.4554 C.ar           1 <1>                0.0000
     17 H17         26.3808  37.8390  42.3667 H              1 <1>                0.0000
     18 H18         25.4593  38.1842  40.8835 H              1 <1>                0.0000
     19 H19         24.6013  37.8102  42.3974 H              1 <1>                0.0000
     20 H20         25.5280  35.5106  42.3545 H              1 <1>                0.0000
     21 H21         24.6065  35.8559  40.8712 H              1 <1>                0.0000
     22 H22         27.5171  38.1342  37.4541 H              1 <1>                0.0000
     23 H23         29.7655  38.4728  36.5167 H              1 <1>                0.0000
     24 H24         32.4886  38.2513  37.6559 H              1 <1>                0.0000
     25 H25         32.7273  36.4891  37.5795 H              1 <1>                0.0000
     26 H26         31.3757  35.6896  39.3212 H              1 <1>                0.0000
     27 H27         29.1369  35.3408  40.2780 H              1 <1>                0.0000
@<TRIPOS>BOND
    1    1    2 1     
    2    1   17 1     
    3    1   18 1     
    4    1   19 1     
    5    2    3 1     
    6    2   20 1     
    7    2   21 1     
    8    3    4 1     
    9    4    5 2     
   10    4    6 1     
   11    6    7 ar    
   12    6   16 ar    
   13    7    8 ar    
   14    7   22 1     
   15    8    9 ar    
   16    8   23 1     
   17    9   10 1     
   18    9   15 ar    
   19   10   11 1     
   20   10   24 1     
   21   10   25 1     
   22   11   12 2     
   23   11   13 2     
   24   11   14 1     
   25   15   16 ar    
   26   15   26 1     
   27   16   27 1     
@<TRIPOS>SUBSTRUCTURE
      1 ****           1
@<TRIPOS>COMMENT
> <Gold.Version>
2022.2.0

> <Gold.Id.Protein>
1qkm|1qkm_protein|mol2

> <Gold.Protein.RotatedTorsions>
[  496  491  490  487 ] final   37.27 input  -89.99 | X-H torsion

> <Gold.Protein.ActiveResidues>
 MET295  LEU298  THR299  LEU301  ALA302  GLU305  TRP335  MET336  LEU339  MET340 
 GLY342  LEU343  ARG346  PHE356  ILE373  ILE376  PHE377  LEU380  LYS471  GLY472 
 MET473  HIS475  LEU476  LEU477  ASN478  MET479  VAL484  VAL487 

> <Gold.Protein.RotatedAtoms>
   36.3868   33.6429   42.3824 H   0  0  0  0  0  0  0  0  0  0  0  0  # atno 496  bound_to 491 

> <Gold.Score>
     Score     S(PLP)   S(hbond)     S(cho)   S(metal)  DE(clash)   DE(tors)     intcor
     41.13     -42.68       0.00       0.00       0.00       0.00       0.85       0.15

> <Gold.PLP.Fitness>
41.1288

> <Gold.PLP.PLP>
-42.6755

> <Gold.PLP.part.hbond>
0.0000

> <Gold.PLP.part.metal>
0.0000

> <Gold.PLP.part.buried>
-0.0069

> <Gold.PLP.part.nonpolar>
-43.3116

> <Gold.PLP.part.repulsive>
0.4359

> <Gold.PLP.ligand.clash>
0.0000

> <Gold.PLP.ligand.torsion>
0.8504

> <Gold.PLP.Chemscore.Hbond>
0.0000

> <Gold.PLP.Chemscore.CHOScore>
0.0000

> <Gold.PLP.Chemscore.Metal>
0.0000

> <Gold.PLP.Chemscore.Internal.Correction>
0.1541

