#       Name:                EN300-99098_i001
#       Creating user name   aseyller
#       Creation time:       Fri Apr 21 16:43:13 2023


#       File generated by GOLD software.
#

@<TRIPOS>MOLECULE
EN300-99098_i001|Sulfonylchlorides|mol2|66|dock8
    27    27     1
SMALL
USER_CHARGES


@<TRIPOS>ATOM
      1 C1          25.8048  37.3170  41.7984 C.3            1 <1>                0.0000
      2 C2          25.7957  36.3255  40.6332 C.3            1 <1>                0.0000
      3 O3          26.7406  36.7606  39.6201 O.3            1 <1>                0.0000
      4 C4          28.0127  36.3362  39.7478 C.2            1 <1>                0.0000
      5 O5          28.3189  35.6021  40.6659 O.2            1 <1>                0.0000
      6 C6          29.0354  36.7635  38.7712 C.ar           1 <1>                0.0000
      7 C7          28.6943  37.6333  37.7337 C.ar           1 <1>                0.0000
      8 C8          29.6545  38.0286  36.8255 C.ar           1 <1>                0.0000
      9 C9          30.9530  37.5650  36.9409 C.ar           1 <1>                0.0000
     10 C10         31.9964  38.0010  35.9448 C.3            1 <1>                0.0000
     11 S11         32.9490  36.5580  35.3962 S.o2           1 <1>                0.0000
     12 O12         32.0936  35.4398  35.2034 O.2            1 <1>                0.0000
     13 O13         33.8980  36.9334  34.4076 O.2            1 <1>                0.0000
     14 Cl14        34.0713  36.0560  36.9989 Cl             1 <1>                0.0000
     15 C15         31.2981  36.7033  37.9670 C.ar           1 <1>                0.0000
     16 C16         30.3491  36.3041  38.8852 C.ar           1 <1>                0.0000
     17 H17         26.8049  37.3618  42.2296 H              1 <1>                0.0000
     18 H18         25.5205  38.3052  41.4369 H              1 <1>                0.0000
     19 H19         25.0955  36.9905  42.5588 H              1 <1>                0.0000
     20 H20         26.0801  35.3373  40.9947 H              1 <1>                0.0000
     21 H21         24.7956  36.2808  40.2020 H              1 <1>                0.0000
     22 H22         27.6810  37.9954  37.6419 H              1 <1>                0.0000
     23 H23         29.3920  38.7014  36.0224 H              1 <1>                0.0000
     24 H24         31.5087  38.4622  35.0860 H              1 <1>                0.0000
     25 H25         32.6665  38.7222  36.4127 H              1 <1>                0.0000
     26 H26         32.3135  36.3451  38.0513 H              1 <1>                0.0000
     27 H27         30.6197  35.6314  39.6856 H              1 <1>                0.0000
@<TRIPOS>BOND
    1    1    2 1     
    2    1   17 1     
    3    1   18 1     
    4    1   19 1     
    5    2    3 1     
    6    2   20 1     
    7    2   21 1     
    8    3    4 1     
    9    4    5 2     
   10    4    6 1     
   11    6    7 ar    
   12    6   16 ar    
   13    7    8 ar    
   14    7   22 1     
   15    8    9 ar    
   16    8   23 1     
   17    9   10 1     
   18    9   15 ar    
   19   10   11 1     
   20   10   24 1     
   21   10   25 1     
   22   11   12 2     
   23   11   13 2     
   24   11   14 1     
   25   15   16 ar    
   26   15   26 1     
   27   16   27 1     
@<TRIPOS>SUBSTRUCTURE
      1 ****           1
@<TRIPOS>COMMENT
> <Gold.Version>
2022.2.0

> <Gold.Id.Protein>
1qkm|1qkm_protein|mol2

> <Gold.Protein.RotatedTorsions>
[  496  491  490  487 ] final -172.11 input  -89.99 | X-H torsion

> <Gold.Protein.ActiveResidues>
 MET295  LEU298  THR299  LEU301  ALA302  GLU305  TRP335  MET336  LEU339  MET340 
 GLY342  LEU343  ARG346  PHE356  ILE373  ILE376  PHE377  LEU380  LYS471  GLY472 
 MET473  HIS475  LEU476  LEU477  ASN478  MET479  VAL484  VAL487 

> <Gold.Protein.RotatedAtoms>
   37.3085   33.5771   40.8091 H   0  0  0  0  0  0  0  0  0  0  0  0  # atno 496  bound_to 491 

> <Gold.Score>
     Score     S(PLP)   S(hbond)     S(cho)   S(metal)  DE(clash)   DE(tors)     intcor
     40.59     -41.50       0.00       0.00       0.00       0.00       0.54       0.18

> <Gold.PLP.Fitness>
40.5943

> <Gold.PLP.PLP>
-41.5014

> <Gold.PLP.part.hbond>
0.0000

> <Gold.PLP.part.metal>
0.0000

> <Gold.PLP.part.buried>
-4.3780

> <Gold.PLP.part.nonpolar>
-40.2370

> <Gold.PLP.part.repulsive>
2.9628

> <Gold.PLP.ligand.clash>
0.0000

> <Gold.PLP.ligand.torsion>
0.5419

> <Gold.PLP.Chemscore.Hbond>
0.0000

> <Gold.PLP.Chemscore.CHOScore>
0.0000

> <Gold.PLP.Chemscore.Metal>
0.0000

> <Gold.PLP.Chemscore.Internal.Correction>
0.1766

