#       Name:                EN300-99098_i001
#       Creating user name   aseyller
#       Creation time:       Fri Apr 21 16:43:06 2023


#       File generated by GOLD software.
#

@<TRIPOS>MOLECULE
EN300-99098_i001|Sulfonylchlorides|mol2|66|dock1
    27    27     1
SMALL
USER_CHARGES


@<TRIPOS>ATOM
      1 C1          25.6222  37.3267  41.1993 C.3            1 <1>                0.0000
      2 C2          25.4888  37.2174  39.6792 C.3            1 <1>                0.0000
      3 O3          26.8075  37.2625  39.0730 O.3            1 <1>                0.0000
      4 C4          27.6845  36.3102  39.4451 C.2            1 <1>                0.0000
      5 O5          27.3345  35.4223  40.1966 O.2            1 <1>                0.0000
      6 C6          29.0720  36.3454  38.9393 C.ar           1 <1>                0.0000
      7 C7          29.9776  35.3478  39.3055 C.ar           1 <1>                0.0000
      8 C8          31.2716  35.3866  38.8291 C.ar           1 <1>                0.0000
      9 C9          31.6730  36.4114  37.9906 C.ar           1 <1>                0.0000
     10 C10         33.0884  36.4474  37.4745 C.3            1 <1>                0.0000
     11 S11         33.0718  36.4143  35.6608 S.o2           1 <1>                0.0000
     12 O12         34.3978  36.4025  35.1501 O.2            1 <1>                0.0000
     13 O13         32.0964  35.4957  35.1878 O.2            1 <1>                0.0000
     14 Cl14        32.3498  38.2248  35.1303 Cl             1 <1>                0.0000
     15 C15         30.7807  37.4030  37.6233 C.ar           1 <1>                0.0000
     16 C16         29.4822  37.3735  38.0881 C.ar           1 <1>                0.0000
     17 H17         26.2220  36.4964  41.5721 H              1 <1>                0.0000
     18 H18         26.1073  38.2688  41.4547 H              1 <1>                0.0000
     19 H19         24.6323  37.2929  41.6543 H              1 <1>                0.0000
     20 H20         25.0037  36.2753  39.4238 H              1 <1>                0.0000
     21 H21         24.8890  38.0477  39.3063 H              1 <1>                0.0000
     22 H22         29.6659  34.5477  39.9605 H              1 <1>                0.0000
     23 H23         31.9731  34.6155  39.1116 H              1 <1>                0.0000
     24 H24         33.5769  37.3597  37.8167 H              1 <1>                0.0000
     25 H25         33.6337  35.5810  37.8487 H              1 <1>                0.0000
     26 H26         31.1005  38.2001  36.9684 H              1 <1>                0.0000
     27 H27         28.7867  38.1482  37.8007 H              1 <1>                0.0000
@<TRIPOS>BOND
    1    1    2 1     
    2    1   17 1     
    3    1   18 1     
    4    1   19 1     
    5    2    3 1     
    6    2   20 1     
    7    2   21 1     
    8    3    4 1     
    9    4    5 2     
   10    4    6 1     
   11    6    7 ar    
   12    6   16 ar    
   13    7    8 ar    
   14    7   22 1     
   15    8    9 ar    
   16    8   23 1     
   17    9   10 1     
   18    9   15 ar    
   19   10   11 1     
   20   10   24 1     
   21   10   25 1     
   22   11   12 2     
   23   11   13 2     
   24   11   14 1     
   25   15   16 ar    
   26   15   26 1     
   27   16   27 1     
@<TRIPOS>SUBSTRUCTURE
      1 ****           1
@<TRIPOS>COMMENT
> <Gold.Version>
2022.2.0

> <Gold.Id.Protein>
1qkm|1qkm_protein|mol2

> <Gold.Protein.RotatedTorsions>
[  496  491  490  487 ] final  146.13 input  -89.99 | X-H torsion

> <Gold.Protein.ActiveResidues>
 MET295  LEU298  THR299  LEU301  ALA302  GLU305  TRP335  MET336  LEU339  MET340 
 GLY342  LEU343  ARG346  PHE356  ILE373  ILE376  PHE377  LEU380  LYS471  GLY472 
 MET473  HIS475  LEU476  LEU477  ASN478  MET479  VAL484  VAL487 

> <Gold.Protein.RotatedAtoms>
   37.2456   33.0709   41.2468 H   0  0  0  0  0  0  0  0  0  0  0  0  # atno 496  bound_to 491 

> <Gold.Score>
     Score     S(PLP)   S(hbond)     S(cho)   S(metal)  DE(clash)   DE(tors)     intcor
     47.89     -48.01       0.00       0.00       0.00       0.00       0.20       0.28

> <Gold.PLP.Fitness>
47.8940

> <Gold.PLP.PLP>
-48.0108

> <Gold.PLP.part.hbond>
0.0000

> <Gold.PLP.part.metal>
0.0000

> <Gold.PLP.part.buried>
-2.3381

> <Gold.PLP.part.nonpolar>
-46.6105

> <Gold.PLP.part.repulsive>
0.3349

> <Gold.PLP.ligand.clash>
0.0000

> <Gold.PLP.ligand.torsion>
0.1995

> <Gold.PLP.Chemscore.Hbond>
0.0000

> <Gold.PLP.Chemscore.CHOScore>
0.0000

> <Gold.PLP.Chemscore.Metal>
0.0000

> <Gold.PLP.Chemscore.Internal.Correction>
0.2822

