#       Name:                EN300-99098_i001
#       Creating user name   aseyller
#       Creation time:       Fri Apr 21 16:43:05 2023


#       File generated by GOLD software.
#

@<TRIPOS>MOLECULE
EN300-99098_i001
    27    27     1
SMALL
USER_CHARGES


@<TRIPOS>ATOM
      1 C1           4.8513   1.6028   0.3922 C.3            1 <1>                0.0000
      2 C2           4.1326   0.2578   0.5154 C.3            1 <1>                0.0000
      3 O3           2.7262   0.4296   0.1976 O.3            1 <1>                0.0000
      4 C4           1.9469  -0.6674   0.2591 C.2            1 <1>                0.0000
      5 O5           2.4289  -1.7383   0.5697 O.2            1 <1>                0.0000
      6 C6           0.5060  -0.5682  -0.0512 C.ar           1 <1>                0.0000
      7 C7          -0.3047  -1.7032   0.0116 C.ar           1 <1>                0.0000
      8 C8          -1.6495  -1.6033  -0.2790 C.ar           1 <1>                0.0000
      9 C9          -2.1953  -0.3820  -0.6324 C.ar           1 <1>                0.0000
     10 C10         -3.6652  -0.2807  -0.9489 C.3            1 <1>                0.0000
     11 S11         -4.5867   0.0879   0.5695 S.o2           1 <1>                0.0000
     12 O12         -4.5506  -1.0217   1.4565 O.2            1 <1>                0.0000
     13 O13         -4.2910   1.4006   1.0260 O.2            1 <1>                0.0000
     14 Cl14        -6.5151   0.1892  -0.0233 Cl             1 <1>                0.0000
     15 C15         -1.3978   0.7469  -0.6961 C.ar           1 <1>                0.0000
     16 C16         -0.0525   0.6623  -0.4029 C.ar           1 <1>                0.0000
     17 H17          4.7521   1.9758  -0.6272 H              1 <1>                0.0000
     18 H18          4.4069   2.3171   1.0853 H              1 <1>                0.0000
     19 H19          5.9070   1.4738   0.6308 H              1 <1>                0.0000
     20 H20          4.5770  -0.4565  -0.1777 H              1 <1>                0.0000
     21 H21          4.2318  -0.1152   1.5348 H              1 <1>                0.0000
     22 H22          0.1201  -2.6573   0.2866 H              1 <1>                0.0000
     23 H23         -2.2778  -2.4805  -0.2308 H              1 <1>                0.0000
     24 H24         -3.8266   0.5166  -1.6744 H              1 <1>                0.0000
     25 H25         -4.0133  -1.2262  -1.3647 H              1 <1>                0.0000
     26 H26         -1.8302   1.6972  -0.9727 H              1 <1>                0.0000
     27 H27          0.5689   1.5442  -0.4531 H              1 <1>                0.0000
@<TRIPOS>BOND
    1    1    2 1     
    2    1   17 1     
    3    1   18 1     
    4    1   19 1     
    5    2    3 1     
    6    2   20 1     
    7    2   21 1     
    8    3    4 1     
    9    4    5 2     
   10    4    6 1     
   11    6    7 ar    
   12    6   16 ar    
   13    7    8 ar    
   14    7   22 1     
   15    8    9 ar    
   16    8   23 1     
   17    9   10 1     
   18    9   15 ar    
   19   10   11 1     
   20   10   24 1     
   21   10   25 1     
   22   11   12 2     
   23   11   13 2     
   24   11   14 1     
   25   15   16 ar    
   26   15   26 1     
   27   16   27 1     
@<TRIPOS>SUBSTRUCTURE
      1 ****           1
