#       Name:                EN300-99098_i001
#       Creating user name   aseyller
#       Creation time:       Fri Apr 21 16:43:08 2023


#       File generated by GOLD software.
#

@<TRIPOS>MOLECULE
EN300-99098_i001|Sulfonylchlorides|mol2|66|dock3
    27    27     1
SMALL
USER_CHARGES


@<TRIPOS>ATOM
      1 C1          25.4999  37.5691  41.2146 C.3            1 <1>                0.0000
      2 C2          25.7760  36.1003  40.8874 C.3            1 <1>                0.0000
      3 O3          27.1464  35.9557  40.4294 O.3            1 <1>                0.0000
      4 C4          27.4981  36.6435  39.3259 C.2            1 <1>                0.0000
      5 O5          26.6603  37.2682  38.7067 O.2            1 <1>                0.0000
      6 C6          28.9028  36.6380  38.8685 C.ar           1 <1>                0.0000
      7 C7          29.8182  35.7430  39.4256 C.ar           1 <1>                0.0000
      8 C8          31.1283  35.7430  38.9935 C.ar           1 <1>                0.0000
      9 C9          31.5359  36.6274  38.0106 C.ar           1 <1>                0.0000
     10 C10         32.9688  36.6218  37.5439 C.3            1 <1>                0.0000
     11 S11         33.0144  36.6552  35.7308 S.o2           1 <1>                0.0000
     12 O12         32.3749  35.5050  35.1947 O.2            1 <1>                0.0000
     13 O13         32.7075  37.9559  35.2482 O.2            1 <1>                0.0000
     14 Cl14        34.9648  36.4006  35.2709 Cl             1 <1>                0.0000
     15 C15         30.6338  37.5166  37.4539 C.ar           1 <1>                0.0000
     16 C16         29.3196  37.5238  37.8728 C.ar           1 <1>                0.0000
     17 H17         26.1817  37.9014  41.9976 H              1 <1>                0.0000
     18 H18         25.6501  38.1749  40.3210 H              1 <1>                0.0000
     19 H19         24.4713  37.6776  41.5584 H              1 <1>                0.0000
     20 H20         25.6259  35.4945  41.7810 H              1 <1>                0.0000
     21 H21         25.0943  35.7680  40.1045 H              1 <1>                0.0000
     22 H22         29.5016  35.0526  40.1934 H              1 <1>                0.0000
     23 H23         31.8375  35.0512  39.4236 H              1 <1>                0.0000
     24 H24         33.4823  37.4995  37.9365 H              1 <1>                0.0000
     25 H25         33.4644  35.7200  37.9033 H              1 <1>                0.0000
     26 H26         30.9586  38.2044  36.6870 H              1 <1>                0.0000
     27 H27         28.6165  38.2185  37.4375 H              1 <1>                0.0000
@<TRIPOS>BOND
    1    1    2 1     
    2    1   17 1     
    3    1   18 1     
    4    1   19 1     
    5    2    3 1     
    6    2   20 1     
    7    2   21 1     
    8    3    4 1     
    9    4    5 2     
   10    4    6 1     
   11    6    7 ar    
   12    6   16 ar    
   13    7    8 ar    
   14    7   22 1     
   15    8    9 ar    
   16    8   23 1     
   17    9   10 1     
   18    9   15 ar    
   19   10   11 1     
   20   10   24 1     
   21   10   25 1     
   22   11   12 2     
   23   11   13 2     
   24   11   14 1     
   25   15   16 ar    
   26   15   26 1     
   27   16   27 1     
@<TRIPOS>SUBSTRUCTURE
      1 ****           1
@<TRIPOS>COMMENT
> <Gold.Version>
2022.2.0

> <Gold.Id.Protein>
1qkm|1qkm_protein|mol2

> <Gold.Protein.RotatedTorsions>
[  496  491  490  487 ] final -152.08 input  -89.99 | X-H torsion

> <Gold.Protein.ActiveResidues>
 MET295  LEU298  THR299  LEU301  ALA302  GLU305  TRP335  MET336  LEU339  MET340 
 GLY342  LEU343  ARG346  PHE356  ILE373  ILE376  PHE377  LEU380  LYS471  GLY472 
 MET473  HIS475  LEU476  LEU477  ASN478  MET479  VAL484  VAL487 

> <Gold.Protein.RotatedAtoms>
   37.2415   33.8873   40.7258 H   0  0  0  0  0  0  0  0  0  0  0  0  # atno 496  bound_to 491 

> <Gold.Score>
     Score     S(PLP)   S(hbond)     S(cho)   S(metal)  DE(clash)   DE(tors)     intcor
     43.93     -44.38       0.00       0.00       0.00       0.00       0.37       0.28

> <Gold.PLP.Fitness>
43.9324

> <Gold.PLP.PLP>
-44.3837

> <Gold.PLP.part.hbond>
0.0000

> <Gold.PLP.part.metal>
0.0000

> <Gold.PLP.part.buried>
-4.1998

> <Gold.PLP.part.nonpolar>
-40.9760

> <Gold.PLP.part.repulsive>
0.2977

> <Gold.PLP.ligand.clash>
0.0000

> <Gold.PLP.ligand.torsion>
0.3668

> <Gold.PLP.Chemscore.Hbond>
0.0000

> <Gold.PLP.Chemscore.CHOScore>
0.0000

> <Gold.PLP.Chemscore.Metal>
0.0000

> <Gold.PLP.Chemscore.Internal.Correction>
0.2822

