#       Name:                EN300-99098_i001
#       Creating user name   aseyller
#       Creation time:       Fri Apr 21 16:43:27 2023


#       File generated by GOLD software.
#

@<TRIPOS>MOLECULE
EN300-99098_i001|Sulfonylchlorides|mol2|66|dock19
    27    27     1
SMALL
USER_CHARGES


@<TRIPOS>ATOM
      1 C1          25.7162  37.0106  41.1198 C.3            1 <1>                0.0000
      2 C2          25.3297  37.6006  39.7621 C.3            1 <1>                0.0000
      3 O3          26.4816  37.5766  38.8784 O.3            1 <1>                0.0000
      4 C4          27.1393  36.4068  38.7626 C.2            1 <1>                0.0000
      5 O5          26.5402  35.3578  38.8908 O.2            1 <1>                0.0000
      6 C6          28.5892  36.3994  38.4796 C.ar           1 <1>                0.0000
      7 C7          29.3629  35.2855  38.8115 C.ar           1 <1>                0.0000
      8 C8          30.7162  35.2852  38.5440 C.ar           1 <1>                0.0000
      9 C9          31.3072  36.3855  37.9486 C.ar           1 <1>                0.0000
     10 C10         32.7862  36.3780  37.6598 C.3            1 <1>                0.0000
     11 S11         33.0540  36.5260  35.8718 S.o2           1 <1>                0.0000
     12 O12         32.5572  35.3785  35.1966 O.2            1 <1>                0.0000
     13 O13         32.7305  37.8357  35.4258 O.2            1 <1>                0.0000
     14 Cl14        35.0582  36.4053  35.6507 Cl             1 <1>                0.0000
     15 C15         30.5463  37.4924  37.6166 C.ar           1 <1>                0.0000
     16 C16         29.1910  37.5041  37.8736 C.ar           1 <1>                0.0000
     17 H17         26.0508  35.9817  40.9869 H              1 <1>                0.0000
     18 H18         26.5216  37.6010  41.5567 H              1 <1>                0.0000
     19 H19         24.8515  37.0286  41.7832 H              1 <1>                0.0000
     20 H20         24.5243  37.0102  39.3253 H              1 <1>                0.0000
     21 H21         24.9951  38.6295  39.8950 H              1 <1>                0.0000
     22 H22         28.9030  34.4263  39.2769 H              1 <1>                0.0000
     23 H23         31.3158  34.4242  38.8002 H              1 <1>                0.0000
     24 H24         33.2601  37.2173  38.1688 H              1 <1>                0.0000
     25 H25         33.2213  35.4444  38.0163 H              1 <1>                0.0000
     26 H26         31.0139  38.3480  37.1520 H              1 <1>                0.0000
     27 H27         28.5983  38.3688  37.6141 H              1 <1>                0.0000
@<TRIPOS>BOND
    1    1    2 1     
    2    1   17 1     
    3    1   18 1     
    4    1   19 1     
    5    2    3 1     
    6    2   20 1     
    7    2   21 1     
    8    3    4 1     
    9    4    5 2     
   10    4    6 1     
   11    6    7 ar    
   12    6   16 ar    
   13    7    8 ar    
   14    7   22 1     
   15    8    9 ar    
   16    8   23 1     
   17    9   10 1     
   18    9   15 ar    
   19   10   11 1     
   20   10   24 1     
   21   10   25 1     
   22   11   12 2     
   23   11   13 2     
   24   11   14 1     
   25   15   16 ar    
   26   15   26 1     
   27   16   27 1     
@<TRIPOS>SUBSTRUCTURE
      1 ****           1
@<TRIPOS>COMMENT
> <Gold.Version>
2022.2.0

> <Gold.Id.Protein>
1qkm|1qkm_protein|mol2

> <Gold.Protein.RotatedTorsions>
[  496  491  490  487 ] final -153.43 input  -89.99 | X-H torsion

> <Gold.Protein.ActiveResidues>
 MET295  LEU298  THR299  LEU301  ALA302  GLU305  TRP335  MET336  LEU339  MET340 
 GLY342  LEU343  ARG346  PHE356  ILE373  ILE376  PHE377  LEU380  LYS471  GLY472 
 MET473  HIS475  LEU476  LEU477  ASN478  MET479  VAL484  VAL487 

> <Gold.Protein.RotatedAtoms>
   37.2479   33.8663   40.7283 H   0  0  0  0  0  0  0  0  0  0  0  0  # atno 496  bound_to 491 

> <Gold.Score>
     Score     S(PLP)   S(hbond)     S(cho)   S(metal)  DE(clash)   DE(tors)     intcor
     39.23     -40.48       0.00       0.00       0.00       0.00       0.70       0.15

> <Gold.PLP.Fitness>
39.2337

> <Gold.PLP.PLP>
-40.4781

> <Gold.PLP.part.hbond>
0.0000

> <Gold.PLP.part.metal>
0.0000

> <Gold.PLP.part.buried>
-2.0060

> <Gold.PLP.part.nonpolar>
-39.5722

> <Gold.PLP.part.repulsive>
0.2876

> <Gold.PLP.ligand.clash>
0.0000

> <Gold.PLP.ligand.torsion>
0.6993

> <Gold.PLP.Chemscore.Hbond>
0.0000

> <Gold.PLP.Chemscore.CHOScore>
0.0000

> <Gold.PLP.Chemscore.Metal>
0.0000

> <Gold.PLP.Chemscore.Internal.Correction>
0.1541

