#       Name:                EN300-155270_i001
#       Creating user name   aseyller
#       Creation time:       Fri Apr 21 19:37:46 2023


#       File generated by GOLD software.
#

@<TRIPOS>MOLECULE
EN300-155270_i001|benzaldehydes|mol2|884|dock9
    20    21     1
SMALL
USER_CHARGES


@<TRIPOS>ATOM
      1 O1          28.5646  35.8090  41.6489 O.2            1 <1>                0.0000
      2 C2          28.6532  36.6568  40.7859 C.2            1 <1>                0.0000
      3 C3          29.5433  36.4457  39.6387 C.2            1 <1>                0.0000
      4 C4          29.7666  37.3119  38.6012 C.2            1 <1>                0.0000
      5 C5          30.7000  36.6225  37.7803 C.2            1 <1>                0.0000
      6 N6          30.9334  35.4768  38.3694 N.2            1 <1>                0.0000
      7 O7          30.3093  35.3635  39.3982 O.3            1 <1>                0.0000
      8 C8          31.2922  37.1057  36.5076 C.ar           1 <1>                0.0000
      9 C9          30.6850  38.1434  35.8036 C.ar           1 <1>                0.0000
     10 C10         31.2398  38.5887  34.6209 C.ar           1 <1>                0.0000
     11 C11         32.3961  38.0065  34.1340 C.ar           1 <1>                0.0000
     12 C12         33.0030  36.9759  34.8290 C.ar           1 <1>                0.0000
     13 C13         32.4602  36.5270  36.0159 C.ar           1 <1>                0.0000
     14 H14         28.0734  37.5650  40.8595 H              1 <1>                0.0000
     15 H15         29.3344  38.2890  38.4439 H              1 <1>                0.0000
     16 H16         29.7817  38.5982  36.1826 H              1 <1>                0.0000
     17 H17         30.7699  39.3930  34.0744 H              1 <1>                0.0000
     18 H18         32.8266  38.3575  33.2077 H              1 <1>                0.0000
     19 H19         33.9056  36.5245  34.4442 H              1 <1>                0.0000
     20 H20         32.9350  35.7226  36.5579 H              1 <1>                0.0000
@<TRIPOS>BOND
    1    1    2 2     
    2    2    3 1     
    3    2   14 1     
    4    3    4 2     
    5    3    7 1     
    6    4    5 1     
    7    4   15 1     
    8    5    6 2     
    9    5    8 1     
   10    6    7 1     
   11    8    9 ar    
   12    8   13 ar    
   13    9   10 ar    
   14    9   16 1     
   15   10   11 ar    
   16   10   17 1     
   17   11   12 ar    
   18   11   18 1     
   19   12   13 ar    
   20   12   19 1     
   21   13   20 1     
@<TRIPOS>SUBSTRUCTURE
      1 ****           1
@<TRIPOS>COMMENT
> <Gold.Version>
2022.2.0

> <Gold.Id.Protein>
1qkm|1qkm_protein|mol2

> <Gold.Protein.RotatedTorsions>
[  496  491  490  487 ] final   35.55 input  -89.99 | X-H torsion

> <Gold.Protein.ActiveResidues>
 MET295  LEU298  THR299  LEU301  ALA302  GLU305  TRP335  MET336  LEU339  MET340 
 GLY342  LEU343  ARG346  PHE356  ILE373  ILE376  PHE377  LEU380  LYS471  GLY472 
 MET473  HIS475  LEU476  LEU477  ASN478  MET479  VAL484  VAL487 

> <Gold.Protein.RotatedAtoms>
   36.3766   33.6693   42.3832 H   0  0  0  0  0  0  0  0  0  0  0  0  # atno 496  bound_to 491 

> <Gold.Score>
     Score     S(PLP)   S(hbond)     S(cho)   S(metal)  DE(clash)   DE(tors)     intcor
     42.11     -42.43       0.00       0.00       0.00       0.00       0.16       0.00

> <Gold.PLP.Fitness>
42.1142

> <Gold.PLP.PLP>
-42.4277

> <Gold.PLP.part.hbond>
0.0000

> <Gold.PLP.part.metal>
0.0000

> <Gold.PLP.part.buried>
-4.9836

> <Gold.PLP.part.nonpolar>
-38.1408

> <Gold.PLP.part.repulsive>
0.6264

> <Gold.PLP.ligand.clash>
0.0000

> <Gold.PLP.ligand.torsion>
0.1568

> <Gold.PLP.Chemscore.Hbond>
0.0000

> <Gold.PLP.Chemscore.CHOScore>
0.0000

> <Gold.PLP.Chemscore.Metal>
0.0000

> <Gold.PLP.Chemscore.Internal.Correction>
0.0001

