#       Name:                EN300-155270_i001
#       Creating user name   aseyller
#       Creation time:       Fri Apr 21 19:37:52 2023


#       File generated by GOLD software.
#

@<TRIPOS>MOLECULE
EN300-155270_i001|benzaldehydes|mol2|884|dock20
    20    21     1
SMALL
USER_CHARGES


@<TRIPOS>ATOM
      1 O1          32.5653  36.5612  35.0890 O.2            1 <1>                0.0000
      2 C2          31.9776  37.6168  34.9813 C.2            1 <1>                0.0000
      3 C3          30.7640  37.8644  35.7680 C.2            1 <1>                0.0000
      4 C4          30.1553  36.9962  36.6352 C.2            1 <1>                0.0000
      5 C5          29.0379  37.7296  37.1190 C.2            1 <1>                0.0000
      6 N6          29.0812  38.8984  36.5304 N.2            1 <1>                0.0000
      7 O7          30.0288  38.9936  35.7863 O.3            1 <1>                0.0000
      8 C8          28.0233  37.2629  38.0971 C.ar           1 <1>                0.0000
      9 C9          28.2981  36.1762  38.9246 C.ar           1 <1>                0.0000
     10 C10         27.3512  35.7464  39.8321 C.ar           1 <1>                0.0000
     11 C11         26.1312  36.3921  39.9208 C.ar           1 <1>                0.0000
     12 C12         25.8533  37.4715  39.1015 C.ar           1 <1>                0.0000
     13 C13         26.7952  37.9135  38.1947 C.ar           1 <1>                0.0000
     14 H14         32.3500  38.3762  34.3097 H              1 <1>                0.0000
     15 H15         30.4540  35.9904  36.8910 H              1 <1>                0.0000
     16 H16         29.2501  35.6710  38.8557 H              1 <1>                0.0000
     17 H17         27.5632  34.9042  40.4741 H              1 <1>                0.0000
     18 H18         25.3928  36.0521  40.6318 H              1 <1>                0.0000
     19 H19         24.8989  37.9718  39.1745 H              1 <1>                0.0000
     20 H20         26.5774  38.7565  37.5559 H              1 <1>                0.0000
@<TRIPOS>BOND
    1    1    2 2     
    2    2    3 1     
    3    2   14 1     
    4    3    4 2     
    5    3    7 1     
    6    4    5 1     
    7    4   15 1     
    8    5    6 2     
    9    5    8 1     
   10    6    7 1     
   11    8    9 ar    
   12    8   13 ar    
   13    9   10 ar    
   14    9   16 1     
   15   10   11 ar    
   16   10   17 1     
   17   11   12 ar    
   18   11   18 1     
   19   12   13 ar    
   20   12   19 1     
   21   13   20 1     
@<TRIPOS>SUBSTRUCTURE
      1 ****           1
@<TRIPOS>COMMENT
> <Gold.Version>
2022.2.0

> <Gold.Id.Protein>
1qkm|1qkm_protein|mol2

> <Gold.Protein.RotatedTorsions>
[  496  491  490  487 ] final   19.14 input  -89.99 | X-H torsion

> <Gold.Protein.ActiveResidues>
 MET295  LEU298  THR299  LEU301  ALA302  GLU305  TRP335  MET336  LEU339  MET340 
 GLY342  LEU343  ARG346  PHE356  ILE373  ILE376  PHE377  LEU380  LYS471  GLY472 
 MET473  HIS475  LEU476  LEU477  ASN478  MET479  VAL484  VAL487 

> <Gold.Protein.RotatedAtoms>
   36.2993   33.9255   42.3531 H   0  0  0  0  0  0  0  0  0  0  0  0  # atno 496  bound_to 491 

> <Gold.Score>
     Score     S(PLP)   S(hbond)     S(cho)   S(metal)  DE(clash)   DE(tors)     intcor
     39.55     -39.86       0.00       0.00       0.00       0.00       0.15       0.00

> <Gold.PLP.Fitness>
39.5531

> <Gold.PLP.PLP>
-39.8552

> <Gold.PLP.part.hbond>
0.0000

> <Gold.PLP.part.metal>
0.0000

> <Gold.PLP.part.buried>
-4.2169

> <Gold.PLP.part.nonpolar>
-35.5783

> <Gold.PLP.part.repulsive>
0.1240

> <Gold.PLP.ligand.clash>
0.0000

> <Gold.PLP.ligand.torsion>
0.1511

> <Gold.PLP.Chemscore.Hbond>
0.0000

> <Gold.PLP.Chemscore.CHOScore>
0.0000

> <Gold.PLP.Chemscore.Metal>
0.0000

> <Gold.PLP.Chemscore.Internal.Correction>
0.0001

