#       Name:                EN300-155270_i001
#       Creating user name   aseyller
#       Creation time:       Fri Apr 21 19:37:49 2023


#       File generated by GOLD software.
#

@<TRIPOS>MOLECULE
EN300-155270_i001|benzaldehydes|mol2|884|dock14
    20    21     1
SMALL
USER_CHARGES


@<TRIPOS>ATOM
      1 O1          33.2180  36.4043  36.1190 O.2            1 <1>                0.0000
      2 C2          33.0979  35.6660  37.0739 C.2            1 <1>                0.0000
      3 C3          31.8175  35.5907  37.7865 C.2            1 <1>                0.0000
      4 C4          30.7260  36.3979  37.6030 C.2            1 <1>                0.0000
      5 C5          29.7757  35.8983  38.5346 C.2            1 <1>                0.0000
      6 N6          30.3541  34.8984  39.1509 N.2            1 <1>                0.0000
      7 O7          31.4780  34.7100  38.7482 O.3            1 <1>                0.0000
      8 C8          28.4006  36.4091  38.7634 C.ar           1 <1>                0.0000
      9 C9          27.8927  37.4311  37.9643 C.ar           1 <1>                0.0000
     10 C10         26.6137  37.9023  38.1813 C.ar           1 <1>                0.0000
     11 C11         25.8367  37.3620  39.1901 C.ar           1 <1>                0.0000
     12 C12         26.3362  36.3471  39.9863 C.ar           1 <1>                0.0000
     13 C13         27.6116  35.8642  39.7740 C.ar           1 <1>                0.0000
     14 H14         33.9320  35.0607  37.3969 H              1 <1>                0.0000
     15 H15         30.6140  37.2210  36.9128 H              1 <1>                0.0000
     16 H16         28.4987  37.8540  37.1768 H              1 <1>                0.0000
     17 H17         26.2189  38.6945  37.5625 H              1 <1>                0.0000
     18 H18         24.8367  37.7341  39.3570 H              1 <1>                0.0000
     19 H19         25.7255  35.9291  40.7729 H              1 <1>                0.0000
     20 H20         28.0005  35.0716  40.3959 H              1 <1>                0.0000
@<TRIPOS>BOND
    1    1    2 2     
    2    2    3 1     
    3    2   14 1     
    4    3    4 2     
    5    3    7 1     
    6    4    5 1     
    7    4   15 1     
    8    5    6 2     
    9    5    8 1     
   10    6    7 1     
   11    8    9 ar    
   12    8   13 ar    
   13    9   10 ar    
   14    9   16 1     
   15   10   11 ar    
   16   10   17 1     
   17   11   12 ar    
   18   11   18 1     
   19   12   13 ar    
   20   12   19 1     
   21   13   20 1     
@<TRIPOS>SUBSTRUCTURE
      1 ****           1
@<TRIPOS>COMMENT
> <Gold.Version>
2022.2.0

> <Gold.Id.Protein>
1qkm|1qkm_protein|mol2

> <Gold.Protein.RotatedTorsions>
[  496  491  490  487 ] final -117.69 input  -89.99 | X-H torsion

> <Gold.Protein.ActiveResidues>
 MET295  LEU298  THR299  LEU301  ALA302  GLU305  TRP335  MET336  LEU339  MET340 
 GLY342  LEU343  ARG346  PHE356  ILE373  ILE376  PHE377  LEU380  LYS471  GLY472 
 MET473  HIS475  LEU476  LEU477  ASN478  MET479  VAL484  VAL487 

> <Gold.Protein.RotatedAtoms>
   37.0068   34.3852   40.8153 H   0  0  0  0  0  0  0  0  0  0  0  0  # atno 496  bound_to 491 

> <Gold.Score>
     Score     S(PLP)   S(hbond)     S(cho)   S(metal)  DE(clash)   DE(tors)     intcor
     40.59     -40.64       0.00       0.00       0.00       0.00       0.02       0.00

> <Gold.PLP.Fitness>
40.5901

> <Gold.PLP.PLP>
-40.6390

> <Gold.PLP.part.hbond>
0.0000

> <Gold.PLP.part.metal>
0.0000

> <Gold.PLP.part.buried>
-4.3989

> <Gold.PLP.part.nonpolar>
-37.3820

> <Gold.PLP.part.repulsive>
0.2254

> <Gold.PLP.ligand.clash>
0.0000

> <Gold.PLP.ligand.torsion>
0.0245

> <Gold.PLP.Chemscore.Hbond>
0.0000

> <Gold.PLP.Chemscore.CHOScore>
0.0000

> <Gold.PLP.Chemscore.Metal>
0.0000

> <Gold.PLP.Chemscore.Internal.Correction>
0.0001

