#       Name:                EN300-155270_i001
#       Creating user name   aseyller
#       Creation time:       Fri Apr 21 19:37:51 2023


#       File generated by GOLD software.
#

@<TRIPOS>MOLECULE
EN300-155270_i001|benzaldehydes|mol2|884|dock19
    20    21     1
SMALL
USER_CHARGES


@<TRIPOS>ATOM
      1 O1          33.2458  35.4910  36.9528 O.2            1 <1>                0.0000
      2 C2          32.8272  36.5919  36.6629 C.2            1 <1>                0.0000
      3 C3          31.4529  36.9694  37.0114 C.2            1 <1>                0.0000
      4 C4          30.6351  36.3492  37.9186 C.2            1 <1>                0.0000
      5 C5          29.4350  37.1091  37.8667 C.2            1 <1>                0.0000
      6 N6          29.6362  38.0563  36.9854 N.2            1 <1>                0.0000
      7 O7          30.7448  37.9992  36.5074 O.3            1 <1>                0.0000
      8 C8          28.1988  36.8750  38.6548 C.ar           1 <1>                0.0000
      9 C9          28.2158  35.9985  39.7377 C.ar           1 <1>                0.0000
     10 C10         27.0638  35.7844  40.4671 C.ar           1 <1>                0.0000
     11 C11         25.8938  36.4378  40.1244 C.ar           1 <1>                0.0000
     12 C12         25.8715  37.3091  39.0502 C.ar           1 <1>                0.0000
     13 C13         27.0193  37.5352  38.3178 C.ar           1 <1>                0.0000
     14 H14         33.4676  37.2959  36.1522 H              1 <1>                0.0000
     15 H15         30.8514  35.4854  38.5296 H              1 <1>                0.0000
     16 H16         29.1287  35.4874  40.0056 H              1 <1>                0.0000
     17 H17         27.0759  35.1052  41.3067 H              1 <1>                0.0000
     18 H18         24.9944  36.2669  40.6973 H              1 <1>                0.0000
     19 H19         24.9552  37.8164  38.7866 H              1 <1>                0.0000
     20 H20         27.0009  38.2159  37.4796 H              1 <1>                0.0000
@<TRIPOS>BOND
    1    1    2 2     
    2    2    3 1     
    3    2   14 1     
    4    3    4 2     
    5    3    7 1     
    6    4    5 1     
    7    4   15 1     
    8    5    6 2     
    9    5    8 1     
   10    6    7 1     
   11    8    9 ar    
   12    8   13 ar    
   13    9   10 ar    
   14    9   16 1     
   15   10   11 ar    
   16   10   17 1     
   17   11   12 ar    
   18   11   18 1     
   19   12   13 ar    
   20   12   19 1     
   21   13   20 1     
@<TRIPOS>SUBSTRUCTURE
      1 ****           1
@<TRIPOS>COMMENT
> <Gold.Version>
2022.2.0

> <Gold.Id.Protein>
1qkm|1qkm_protein|mol2

> <Gold.Protein.RotatedTorsions>
[  496  491  490  487 ] final   86.27 input  -89.99 | X-H torsion

> <Gold.Protein.ActiveResidues>
 MET295  LEU298  THR299  LEU301  ALA302  GLU305  TRP335  MET336  LEU339  MET340 
 GLY342  LEU343  ARG346  PHE356  ILE373  ILE376  PHE377  LEU380  LYS471  GLY472 
 MET473  HIS475  LEU476  LEU477  ASN478  MET479  VAL484  VAL487 

> <Gold.Protein.RotatedAtoms>
   36.7858   33.0481   42.0677 H   0  0  0  0  0  0  0  0  0  0  0  0  # atno 496  bound_to 491 

> <Gold.Score>
     Score     S(PLP)   S(hbond)     S(cho)   S(metal)  DE(clash)   DE(tors)     intcor
     39.74     -40.00       0.00       0.00       0.00       0.00       0.13       0.00

> <Gold.PLP.Fitness>
39.7371

> <Gold.PLP.PLP>
-40.0009

> <Gold.PLP.part.hbond>
0.0000

> <Gold.PLP.part.metal>
0.0000

> <Gold.PLP.part.buried>
-4.0118

> <Gold.PLP.part.nonpolar>
-37.1494

> <Gold.PLP.part.repulsive>
0.0000

> <Gold.PLP.ligand.clash>
0.0000

> <Gold.PLP.ligand.torsion>
0.1320

> <Gold.PLP.Chemscore.Hbond>
0.0000

> <Gold.PLP.Chemscore.CHOScore>
0.0000

> <Gold.PLP.Chemscore.Metal>
0.0000

> <Gold.PLP.Chemscore.Internal.Correction>
0.0001

