#       Name:                EN300-155270_i001
#       Creating user name   aseyller
#       Creation time:       Fri Apr 21 19:37:43 2023


#       File generated by GOLD software.
#

@<TRIPOS>MOLECULE
EN300-155270_i001|benzaldehydes|mol2|884|dock3
    20    21     1
SMALL
USER_CHARGES


@<TRIPOS>ATOM
      1 O1          32.3663  38.1793  34.6572 O.2            1 <1>                0.0000
      2 C2          31.1939  38.2208  34.9656 C.2            1 <1>                0.0000
      3 C3          30.7612  37.7163  36.2737 C.2            1 <1>                0.0000
      4 C4          29.4822  37.6939  36.7639 C.2            1 <1>                0.0000
      5 C5          29.6244  37.1118  38.0528 C.2            1 <1>                0.0000
      6 N6          30.8996  36.8558  38.2031 N.2            1 <1>                0.0000
      7 O7          31.5415  37.1768  37.2306 O.3            1 <1>                0.0000
      8 C8          28.5420  36.8470  39.0338 C.ar           1 <1>                0.0000
      9 C9          28.8567  36.5358  40.3548 C.ar           1 <1>                0.0000
     10 C10         27.8465  36.2905  41.2627 C.ar           1 <1>                0.0000
     11 C11         26.5238  36.3528  40.8631 C.ar           1 <1>                0.0000
     12 C12         26.2059  36.6614  39.5527 C.ar           1 <1>                0.0000
     13 C13         27.2080  36.9145  38.6380 C.ar           1 <1>                0.0000
     14 H14         30.4692  38.6332  34.2792 H              1 <1>                0.0000
     15 H15         28.5781  38.0382  36.2838 H              1 <1>                0.0000
     16 H16         29.8892  36.4863  40.6677 H              1 <1>                0.0000
     17 H17         28.0893  36.0492  42.2870 H              1 <1>                0.0000
     18 H18         25.7364  36.1595  41.5765 H              1 <1>                0.0000
     19 H19         25.1714  36.7083  39.2457 H              1 <1>                0.0000
     20 H20         26.9587  37.1557  37.6152 H              1 <1>                0.0000
@<TRIPOS>BOND
    1    1    2 2     
    2    2    3 1     
    3    2   14 1     
    4    3    4 2     
    5    3    7 1     
    6    4    5 1     
    7    4   15 1     
    8    5    6 2     
    9    5    8 1     
   10    6    7 1     
   11    8    9 ar    
   12    8   13 ar    
   13    9   10 ar    
   14    9   16 1     
   15   10   11 ar    
   16   10   17 1     
   17   11   12 ar    
   18   11   18 1     
   19   12   13 ar    
   20   12   19 1     
   21   13   20 1     
@<TRIPOS>SUBSTRUCTURE
      1 ****           1
@<TRIPOS>COMMENT
> <Gold.Version>
2022.2.0

> <Gold.Id.Protein>
1qkm|1qkm_protein|mol2

> <Gold.Protein.RotatedTorsions>
[  496  491  490  487 ] final   89.81 input  -89.99 | X-H torsion

> <Gold.Protein.ActiveResidues>
 MET295  LEU298  THR299  LEU301  ALA302  GLU305  TRP335  MET336  LEU339  MET340 
 GLY342  LEU343  ARG346  PHE356  ILE373  ILE376  PHE377  LEU380  LYS471  GLY472 
 MET473  HIS475  LEU476  LEU477  ASN478  MET479  VAL484  VAL487 

> <Gold.Protein.RotatedAtoms>
   36.8185   33.0232   42.0265 H   0  0  0  0  0  0  0  0  0  0  0  0  # atno 496  bound_to 491 

> <Gold.Score>
     Score     S(PLP)   S(hbond)     S(cho)   S(metal)  DE(clash)   DE(tors)     intcor
     41.37     -41.53       0.00       0.00       0.00       0.00       0.08       0.00

> <Gold.PLP.Fitness>
41.3661

> <Gold.PLP.PLP>
-41.5261

> <Gold.PLP.part.hbond>
0.0000

> <Gold.PLP.part.metal>
0.0000

> <Gold.PLP.part.buried>
-4.1548

> <Gold.PLP.part.nonpolar>
-38.0394

> <Gold.PLP.part.repulsive>
0.1553

> <Gold.PLP.ligand.clash>
0.0000

> <Gold.PLP.ligand.torsion>
0.0800

> <Gold.PLP.Chemscore.Hbond>
0.0000

> <Gold.PLP.Chemscore.CHOScore>
0.0000

> <Gold.PLP.Chemscore.Metal>
0.0000

> <Gold.PLP.Chemscore.Internal.Correction>
0.0001

