#       Name:                EN300-155270_i001
#       Creating user name   aseyller
#       Creation time:       Fri Apr 21 19:37:43 2023


#       File generated by GOLD software.
#

@<TRIPOS>MOLECULE
EN300-155270_i001|benzaldehydes|mol2|884|dock2
    20    21     1
SMALL
USER_CHARGES


@<TRIPOS>ATOM
      1 O1          32.3984  37.0713  35.1827 O.2            1 <1>                0.0000
      2 C2          32.7639  36.3994  36.1241 C.2            1 <1>                0.0000
      3 C3          31.8572  36.1644  37.2536 C.2            1 <1>                0.0000
      4 C4          30.5967  36.6755  37.4159 C.2            1 <1>                0.0000
      5 C5          30.1722  36.1388  38.6618 C.2            1 <1>                0.0000
      6 N6          31.1604  35.4009  39.1012 N.2            1 <1>                0.0000
      7 O7          32.0958  35.3980  38.3359 O.3            1 <1>                0.0000
      8 C8          28.8676  36.3696  39.3317 C.ar           1 <1>                0.0000
      9 C9          27.7610  36.7724  38.5871 C.ar           1 <1>                0.0000
     10 C10         26.5505  36.9856  39.2149 C.ar           1 <1>                0.0000
     11 C11         26.4349  36.8005  40.5808 C.ar           1 <1>                0.0000
     12 C12         27.5304  36.4007  41.3248 C.ar           1 <1>                0.0000
     13 C13         28.7441  36.1788  40.7062 C.ar           1 <1>                0.0000
     14 H14         33.7549  35.9703  36.1289 H              1 <1>                0.0000
     15 H15         30.0532  37.3324  36.7530 H              1 <1>                0.0000
     16 H16         27.8505  36.9178  37.5207 H              1 <1>                0.0000
     17 H17         25.6921  37.2978  38.6387 H              1 <1>                0.0000
     18 H18         25.4860  36.9691  41.0683 H              1 <1>                0.0000
     19 H19         27.4348  36.2581  42.3911 H              1 <1>                0.0000
     20 H20         29.5987  35.8663  41.2878 H              1 <1>                0.0000
@<TRIPOS>BOND
    1    1    2 2     
    2    2    3 1     
    3    2   14 1     
    4    3    4 2     
    5    3    7 1     
    6    4    5 1     
    7    4   15 1     
    8    5    6 2     
    9    5    8 1     
   10    6    7 1     
   11    8    9 ar    
   12    8   13 ar    
   13    9   10 ar    
   14    9   16 1     
   15   10   11 ar    
   16   10   17 1     
   17   11   12 ar    
   18   11   18 1     
   19   12   13 ar    
   20   12   19 1     
   21   13   20 1     
@<TRIPOS>SUBSTRUCTURE
      1 ****           1
@<TRIPOS>COMMENT
> <Gold.Version>
2022.2.0

> <Gold.Id.Protein>
1qkm|1qkm_protein|mol2

> <Gold.Protein.RotatedTorsions>
[  496  491  490  487 ] final   -8.91 input  -89.99 | X-H torsion

> <Gold.Protein.ActiveResidues>
 MET295  LEU298  THR299  LEU301  ALA302  GLU305  TRP335  MET336  LEU339  MET340 
 GLY342  LEU343  ARG346  PHE356  ILE373  ILE376  PHE377  LEU380  LYS471  GLY472 
 MET473  HIS475  LEU476  LEU477  ASN478  MET479  VAL484  VAL487 

> <Gold.Protein.RotatedAtoms>
   36.2612   34.3355   42.1546 H   0  0  0  0  0  0  0  0  0  0  0  0  # atno 496  bound_to 491 

> <Gold.Score>
     Score     S(PLP)   S(hbond)     S(cho)   S(metal)  DE(clash)   DE(tors)     intcor
     41.37     -41.79       0.00       0.00       0.00       0.00       0.21       0.00

> <Gold.PLP.Fitness>
41.3676

> <Gold.PLP.PLP>
-41.7942

> <Gold.PLP.part.hbond>
0.0000

> <Gold.PLP.part.metal>
0.0000

> <Gold.PLP.part.buried>
-4.8172

> <Gold.PLP.part.nonpolar>
-37.9094

> <Gold.PLP.part.repulsive>
0.7863

> <Gold.PLP.ligand.clash>
0.0000

> <Gold.PLP.ligand.torsion>
0.2133

> <Gold.PLP.Chemscore.Hbond>
0.0000

> <Gold.PLP.Chemscore.CHOScore>
0.0000

> <Gold.PLP.Chemscore.Metal>
0.0000

> <Gold.PLP.Chemscore.Internal.Correction>
0.0001

