#       Name:                EN300-155270_i001
#       Creating user name   aseyller
#       Creation time:       Fri Apr 21 19:37:45 2023


#       File generated by GOLD software.
#

@<TRIPOS>MOLECULE
EN300-155270_i001|benzaldehydes|mol2|884|dock6
    20    21     1
SMALL
USER_CHARGES


@<TRIPOS>ATOM
      1 O1          33.6568  36.1114  35.7133 O.2            1 <1>                0.0000
      2 C2          33.2962  35.9243  36.8562 C.2            1 <1>                0.0000
      3 C3          31.8997  36.1691  37.2342 C.2            1 <1>                0.0000
      4 C4          31.3430  36.0041  38.4750 C.2            1 <1>                0.0000
      5 C5          29.9840  36.3761  38.2878 C.2            1 <1>                0.0000
      6 N6          29.8630  36.7089  37.0273 N.2            1 <1>                0.0000
      7 O7          30.9097  36.6068  36.4317 O.3            1 <1>                0.0000
      8 C8          28.9142  36.3851  39.3172 C.ar           1 <1>                0.0000
      9 C9          27.5750  36.4038  38.9333 C.ar           1 <1>                0.0000
     10 C10         26.5845  36.4121  39.8943 C.ar           1 <1>                0.0000
     11 C11         26.9192  36.4022  41.2364 C.ar           1 <1>                0.0000
     12 C12         28.2472  36.3836  41.6229 C.ar           1 <1>                0.0000
     13 C13         29.2458  36.3689  40.6702 C.ar           1 <1>                0.0000
     14 H14         34.0019  35.5732  37.5946 H              1 <1>                0.0000
     15 H15         31.8239  35.6696  39.3823 H              1 <1>                0.0000
     16 H16         27.3127  36.4122  37.8857 H              1 <1>                0.0000
     17 H17         25.5460  36.4266  39.5979 H              1 <1>                0.0000
     18 H18         26.1410  36.4095  41.9852 H              1 <1>                0.0000
     19 H19         28.5032  36.3763  42.6722 H              1 <1>                0.0000
     20 H20         30.2823  36.3540  40.9729 H              1 <1>                0.0000
@<TRIPOS>BOND
    1    1    2 2     
    2    2    3 1     
    3    2   14 1     
    4    3    4 2     
    5    3    7 1     
    6    4    5 1     
    7    4   15 1     
    8    5    6 2     
    9    5    8 1     
   10    6    7 1     
   11    8    9 ar    
   12    8   13 ar    
   13    9   10 ar    
   14    9   16 1     
   15   10   11 ar    
   16   10   17 1     
   17   11   12 ar    
   18   11   18 1     
   19   12   13 ar    
   20   12   19 1     
   21   13   20 1     
@<TRIPOS>SUBSTRUCTURE
      1 ****           1
@<TRIPOS>COMMENT
> <Gold.Version>
2022.2.0

> <Gold.Id.Protein>
1qkm|1qkm_protein|mol2

> <Gold.Protein.RotatedTorsions>
[  496  491  490  487 ] final -152.99 input  -89.99 | X-H torsion

> <Gold.Protein.ActiveResidues>
 MET295  LEU298  THR299  LEU301  ALA302  GLU305  TRP335  MET336  LEU339  MET340 
 GLY342  LEU343  ARG346  PHE356  ILE373  ILE376  PHE377  LEU380  LYS471  GLY472 
 MET473  HIS475  LEU476  LEU477  ASN478  MET479  VAL484  VAL487 

> <Gold.Protein.RotatedAtoms>
   37.2458   33.8732   40.7275 H   0  0  0  0  0  0  0  0  0  0  0  0  # atno 496  bound_to 491 

> <Gold.Score>
     Score     S(PLP)   S(hbond)     S(cho)   S(metal)  DE(clash)   DE(tors)     intcor
     41.57     -41.85       0.00       0.00       0.00       0.00       0.14       0.00

> <Gold.PLP.Fitness>
41.5685

> <Gold.PLP.PLP>
-41.8535

> <Gold.PLP.part.hbond>
0.0000

> <Gold.PLP.part.metal>
0.0000

> <Gold.PLP.part.buried>
-2.3547

> <Gold.PLP.part.nonpolar>
-40.1774

> <Gold.PLP.part.repulsive>
0.0899

> <Gold.PLP.ligand.clash>
0.0000

> <Gold.PLP.ligand.torsion>
0.1425

> <Gold.PLP.Chemscore.Hbond>
0.0000

> <Gold.PLP.Chemscore.CHOScore>
0.0000

> <Gold.PLP.Chemscore.Metal>
0.0000

> <Gold.PLP.Chemscore.Internal.Correction>
0.0001

