#       Name:                EN300-155270_i001
#       Creating user name   aseyller
#       Creation time:       Fri Apr 21 19:37:43 2023


#       File generated by GOLD software.
#

@<TRIPOS>MOLECULE
EN300-155270_i001|benzaldehydes|mol2|884|dock1
    20    21     1
SMALL
USER_CHARGES


@<TRIPOS>ATOM
      1 O1          33.3378  35.8073  36.6817 O.2            1 <1>                0.0000
      2 C2          32.7992  35.8051  37.7685 C.2            1 <1>                0.0000
      3 C3          31.4051  36.2445  37.8971 C.2            1 <1>                0.0000
      4 C4          30.5908  36.0866  38.9873 C.2            1 <1>                0.0000
      5 C5          29.3658  36.6839  38.5835 C.2            1 <1>                0.0000
      6 N6          29.5519  37.1172  37.3621 N.2            1 <1>                0.0000
      7 O7          30.6718  36.8894  36.9686 O.3            1 <1>                0.0000
      8 C8          28.1223  36.7940  39.3870 C.ar           1 <1>                0.0000
      9 C9          26.9196  37.1328  38.7708 C.ar           1 <1>                0.0000
     10 C10         25.7665  37.2339  39.5225 C.ar           1 <1>                0.0000
     11 C11         25.8035  36.9999  40.8852 C.ar           1 <1>                0.0000
     12 C12         26.9950  36.6632  41.5020 C.ar           1 <1>                0.0000
     13 C13         28.1528  36.5534  40.7589 C.ar           1 <1>                0.0000
     14 H14         33.3441  35.4756  38.6407 H              1 <1>                0.0000
     15 H15         30.8246  35.6179  39.9317 H              1 <1>                0.0000
     16 H16         26.8898  37.3163  37.7069 H              1 <1>                0.0000
     17 H17         24.8337  37.4964  39.0458 H              1 <1>                0.0000
     18 H18         24.8991  37.0808  41.4699 H              1 <1>                0.0000
     19 H19         27.0185  36.4819  42.5665 H              1 <1>                0.0000
     20 H20         29.0825  36.2901  41.2413 H              1 <1>                0.0000
@<TRIPOS>BOND
    1    1    2 2     
    2    2    3 1     
    3    2   14 1     
    4    3    4 2     
    5    3    7 1     
    6    4    5 1     
    7    4   15 1     
    8    5    6 2     
    9    5    8 1     
   10    6    7 1     
   11    8    9 ar    
   12    8   13 ar    
   13    9   10 ar    
   14    9   16 1     
   15   10   11 ar    
   16   10   17 1     
   17   11   12 ar    
   18   11   18 1     
   19   12   13 ar    
   20   12   19 1     
   21   13   20 1     
@<TRIPOS>SUBSTRUCTURE
      1 ****           1
@<TRIPOS>COMMENT
> <Gold.Version>
2022.2.0

> <Gold.Id.Protein>
1qkm|1qkm_protein|mol2

> <Gold.Protein.RotatedTorsions>
[  496  491  490  487 ] final  -72.31 input  -89.99 | X-H torsion

> <Gold.Protein.ActiveResidues>
 MET295  LEU298  THR299  LEU301  ALA302  GLU305  TRP335  MET336  LEU339  MET340 
 GLY342  LEU343  ARG346  PHE356  ILE373  ILE376  PHE377  LEU380  LYS471  GLY472 
 MET473  HIS475  LEU476  LEU477  ASN478  MET479  VAL484  VAL487 

> <Gold.Protein.RotatedAtoms>
   36.5980   34.7290   41.3096 H   0  0  0  0  0  0  0  0  0  0  0  0  # atno 496  bound_to 491 

> <Gold.Score>
     Score     S(PLP)   S(hbond)     S(cho)   S(metal)  DE(clash)   DE(tors)     intcor
     44.34     -44.59       0.00       0.00       0.00       0.00       0.12       0.00

> <Gold.PLP.Fitness>
44.3410

> <Gold.PLP.PLP>
-44.5854

> <Gold.PLP.part.hbond>
0.0000

> <Gold.PLP.part.metal>
0.0000

> <Gold.PLP.part.buried>
-4.1098

> <Gold.PLP.part.nonpolar>
-40.8127

> <Gold.PLP.part.repulsive>
0.0000

> <Gold.PLP.ligand.clash>
0.0000

> <Gold.PLP.ligand.torsion>
0.1223

> <Gold.PLP.Chemscore.Hbond>
0.0000

> <Gold.PLP.Chemscore.CHOScore>
0.0000

> <Gold.PLP.Chemscore.Metal>
0.0000

> <Gold.PLP.Chemscore.Internal.Correction>
0.0001

