#       Name:                EN300-155270_i001
#       Creating user name   aseyller
#       Creation time:       Fri Apr 21 19:37:51 2023


#       File generated by GOLD software.
#

@<TRIPOS>MOLECULE
EN300-155270_i001|benzaldehydes|mol2|884|dock18
    20    21     1
SMALL
USER_CHARGES


@<TRIPOS>ATOM
      1 O1          31.8745  38.3292  35.8415 O.2            1 <1>                0.0000
      2 C2          32.2144  37.5082  36.6672 C.2            1 <1>                0.0000
      3 C3          31.2492  37.0236  37.6604 C.2            1 <1>                0.0000
      4 C4          29.9945  37.5197  37.8973 C.2            1 <1>                0.0000
      5 C5          29.4980  36.6971  38.9448 C.2            1 <1>                0.0000
      6 N6          30.4465  35.8372  39.2193 N.2            1 <1>                0.0000
      7 O7          31.4174  35.9978  38.5177 O.3            1 <1>                0.0000
      8 C8          28.1683  36.7939  39.5980 C.ar           1 <1>                0.0000
      9 C9          28.0491  36.6008  40.9726 C.ar           1 <1>                0.0000
     10 C10         26.8106  36.6919  41.5748 C.ar           1 <1>                0.0000
     11 C11         25.6889  36.9741  40.8161 C.ar           1 <1>                0.0000
     12 C12         25.8018  37.1668  39.4510 C.ar           1 <1>                0.0000
     13 C13         27.0363  37.0840  38.8395 C.ar           1 <1>                0.0000
     14 H14         33.2262  37.1306  36.6685 H              1 <1>                0.0000
     15 H15         29.4990  38.3430  37.4042 H              1 <1>                0.0000
     16 H16         28.9241  36.3798  41.5657 H              1 <1>                0.0000
     17 H17         26.7170  36.5423  42.6402 H              1 <1>                0.0000
     18 H18         24.7215  37.0438  41.2912 H              1 <1>                0.0000
     19 H19         24.9227  37.3864  38.8632 H              1 <1>                0.0000
     20 H20         27.1234  37.2350  37.7737 H              1 <1>                0.0000
@<TRIPOS>BOND
    1    1    2 2     
    2    2    3 1     
    3    2   14 1     
    4    3    4 2     
    5    3    7 1     
    6    4    5 1     
    7    4   15 1     
    8    5    6 2     
    9    5    8 1     
   10    6    7 1     
   11    8    9 ar    
   12    8   13 ar    
   13    9   10 ar    
   14    9   16 1     
   15   10   11 ar    
   16   10   17 1     
   17   11   12 ar    
   18   11   18 1     
   19   12   13 ar    
   20   12   19 1     
   21   13   20 1     
@<TRIPOS>SUBSTRUCTURE
      1 ****           1
@<TRIPOS>COMMENT
> <Gold.Version>
2022.2.0

> <Gold.Id.Protein>
1qkm|1qkm_protein|mol2

> <Gold.Protein.RotatedTorsions>
[  496  491  490  487 ] final -141.84 input  -89.99 | X-H torsion

> <Gold.Protein.ActiveResidues>
 MET295  LEU298  THR299  LEU301  ALA302  GLU305  TRP335  MET336  LEU339  MET340 
 GLY342  LEU343  ARG346  PHE356  ILE373  ILE376  PHE377  LEU380  LYS471  GLY472 
 MET473  HIS475  LEU476  LEU477  ASN478  MET479  VAL484  VAL487 

> <Gold.Protein.RotatedAtoms>
   37.1854   34.0460   40.7217 H   0  0  0  0  0  0  0  0  0  0  0  0  # atno 496  bound_to 491 

> <Gold.Score>
     Score     S(PLP)   S(hbond)     S(cho)   S(metal)  DE(clash)   DE(tors)     intcor
     40.52     -41.75       0.00       0.00       0.00       0.00       0.61       0.00

> <Gold.PLP.Fitness>
40.5196

> <Gold.PLP.PLP>
-41.7492

> <Gold.PLP.part.hbond>
0.0000

> <Gold.PLP.part.metal>
0.0000

> <Gold.PLP.part.buried>
-3.2606

> <Gold.PLP.part.nonpolar>
-38.8449

> <Gold.PLP.part.repulsive>
0.1763

> <Gold.PLP.ligand.clash>
0.0000

> <Gold.PLP.ligand.torsion>
0.6148

> <Gold.PLP.Chemscore.Hbond>
0.0000

> <Gold.PLP.Chemscore.CHOScore>
0.0000

> <Gold.PLP.Chemscore.Metal>
0.0000

> <Gold.PLP.Chemscore.Internal.Correction>
0.0001

