#       Name:                EN300-155270_i001
#       Creating user name   aseyller
#       Creation time:       Fri Apr 21 19:37:50 2023


#       File generated by GOLD software.
#

@<TRIPOS>MOLECULE
EN300-155270_i001|benzaldehydes|mol2|884|dock16
    20    21     1
SMALL
USER_CHARGES


@<TRIPOS>ATOM
      1 O1          26.5921  37.0055  39.7124 O.2            1 <1>                0.0000
      2 C2          27.6113  36.5089  40.1438 C.2            1 <1>                0.0000
      3 C3          28.8282  36.5024  39.3240 C.2            1 <1>                0.0000
      4 C4          29.0021  37.1050  38.1061 C.2            1 <1>                0.0000
      5 C5          30.3449  36.7907  37.7622 C.2            1 <1>                0.0000
      6 N6          30.8197  36.0723  38.7485 N.2            1 <1>                0.0000
      7 O7          30.0002  35.9076  39.6215 O.3            1 <1>                0.0000
      8 C8          31.0657  37.1961  36.5293 C.ar           1 <1>                0.0000
      9 C9          30.5775  38.2391  35.7451 C.ar           1 <1>                0.0000
     10 C10         31.2515  38.6120  34.5999 C.ar           1 <1>                0.0000
     11 C11         32.4094  37.9520  34.2299 C.ar           1 <1>                0.0000
     12 C12         32.8985  36.9157  35.0048 C.ar           1 <1>                0.0000
     13 C13         32.2357  36.5388  36.1553 C.ar           1 <1>                0.0000
     14 H14         27.6242  36.0756  41.1329 H              1 <1>                0.0000
     15 H15         28.2865  37.6828  37.5400 H              1 <1>                0.0000
     16 H16         29.6732  38.7546  36.0328 H              1 <1>                0.0000
     17 H17         30.8740  39.4204  33.9913 H              1 <1>                0.0000
     18 H18         32.9334  38.2464  33.3326 H              1 <1>                0.0000
     19 H19         33.8028  36.4034  34.7112 H              1 <1>                0.0000
     20 H20         32.6186  35.7299  36.7599 H              1 <1>                0.0000
@<TRIPOS>BOND
    1    1    2 2     
    2    2    3 1     
    3    2   14 1     
    4    3    4 2     
    5    3    7 1     
    6    4    5 1     
    7    4   15 1     
    8    5    6 2     
    9    5    8 1     
   10    6    7 1     
   11    8    9 ar    
   12    8   13 ar    
   13    9   10 ar    
   14    9   16 1     
   15   10   11 ar    
   16   10   17 1     
   17   11   12 ar    
   18   11   18 1     
   19   12   13 ar    
   20   12   19 1     
   21   13   20 1     
@<TRIPOS>SUBSTRUCTURE
      1 ****           1
@<TRIPOS>COMMENT
> <Gold.Version>
2022.2.0

> <Gold.Id.Protein>
1qkm|1qkm_protein|mol2

> <Gold.Protein.RotatedTorsions>
[  496  491  490  487 ] final  -85.70 input  -89.99 | X-H torsion

> <Gold.Protein.ActiveResidues>
 MET295  LEU298  THR299  LEU301  ALA302  GLU305  TRP335  MET336  LEU339  MET340 
 GLY342  LEU343  ARG346  PHE356  ILE373  ILE376  PHE377  LEU380  LYS471  GLY472 
 MET473  HIS475  LEU476  LEU477  ASN478  MET479  VAL484  VAL487 

> <Gold.Protein.RotatedAtoms>
   36.7177   34.6792   41.1319 H   0  0  0  0  0  0  0  0  0  0  0  0  # atno 496  bound_to 491 

> <Gold.Score>
     Score     S(PLP)   S(hbond)     S(cho)   S(metal)  DE(clash)   DE(tors)     intcor
     38.66     -38.94       0.00       0.00       0.00       0.00       0.14       0.00

> <Gold.PLP.Fitness>
38.6621

> <Gold.PLP.PLP>
-38.9364

> <Gold.PLP.part.hbond>
0.0000

> <Gold.PLP.part.metal>
0.0000

> <Gold.PLP.part.buried>
-4.4670

> <Gold.PLP.part.nonpolar>
-34.8499

> <Gold.PLP.part.repulsive>
0.2219

> <Gold.PLP.ligand.clash>
0.0000

> <Gold.PLP.ligand.torsion>
0.1372

> <Gold.PLP.Chemscore.Hbond>
0.0000

> <Gold.PLP.Chemscore.CHOScore>
0.0000

> <Gold.PLP.Chemscore.Metal>
0.0000

> <Gold.PLP.Chemscore.Internal.Correction>
0.0001

