#       Name:                EN300-155270_i001
#       Creating user name   aseyller
#       Creation time:       Fri Apr 21 19:37:47 2023


#       File generated by GOLD software.
#

@<TRIPOS>MOLECULE
EN300-155270_i001|benzaldehydes|mol2|884|dock11
    20    21     1
SMALL
USER_CHARGES


@<TRIPOS>ATOM
      1 O1          24.9003  37.2963  41.4954 O.2            1 <1>                0.0000
      2 C2          25.9748  36.7361  41.5509 C.2            1 <1>                0.0000
      3 C3          26.8834  36.7763  40.3995 C.2            1 <1>                0.0000
      4 C4          28.1818  36.3412  40.3615 C.2            1 <1>                0.0000
      5 C5          28.5893  36.6099  39.0266 C.2            1 <1>                0.0000
      6 N6          27.5573  37.1484  38.4273 N.2            1 <1>                0.0000
      7 O7          26.6057  37.2431  39.1664 O.3            1 <1>                0.0000
      8 C8          29.9209  36.3348  38.4304 C.ar           1 <1>                0.0000
      9 C9          30.7497  35.3641  38.9889 C.ar           1 <1>                0.0000
     10 C10         31.9867  35.1124  38.4308 C.ar           1 <1>                0.0000
     11 C11         32.4041  35.8220  37.3193 C.ar           1 <1>                0.0000
     12 C12         31.5851  36.7868  36.7608 C.ar           1 <1>                0.0000
     13 C13         30.3436  37.0423  37.3072 C.ar           1 <1>                0.0000
     14 H14         26.2646  36.2116  42.4494 H              1 <1>                0.0000
     15 H15         28.7601  35.8983  41.1589 H              1 <1>                0.0000
     16 H16         30.4250  34.8100  39.8572 H              1 <1>                0.0000
     17 H17         32.6300  34.3602  38.8629 H              1 <1>                0.0000
     18 H18         33.3731  35.6224  36.8860 H              1 <1>                0.0000
     19 H19         31.9160  37.3383  35.8932 H              1 <1>                0.0000
     20 H20         29.7048  37.7954  36.8703 H              1 <1>                0.0000
@<TRIPOS>BOND
    1    1    2 2     
    2    2    3 1     
    3    2   14 1     
    4    3    4 2     
    5    3    7 1     
    6    4    5 1     
    7    4   15 1     
    8    5    6 2     
    9    5    8 1     
   10    6    7 1     
   11    8    9 ar    
   12    8   13 ar    
   13    9   10 ar    
   14    9   16 1     
   15   10   11 ar    
   16   10   17 1     
   17   11   12 ar    
   18   11   18 1     
   19   12   13 ar    
   20   12   19 1     
   21   13   20 1     
@<TRIPOS>SUBSTRUCTURE
      1 ****           1
@<TRIPOS>COMMENT
> <Gold.Version>
2022.2.0

> <Gold.Id.Protein>
1qkm|1qkm_protein|mol2

> <Gold.Protein.RotatedTorsions>
[  496  491  490  487 ] final  -85.33 input  -89.99 | X-H torsion

> <Gold.Protein.ActiveResidues>
 MET295  LEU298  THR299  LEU301  ALA302  GLU305  TRP335  MET336  LEU339  MET340 
 GLY342  LEU343  ARG346  PHE356  ILE373  ILE376  PHE377  LEU380  LYS471  GLY472 
 MET473  HIS475  LEU476  LEU477  ASN478  MET479  VAL484  VAL487 

> <Gold.Protein.RotatedAtoms>
   36.7144   34.6812   41.1365 H   0  0  0  0  0  0  0  0  0  0  0  0  # atno 496  bound_to 491 

> <Gold.Score>
     Score     S(PLP)   S(hbond)     S(cho)   S(metal)  DE(clash)   DE(tors)     intcor
     39.68     -39.21       0.32       0.00       0.00       0.00       0.24       0.00

> <Gold.PLP.Fitness>
39.6850

> <Gold.PLP.PLP>
-39.2131

> <Gold.PLP.part.hbond>
-1.0000

> <Gold.PLP.part.metal>
0.0000

> <Gold.PLP.part.buried>
-2.6392

> <Gold.PLP.part.nonpolar>
-36.4561

> <Gold.PLP.part.repulsive>
0.2630

> <Gold.PLP.ligand.clash>
0.0000

> <Gold.PLP.ligand.torsion>
0.2399

> <Gold.PLP.Chemscore.Hbond>
0.3172

> <Gold.PLP.Chemscore.CHOScore>
0.0000

> <Gold.PLP.Chemscore.Metal>
0.0000

> <Gold.Chemscore.Hbonds>
donor molecule, donor type, donor heavy atom, donor atom, acceptor molecule, acceptor atom, score
      P1  H  1258  1270       L1     1  0.32

> <Gold.PLP.Chemscore.Internal.Correction>
0.0001

