#       Name:                EN300-155270_i001
#       Creating user name   aseyller
#       Creation time:       Fri Apr 21 19:37:44 2023


#       File generated by GOLD software.
#

@<TRIPOS>MOLECULE
EN300-155270_i001|benzaldehydes|mol2|884|dock5
    20    21     1
SMALL
USER_CHARGES


@<TRIPOS>ATOM
      1 O1          27.6669  36.3650  41.3306 O.2            1 <1>                0.0000
      2 C2          28.7828  36.0401  40.9836 C.2            1 <1>                0.0000
      3 C3          29.2984  36.4669  39.6778 C.2            1 <1>                0.0000
      4 C4          30.4911  36.1077  39.1078 C.2            1 <1>                0.0000
      5 C5          30.4902  36.7925  37.8622 C.2            1 <1>                0.0000
      6 N6          29.3636  37.4574  37.8078 N.2            1 <1>                0.0000
      7 O7          28.6907  37.2858  38.7970 O.3            1 <1>                0.0000
      8 C8          31.5553  36.7605  36.8285 C.ar           1 <1>                0.0000
      9 C9          31.4644  37.5800  35.7055 C.ar           1 <1>                0.0000
     10 C10         32.4574  37.5463  34.7476 C.ar           1 <1>                0.0000
     11 C11         33.5412  36.7007  34.9007 C.ar           1 <1>                0.0000
     12 C12         33.6364  35.8849  36.0137 C.ar           1 <1>                0.0000
     13 C13         32.6521  35.9151  36.9808 C.ar           1 <1>                0.0000
     14 H14         29.3986  35.4405  41.6375 H              1 <1>                0.0000
     15 H15         31.2534  35.4572  39.5105 H              1 <1>                0.0000
     16 H16         30.6182  38.2402  35.5847 H              1 <1>                0.0000
     17 H17         32.3879  38.1812  33.8766 H              1 <1>                0.0000
     18 H18         34.3157  36.6768  34.1483 H              1 <1>                0.0000
     19 H19         34.4845  35.2261  36.1282 H              1 <1>                0.0000
     20 H20         32.7276  35.2781  37.8497 H              1 <1>                0.0000
@<TRIPOS>BOND
    1    1    2 2     
    2    2    3 1     
    3    2   14 1     
    4    3    4 2     
    5    3    7 1     
    6    4    5 1     
    7    4   15 1     
    8    5    6 2     
    9    5    8 1     
   10    6    7 1     
   11    8    9 ar    
   12    8   13 ar    
   13    9   10 ar    
   14    9   16 1     
   15   10   11 ar    
   16   10   17 1     
   17   11   12 ar    
   18   11   18 1     
   19   12   13 ar    
   20   12   19 1     
   21   13   20 1     
@<TRIPOS>SUBSTRUCTURE
      1 ****           1
@<TRIPOS>COMMENT
> <Gold.Version>
2022.2.0

> <Gold.Id.Protein>
1qkm|1qkm_protein|mol2

> <Gold.Protein.RotatedTorsions>
[  496  491  490  487 ] final -112.23 input  -89.99 | X-H torsion

> <Gold.Protein.ActiveResidues>
 MET295  LEU298  THR299  LEU301  ALA302  GLU305  TRP335  MET336  LEU339  MET340 
 GLY342  LEU343  ARG346  PHE356  ILE373  ILE376  PHE377  LEU380  LYS471  GLY472 
 MET473  HIS475  LEU476  LEU477  ASN478  MET479  VAL484  VAL487 

> <Gold.Protein.RotatedAtoms>
   36.9598   34.4504   40.8555 H   0  0  0  0  0  0  0  0  0  0  0  0  # atno 496  bound_to 491 

> <Gold.Score>
     Score     S(PLP)   S(hbond)     S(cho)   S(metal)  DE(clash)   DE(tors)     intcor
     41.82     -41.85       0.00       0.00       0.00       0.00       0.02       0.00

> <Gold.PLP.Fitness>
41.8165

> <Gold.PLP.PLP>
-41.8538

> <Gold.PLP.part.hbond>
0.0000

> <Gold.PLP.part.metal>
0.0000

> <Gold.PLP.part.buried>
-3.8382

> <Gold.PLP.part.nonpolar>
-37.9869

> <Gold.PLP.part.repulsive>
0.1127

> <Gold.PLP.ligand.clash>
0.0000

> <Gold.PLP.ligand.torsion>
0.0187

> <Gold.PLP.Chemscore.Hbond>
0.0000

> <Gold.PLP.Chemscore.CHOScore>
0.0000

> <Gold.PLP.Chemscore.Metal>
0.0000

> <Gold.PLP.Chemscore.Internal.Correction>
0.0001

