#       Name:                EN300-155270_i001
#       Creating user name   aseyller
#       Creation time:       Fri Apr 21 19:37:49 2023


#       File generated by GOLD software.
#

@<TRIPOS>MOLECULE
EN300-155270_i001|benzaldehydes|mol2|884|dock15
    20    21     1
SMALL
USER_CHARGES


@<TRIPOS>ATOM
      1 O1          33.4122  36.3551  35.5023 O.2            1 <1>                0.0000
      2 C2          32.6314  37.2442  35.2356 C.2            1 <1>                0.0000
      3 C3          31.3676  37.3561  35.9727 C.2            1 <1>                0.0000
      4 C4          31.0388  36.7221  37.1416 C.2            1 <1>                0.0000
      5 C5          29.7198  37.1767  37.4133 C.2            1 <1>                0.0000
      6 N6          29.4027  37.9917  36.4390 N.2            1 <1>                0.0000
      7 O7          30.3005  38.1078  35.6381 O.3            1 <1>                0.0000
      8 C8          28.8704  36.8015  38.5717 C.ar           1 <1>                0.0000
      9 C9          27.4820  36.8392  38.4617 C.ar           1 <1>                0.0000
     10 C10         26.6970  36.4895  39.5417 C.ar           1 <1>                0.0000
     11 C11         27.2863  36.1024  40.7317 C.ar           1 <1>                0.0000
     12 C12         28.6643  36.0632  40.8463 C.ar           1 <1>                0.0000
     13 C13         29.4587  36.4050  39.7707 C.ar           1 <1>                0.0000
     14 H14         32.8683  37.9561  34.4588 H              1 <1>                0.0000
     15 H15         31.6406  36.0372  37.7206 H              1 <1>                0.0000
     16 H16         27.0210  37.1420  37.5332 H              1 <1>                0.0000
     17 H17         25.6207  36.5183  39.4575 H              1 <1>                0.0000
     18 H18         26.6684  35.8302  41.5746 H              1 <1>                0.0000
     19 H19         29.1193  35.7606  41.7779 H              1 <1>                0.0000
     20 H20         30.5344  36.3737  39.8610 H              1 <1>                0.0000
@<TRIPOS>BOND
    1    1    2 2     
    2    2    3 1     
    3    2   14 1     
    4    3    4 2     
    5    3    7 1     
    6    4    5 1     
    7    4   15 1     
    8    5    6 2     
    9    5    8 1     
   10    6    7 1     
   11    8    9 ar    
   12    8   13 ar    
   13    9   10 ar    
   14    9   16 1     
   15   10   11 ar    
   16   10   17 1     
   17   11   12 ar    
   18   11   18 1     
   19   12   13 ar    
   20   12   19 1     
   21   13   20 1     
@<TRIPOS>SUBSTRUCTURE
      1 ****           1
@<TRIPOS>COMMENT
> <Gold.Version>
2022.2.0

> <Gold.Id.Protein>
1qkm|1qkm_protein|mol2

> <Gold.Protein.RotatedTorsions>
[  496  491  490  487 ] final  -95.70 input  -89.99 | X-H torsion

> <Gold.Protein.ActiveResidues>
 MET295  LEU298  THR299  LEU301  ALA302  GLU305  TRP335  MET336  LEU339  MET340 
 GLY342  LEU343  ARG346  PHE356  ILE373  ILE376  PHE377  LEU380  LYS471  GLY472 
 MET473  HIS475  LEU476  LEU477  ASN478  MET479  VAL484  VAL487 

> <Gold.Protein.RotatedAtoms>
   36.8100   34.6119   41.0136 H   0  0  0  0  0  0  0  0  0  0  0  0  # atno 496  bound_to 491 

> <Gold.Score>
     Score     S(PLP)   S(hbond)     S(cho)   S(metal)  DE(clash)   DE(tors)     intcor
     38.88     -39.57       0.00       0.00       0.00       0.00       0.34       0.00

> <Gold.PLP.Fitness>
38.8842

> <Gold.PLP.PLP>
-39.5737

> <Gold.PLP.part.hbond>
0.0000

> <Gold.PLP.part.metal>
0.0000

> <Gold.PLP.part.buried>
-4.0913

> <Gold.PLP.part.nonpolar>
-35.9139

> <Gold.PLP.part.repulsive>
0.1021

> <Gold.PLP.ligand.clash>
0.0000

> <Gold.PLP.ligand.torsion>
0.3447

> <Gold.PLP.Chemscore.Hbond>
0.0000

> <Gold.PLP.Chemscore.CHOScore>
0.0000

> <Gold.PLP.Chemscore.Metal>
0.0000

> <Gold.PLP.Chemscore.Internal.Correction>
0.0001

