#       Name:                EN300-155270_i001
#       Creating user name   aseyller
#       Creation time:       Fri Apr 21 19:37:47 2023


#       File generated by GOLD software.
#

@<TRIPOS>MOLECULE
EN300-155270_i001|benzaldehydes|mol2|884|dock10
    20    21     1
SMALL
USER_CHARGES


@<TRIPOS>ATOM
      1 O1          27.6980  36.2906  41.4684 O.2            1 <1>                0.0000
      2 C2          28.8001  36.2297  40.9654 C.2            1 <1>                0.0000
      3 C3          29.0059  36.6989  39.5905 C.2            1 <1>                0.0000
      4 C4          30.1788  36.6818  38.8831 C.2            1 <1>                0.0000
      5 C5          29.8236  37.2423  37.6261 C.2            1 <1>                0.0000
      6 N6          28.5471  37.5251  37.6960 N.2            1 <1>                0.0000
      7 O7          28.0775  37.2274  38.7691 O.3            1 <1>                0.0000
      8 C8          30.7218  37.4635  36.4649 C.ar           1 <1>                0.0000
      9 C9          30.3577  38.3571  35.4598 C.ar           1 <1>                0.0000
     10 C10         31.1964  38.5590  34.3825 C.ar           1 <1>                0.0000
     11 C11         32.3962  37.8759  34.2992 C.ar           1 <1>                0.0000
     12 C12         32.7625  36.9876  35.2943 C.ar           1 <1>                0.0000
     13 C13         31.9342  36.7827  36.3791 C.ar           1 <1>                0.0000
     14 H14         29.6308  35.8343  41.5311 H              1 <1>                0.0000
     15 H15         31.1464  36.3262  39.2051 H              1 <1>                0.0000
     16 H16         29.4208  38.8904  35.5236 H              1 <1>                0.0000
     17 H17         30.9151  39.2514  33.6028 H              1 <1>                0.0000
     18 H18         33.0493  38.0362  33.4541 H              1 <1>                0.0000
     19 H19         33.7003  36.4564  35.2242 H              1 <1>                0.0000
     20 H20         32.2212  36.0893  37.1557 H              1 <1>                0.0000
@<TRIPOS>BOND
    1    1    2 2     
    2    2    3 1     
    3    2   14 1     
    4    3    4 2     
    5    3    7 1     
    6    4    5 1     
    7    4   15 1     
    8    5    6 2     
    9    5    8 1     
   10    6    7 1     
   11    8    9 ar    
   12    8   13 ar    
   13    9   10 ar    
   14    9   16 1     
   15   10   11 ar    
   16   10   17 1     
   17   11   12 ar    
   18   11   18 1     
   19   12   13 ar    
   20   12   19 1     
   21   13   20 1     
@<TRIPOS>SUBSTRUCTURE
      1 ****           1
@<TRIPOS>COMMENT
> <Gold.Version>
2022.2.0

> <Gold.Id.Protein>
1qkm|1qkm_protein|mol2

> <Gold.Protein.RotatedTorsions>
[  496  491  490  487 ] final  164.07 input  -89.99 | X-H torsion

> <Gold.Protein.ActiveResidues>
 MET295  LEU298  THR299  LEU301  ALA302  GLU305  TRP335  MET336  LEU339  MET340 
 GLY342  LEU343  ARG346  PHE356  ILE373  ILE376  PHE377  LEU380  LYS471  GLY472 
 MET473  HIS475  LEU476  LEU477  ASN478  MET479  VAL484  VAL487 

> <Gold.Protein.RotatedAtoms>
   37.3062   33.2522   41.0234 H   0  0  0  0  0  0  0  0  0  0  0  0  # atno 496  bound_to 491 

> <Gold.Score>
     Score     S(PLP)   S(hbond)     S(cho)   S(metal)  DE(clash)   DE(tors)     intcor
     40.31     -40.62       0.00       0.00       0.00       0.00       0.15       0.00

> <Gold.PLP.Fitness>
40.3148

> <Gold.PLP.PLP>
-40.6218

> <Gold.PLP.part.hbond>
0.0000

> <Gold.PLP.part.metal>
0.0000

> <Gold.PLP.part.buried>
-3.4926

> <Gold.PLP.part.nonpolar>
-36.9358

> <Gold.PLP.part.repulsive>
0.1235

> <Gold.PLP.ligand.clash>
0.0000

> <Gold.PLP.ligand.torsion>
0.1536

> <Gold.PLP.Chemscore.Hbond>
0.0000

> <Gold.PLP.Chemscore.CHOScore>
0.0000

> <Gold.PLP.Chemscore.Metal>
0.0000

> <Gold.PLP.Chemscore.Internal.Correction>
0.0001

