#       Name:                EN300-155270_i001
#       Creating user name   aseyller
#       Creation time:       Fri Apr 21 19:37:48 2023


#       File generated by GOLD software.
#

@<TRIPOS>MOLECULE
EN300-155270_i001|benzaldehydes|mol2|884|dock13
    20    21     1
SMALL
USER_CHARGES


@<TRIPOS>ATOM
      1 O1          25.2063  36.9951  41.6126 O.2            1 <1>                0.0000
      2 C2          25.6045  37.0047  40.4669 C.2            1 <1>                0.0000
      3 C3          27.0346  36.8351  40.1859 C.2            1 <1>                0.0000
      4 C4          27.6548  36.9661  38.9715 C.2            1 <1>                0.0000
      5 C5          29.0211  36.7001  39.2593 C.2            1 <1>                0.0000
      6 N6          29.0856  36.4500  40.5429 N.2            1 <1>                0.0000
      7 O7          28.0015  36.5253  41.0719 O.3            1 <1>                0.0000
      8 C8          30.1505  36.7047  38.2958 C.ar           1 <1>                0.0000
      9 C9          31.2553  35.8833  38.5099 C.ar           1 <1>                0.0000
     10 C10         32.3026  35.8914  37.6110 C.ar           1 <1>                0.0000
     11 C11         32.2569  36.7133  36.4994 C.ar           1 <1>                0.0000
     12 C12         31.1624  37.5307  36.2821 C.ar           1 <1>                0.0000
     13 C13         30.1069  37.5260  37.1713 C.ar           1 <1>                0.0000
     14 H14         24.9059  37.1334  39.6534 H              1 <1>                0.0000
     15 H15         27.2099  37.2132  38.0189 H              1 <1>                0.0000
     16 H16         31.2922  35.2417  39.3778 H              1 <1>                0.0000
     17 H17         33.1595  35.2550  37.7760 H              1 <1>                0.0000
     18 H18         33.0789  36.7171  35.7988 H              1 <1>                0.0000
     19 H19         31.1320  38.1709  35.4127 H              1 <1>                0.0000
     20 H20         29.2526  38.1643  37.0006 H              1 <1>                0.0000
@<TRIPOS>BOND
    1    1    2 2     
    2    2    3 1     
    3    2   14 1     
    4    3    4 2     
    5    3    7 1     
    6    4    5 1     
    7    4   15 1     
    8    5    6 2     
    9    5    8 1     
   10    6    7 1     
   11    8    9 ar    
   12    8   13 ar    
   13    9   10 ar    
   14    9   16 1     
   15   10   11 ar    
   16   10   17 1     
   17   11   12 ar    
   18   11   18 1     
   19   12   13 ar    
   20   12   19 1     
   21   13   20 1     
@<TRIPOS>SUBSTRUCTURE
      1 ****           1
@<TRIPOS>COMMENT
> <Gold.Version>
2022.2.0

> <Gold.Id.Protein>
1qkm|1qkm_protein|mol2

> <Gold.Protein.RotatedTorsions>
[  496  491  490  487 ] final  171.37 input  -89.99 | X-H torsion

> <Gold.Protein.ActiveResidues>
 MET295  LEU298  THR299  LEU301  ALA302  GLU305  TRP335  MET336  LEU339  MET340 
 GLY342  LEU343  ARG346  PHE356  ILE373  ILE376  PHE377  LEU380  LYS471  GLY472 
 MET473  HIS475  LEU476  LEU477  ASN478  MET479  VAL484  VAL487 

> <Gold.Protein.RotatedAtoms>
   37.3166   33.3435   40.9461 H   0  0  0  0  0  0  0  0  0  0  0  0  # atno 496  bound_to 491 

> <Gold.Score>
     Score     S(PLP)   S(hbond)     S(cho)   S(metal)  DE(clash)   DE(tors)     intcor
     40.16     -40.09       0.27       0.00       0.00       0.00       0.37       0.00

> <Gold.PLP.Fitness>
40.1614

> <Gold.PLP.PLP>
-40.0923

> <Gold.PLP.part.hbond>
-1.0000

> <Gold.PLP.part.metal>
0.0000

> <Gold.PLP.part.buried>
-5.2315

> <Gold.PLP.part.nonpolar>
-34.9496

> <Gold.PLP.part.repulsive>
0.4447

> <Gold.PLP.ligand.clash>
0.0000

> <Gold.PLP.ligand.torsion>
0.3711

> <Gold.PLP.Chemscore.Hbond>
0.2704

> <Gold.PLP.Chemscore.CHOScore>
0.0000

> <Gold.PLP.Chemscore.Metal>
0.0000

> <Gold.Chemscore.Hbonds>
donor molecule, donor type, donor heavy atom, donor atom, acceptor molecule, acceptor atom, score
      P1  H  1258  1270       L1     1  0.27

> <Gold.PLP.Chemscore.Internal.Correction>
0.0001

