#       Name:                EN300-155270_i001
#       Creating user name   aseyller
#       Creation time:       Fri Apr 21 19:37:50 2023


#       File generated by GOLD software.
#

@<TRIPOS>MOLECULE
EN300-155270_i001|benzaldehydes|mol2|884|dock17
    20    21     1
SMALL
USER_CHARGES


@<TRIPOS>ATOM
      1 O1          25.8591  37.2029  39.8821 O.2            1 <1>                0.0000
      2 C2          26.2991  37.5366  38.8021 C.2            1 <1>                0.0000
      3 C3          27.6955  37.2463  38.4575 C.2            1 <1>                0.0000
      4 C4          28.3422  37.5805  37.2970 C.2            1 <1>                0.0000
      5 C5          29.6553  37.0690  37.4826 C.2            1 <1>                0.0000
      6 N6          29.6695  36.5102  38.6665 N.2            1 <1>                0.0000
      7 O7          28.5999  36.6029  39.2216 O.3            1 <1>                0.0000
      8 C8          30.7860  37.1516  36.5240 C.ar           1 <1>                0.0000
      9 C9          31.9557  36.4322  36.7591 C.ar           1 <1>                0.0000
     10 C10         33.0038  36.5126  35.8647 C.ar           1 <1>                0.0000
     11 C11         32.8947  37.3059  34.7369 C.ar           1 <1>                0.0000
     12 C12         31.7355  38.0223  34.4987 C.ar           1 <1>                0.0000
     13 C13         30.6790  37.9443  35.3834 C.ar           1 <1>                0.0000
     14 H14         25.6619  38.0433  38.0925 H              1 <1>                0.0000
     15 H15         27.9469  38.1084  36.4418 H              1 <1>                0.0000
     16 H16         32.0422  35.8131  37.6397 H              1 <1>                0.0000
     17 H17         33.9110  35.9554  36.0460 H              1 <1>                0.0000
     18 H18         33.7175  37.3667  34.0400 H              1 <1>                0.0000
     19 H19         31.6556  38.6406  33.6168 H              1 <1>                0.0000
     20 H20         29.7743  38.5036  35.1963 H              1 <1>                0.0000
@<TRIPOS>BOND
    1    1    2 2     
    2    2    3 1     
    3    2   14 1     
    4    3    4 2     
    5    3    7 1     
    6    4    5 1     
    7    4   15 1     
    8    5    6 2     
    9    5    8 1     
   10    6    7 1     
   11    8    9 ar    
   12    8   13 ar    
   13    9   10 ar    
   14    9   16 1     
   15   10   11 ar    
   16   10   17 1     
   17   11   12 ar    
   18   11   18 1     
   19   12   13 ar    
   20   12   19 1     
   21   13   20 1     
@<TRIPOS>SUBSTRUCTURE
      1 ****           1
@<TRIPOS>COMMENT
> <Gold.Version>
2022.2.0

> <Gold.Id.Protein>
1qkm|1qkm_protein|mol2

> <Gold.Protein.RotatedTorsions>
[  496  491  490  487 ] final  131.08 input  -89.99 | X-H torsion

> <Gold.Protein.ActiveResidues>
 MET295  LEU298  THR299  LEU301  ALA302  GLU305  TRP335  MET336  LEU339  MET340 
 GLY342  LEU343  ARG346  PHE356  ILE373  ILE376  PHE377  LEU380  LYS471  GLY472 
 MET473  HIS475  LEU476  LEU477  ASN478  MET479  VAL484  VAL487 

> <Gold.Protein.RotatedAtoms>
   37.1601   32.9757   41.4583 H   0  0  0  0  0  0  0  0  0  0  0  0  # atno 496  bound_to 491 

> <Gold.Score>
     Score     S(PLP)   S(hbond)     S(cho)   S(metal)  DE(clash)   DE(tors)     intcor
     39.36     -39.44       0.00       0.00       0.00       0.00       0.04       0.00

> <Gold.PLP.Fitness>
39.3558

> <Gold.PLP.PLP>
-39.4358

> <Gold.PLP.part.hbond>
0.0000

> <Gold.PLP.part.metal>
0.0000

> <Gold.PLP.part.buried>
-4.2867

> <Gold.PLP.part.nonpolar>
-35.4058

> <Gold.PLP.part.repulsive>
0.1457

> <Gold.PLP.ligand.clash>
0.0000

> <Gold.PLP.ligand.torsion>
0.0400

> <Gold.PLP.Chemscore.Hbond>
0.0000

> <Gold.PLP.Chemscore.CHOScore>
0.0000

> <Gold.PLP.Chemscore.Metal>
0.0000

> <Gold.PLP.Chemscore.Internal.Correction>
0.0001

