#       Name:                EN300-155270_i001
#       Creating user name   aseyller
#       Creation time:       Fri Apr 21 19:37:44 2023


#       File generated by GOLD software.
#

@<TRIPOS>MOLECULE
EN300-155270_i001|benzaldehydes|mol2|884|dock4
    20    21     1
SMALL
USER_CHARGES


@<TRIPOS>ATOM
      1 O1          24.9084  36.9400  41.7995 O.2            1 <1>                0.0000
      2 C2          25.5033  37.1459  40.7627 C.2            1 <1>                0.0000
      3 C3          26.8861  36.6810  40.6056 C.2            1 <1>                0.0000
      4 C4          27.6717  36.8004  39.4897 C.2            1 <1>                0.0000
      5 C5          28.8981  36.1928  39.8732 C.2            1 <1>                0.0000
      6 N6          28.7400  35.7912  41.1093 N.2            1 <1>                0.0000
      7 O7          27.6393  36.0565  41.5322 O.3            1 <1>                0.0000
      8 C8          30.1163  36.0432  39.0379 C.ar           1 <1>                0.0000
      9 C9          30.5885  37.1205  38.2912 C.ar           1 <1>                0.0000
     10 C10         31.7214  36.9759  37.5163 C.ar           1 <1>                0.0000
     11 C11         32.3875  35.7642  37.4798 C.ar           1 <1>                0.0000
     12 C12         31.9229  34.6915  38.2192 C.ar           1 <1>                0.0000
     13 C13         30.7945  34.8268  39.0023 C.ar           1 <1>                0.0000
     14 H14         25.0137  37.6673  39.9535 H              1 <1>                0.0000
     15 H15         27.4183  37.2502  38.5411 H              1 <1>                0.0000
     16 H16         30.0687  38.0668  38.3185 H              1 <1>                0.0000
     17 H17         32.0883  37.8104  36.9371 H              1 <1>                0.0000
     18 H18         33.2732  35.6551  36.8715 H              1 <1>                0.0000
     19 H19         32.4465  33.7474  38.1868 H              1 <1>                0.0000
     20 H20         30.4328  33.9888  39.5796 H              1 <1>                0.0000
@<TRIPOS>BOND
    1    1    2 2     
    2    2    3 1     
    3    2   14 1     
    4    3    4 2     
    5    3    7 1     
    6    4    5 1     
    7    4   15 1     
    8    5    6 2     
    9    5    8 1     
   10    6    7 1     
   11    8    9 ar    
   12    8   13 ar    
   13    9   10 ar    
   14    9   16 1     
   15   10   11 ar    
   16   10   17 1     
   17   11   12 ar    
   18   11   18 1     
   19   12   13 ar    
   20   12   19 1     
   21   13   20 1     
@<TRIPOS>SUBSTRUCTURE
      1 ****           1
@<TRIPOS>COMMENT
> <Gold.Version>
2022.2.0

> <Gold.Id.Protein>
1qkm|1qkm_protein|mol2

> <Gold.Protein.RotatedTorsions>
[  496  491  490  487 ] final -142.40 input  -89.99 | X-H torsion

> <Gold.Protein.ActiveResidues>
 MET295  LEU298  THR299  LEU301  ALA302  GLU305  TRP335  MET336  LEU339  MET340 
 GLY342  LEU343  ARG346  PHE356  ILE373  ILE376  PHE377  LEU380  LYS471  GLY472 
 MET473  HIS475  LEU476  LEU477  ASN478  MET479  VAL484  VAL487 

> <Gold.Protein.RotatedAtoms>
   37.1888   34.0374   40.7213 H   0  0  0  0  0  0  0  0  0  0  0  0  # atno 496  bound_to 491 

> <Gold.Score>
     Score     S(PLP)   S(hbond)     S(cho)   S(metal)  DE(clash)   DE(tors)     intcor
     43.96     -44.10       0.46       0.00       0.00       0.00       0.77       0.00

> <Gold.PLP.Fitness>
43.9641

> <Gold.PLP.PLP>
-44.1033

> <Gold.PLP.part.hbond>
-0.9328

> <Gold.PLP.part.metal>
0.0000

> <Gold.PLP.part.buried>
-5.5144

> <Gold.PLP.part.nonpolar>
-38.7838

> <Gold.PLP.part.repulsive>
0.5905

> <Gold.PLP.ligand.clash>
0.0000

> <Gold.PLP.ligand.torsion>
0.7656

> <Gold.PLP.Chemscore.Hbond>
0.4640

> <Gold.PLP.Chemscore.CHOScore>
0.0000

> <Gold.PLP.Chemscore.Metal>
0.0000

> <Gold.Chemscore.Hbonds>
donor molecule, donor type, donor heavy atom, donor atom, acceptor molecule, acceptor atom, score
      P1  H  1258  1270       L1     1  0.46

> <Gold.PLP.Chemscore.Internal.Correction>
0.0001

