#       Name:                EN300-155270_i001
#       Creating user name   aseyller
#       Creation time:       Fri Apr 21 19:37:48 2023


#       File generated by GOLD software.
#

@<TRIPOS>MOLECULE
EN300-155270_i001|benzaldehydes|mol2|884|dock12
    20    21     1
SMALL
USER_CHARGES


@<TRIPOS>ATOM
      1 O1          33.3795  35.7907  36.9937 O.2            1 <1>                0.0000
      2 C2          32.4454  36.5635  37.0342 C.2            1 <1>                0.0000
      3 C3          31.3087  36.2945  37.9222 C.2            1 <1>                0.0000
      4 C4          30.1344  36.9966  37.9898 C.2            1 <1>                0.0000
      5 C5          29.3954  36.3227  38.9997 C.2            1 <1>                0.0000
      6 N6          30.1525  35.3391  39.4164 N.2            1 <1>                0.0000
      7 O7          31.2088  35.3039  38.8301 O.3            1 <1>                0.0000
      8 C8          28.0353  36.6662  39.4859 C.ar           1 <1>                0.0000
      9 C9          27.6681  36.3764  40.7982 C.ar           1 <1>                0.0000
     10 C10         26.4025  36.6978  41.2450 C.ar           1 <1>                0.0000
     11 C11         25.4991  37.3063  40.3924 C.ar           1 <1>                0.0000
     12 C12         25.8585  37.5963  39.0885 C.ar           1 <1>                0.0000
     13 C13         27.1236  37.2847  38.6331 C.ar           1 <1>                0.0000
     14 H14         32.4524  37.4518  36.4200 H              1 <1>                0.0000
     15 H15         29.8395  37.8598  37.4116 H              1 <1>                0.0000
     16 H16         28.3725  35.9007  41.4644 H              1 <1>                0.0000
     17 H17         26.1168  36.4736  42.2621 H              1 <1>                0.0000
     18 H18         24.5094  37.5555  40.7458 H              1 <1>                0.0000
     19 H19         25.1492  38.0711  38.4268 H              1 <1>                0.0000
     20 H20         27.4034  37.5119  37.6151 H              1 <1>                0.0000
@<TRIPOS>BOND
    1    1    2 2     
    2    2    3 1     
    3    2   14 1     
    4    3    4 2     
    5    3    7 1     
    6    4    5 1     
    7    4   15 1     
    8    5    6 2     
    9    5    8 1     
   10    6    7 1     
   11    8    9 ar    
   12    8   13 ar    
   13    9   10 ar    
   14    9   16 1     
   15   10   11 ar    
   16   10   17 1     
   17   11   12 ar    
   18   11   18 1     
   19   12   13 ar    
   20   12   19 1     
   21   13   20 1     
@<TRIPOS>SUBSTRUCTURE
      1 ****           1
@<TRIPOS>COMMENT
> <Gold.Version>
2022.2.0

> <Gold.Id.Protein>
1qkm|1qkm_protein|mol2

> <Gold.Protein.RotatedTorsions>
[  496  491  490  487 ] final  154.34 input  -89.99 | X-H torsion

> <Gold.Protein.ActiveResidues>
 MET295  LEU298  THR299  LEU301  ALA302  GLU305  TRP335  MET336  LEU339  MET340 
 GLY342  LEU343  ARG346  PHE356  ILE373  ILE376  PHE377  LEU380  LYS471  GLY472 
 MET473  HIS475  LEU476  LEU477  ASN478  MET479  VAL484  VAL487 

> <Gold.Protein.RotatedAtoms>
   37.2793   33.1456   41.1395 H   0  0  0  0  0  0  0  0  0  0  0  0  # atno 496  bound_to 491 

> <Gold.Score>
     Score     S(PLP)   S(hbond)     S(cho)   S(metal)  DE(clash)   DE(tors)     intcor
     42.56     -43.29       0.00       0.00       0.00       0.00       0.36       0.00

> <Gold.PLP.Fitness>
42.5592

> <Gold.PLP.PLP>
-43.2854

> <Gold.PLP.part.hbond>
0.0000

> <Gold.PLP.part.metal>
0.0000

> <Gold.PLP.part.buried>
-4.9711

> <Gold.PLP.part.nonpolar>
-39.1000

> <Gold.PLP.part.repulsive>
0.1900

> <Gold.PLP.ligand.clash>
0.0000

> <Gold.PLP.ligand.torsion>
0.3632

> <Gold.PLP.Chemscore.Hbond>
0.0000

> <Gold.PLP.Chemscore.CHOScore>
0.0000

> <Gold.PLP.Chemscore.Metal>
0.0000

> <Gold.PLP.Chemscore.Internal.Correction>
0.0001

