#       Name:                EN300-155270_i001
#       Creating user name   aseyller
#       Creation time:       Fri Apr 21 19:37:45 2023


#       File generated by GOLD software.
#

@<TRIPOS>MOLECULE
EN300-155270_i001|benzaldehydes|mol2|884|dock7
    20    21     1
SMALL
USER_CHARGES


@<TRIPOS>ATOM
      1 O1          32.5432  37.6802  35.2529 O.2            1 <1>                0.0000
      2 C2          31.6518  38.5019  35.2135 C.2            1 <1>                0.0000
      3 C3          30.5014  38.3801  36.1161 C.2            1 <1>                0.0000
      4 C4          30.3281  37.4490  37.1058 C.2            1 <1>                0.0000
      5 C5          29.0632  37.7799  37.6634 C.2            1 <1>                0.0000
      6 N6          28.6251  38.8165  36.9943 N.2            1 <1>                0.0000
      7 O7          29.4067  39.1654  36.1410 O.3            1 <1>                0.0000
      8 C8          28.3755  37.0873  38.7821 C.ar           1 <1>                0.0000
      9 C9          26.9836  37.0445  38.8276 C.ar           1 <1>                0.0000
     10 C10         26.3493  36.3994  39.8698 C.ar           1 <1>                0.0000
     11 C11         27.0928  35.7963  40.8682 C.ar           1 <1>                0.0000
     12 C12         28.4749  35.8359  40.8279 C.ar           1 <1>                0.0000
     13 C13         29.1195  36.4730  39.7871 C.ar           1 <1>                0.0000
     14 H14         31.7071  39.3257  34.5174 H              1 <1>                0.0000
     15 H15         30.9958  36.6507  37.3944 H              1 <1>                0.0000
     16 H16         26.4023  37.5156  38.0488 H              1 <1>                0.0000
     17 H17         25.2704  36.3656  39.9060 H              1 <1>                0.0000
     18 H18         26.5924  35.2932  41.6825 H              1 <1>                0.0000
     19 H19         29.0506  35.3638  41.6103 H              1 <1>                0.0000
     20 H20         30.1986  36.5030  39.7563 H              1 <1>                0.0000
@<TRIPOS>BOND
    1    1    2 2     
    2    2    3 1     
    3    2   14 1     
    4    3    4 2     
    5    3    7 1     
    6    4    5 1     
    7    4   15 1     
    8    5    6 2     
    9    5    8 1     
   10    6    7 1     
   11    8    9 ar    
   12    8   13 ar    
   13    9   10 ar    
   14    9   16 1     
   15   10   11 ar    
   16   10   17 1     
   17   11   12 ar    
   18   11   18 1     
   19   12   13 ar    
   20   12   19 1     
   21   13   20 1     
@<TRIPOS>SUBSTRUCTURE
      1 ****           1
@<TRIPOS>COMMENT
> <Gold.Version>
2022.2.0

> <Gold.Id.Protein>
1qkm|1qkm_protein|mol2

> <Gold.Protein.RotatedTorsions>
[  496  491  490  487 ] final -157.49 input  -89.99 | X-H torsion

> <Gold.Protein.ActiveResidues>
 MET295  LEU298  THR299  LEU301  ALA302  GLU305  TRP335  MET336  LEU339  MET340 
 GLY342  LEU343  ARG346  PHE356  ILE373  ILE376  PHE377  LEU380  LYS471  GLY472 
 MET473  HIS475  LEU476  LEU477  ASN478  MET479  VAL484  VAL487 

> <Gold.Protein.RotatedAtoms>
   37.2655   33.8026   40.7387 H   0  0  0  0  0  0  0  0  0  0  0  0  # atno 496  bound_to 491 

> <Gold.Score>
     Score     S(PLP)   S(hbond)     S(cho)   S(metal)  DE(clash)   DE(tors)     intcor
     40.36     -41.15       0.00       0.00       0.00       0.00       0.40       0.00

> <Gold.PLP.Fitness>
40.3591

> <Gold.PLP.PLP>
-41.1512

> <Gold.PLP.part.hbond>
0.0000

> <Gold.PLP.part.metal>
0.0000

> <Gold.PLP.part.buried>
-4.1605

> <Gold.PLP.part.nonpolar>
-37.4554

> <Gold.PLP.part.repulsive>
0.0994

> <Gold.PLP.ligand.clash>
0.0000

> <Gold.PLP.ligand.torsion>
0.3961

> <Gold.PLP.Chemscore.Hbond>
0.0000

> <Gold.PLP.Chemscore.CHOScore>
0.0000

> <Gold.PLP.Chemscore.Metal>
0.0000

> <Gold.PLP.Chemscore.Internal.Correction>
0.0001

