#       Name:                EN300-155270_i001
#       Creating user name   aseyller
#       Creation time:       Fri Apr 21 19:37:46 2023


#       File generated by GOLD software.
#

@<TRIPOS>MOLECULE
EN300-155270_i001|benzaldehydes|mol2|884|dock8
    20    21     1
SMALL
USER_CHARGES


@<TRIPOS>ATOM
      1 O1          32.9031  37.2932  35.4512 O.2            1 <1>                0.0000
      2 C2          32.5567  36.8295  36.5171 C.2            1 <1>                0.0000
      3 C3          31.1913  37.0532  37.0055 C.2            1 <1>                0.0000
      4 C4          30.6709  36.6475  38.2060 C.2            1 <1>                0.0000
      5 C5          29.3299  37.1174  38.1692 C.2            1 <1>                0.0000
      6 N6          29.1833  37.7242  37.0182 N.2            1 <1>                0.0000
      7 O7          30.2002  37.7042  36.3653 O.3            1 <1>                0.0000
      8 C8          28.3001  36.9526  39.2258 C.ar           1 <1>                0.0000
      9 C9          26.9560  37.1720  38.9321 C.ar           1 <1>                0.0000
     10 C10         26.0027  37.0174  39.9181 C.ar           1 <1>                0.0000
     11 C11         26.3797  36.6456  41.1960 C.ar           1 <1>                0.0000
     12 C12         27.7128  36.4265  41.4929 C.ar           1 <1>                0.0000
     13 C13         28.6737  36.5723  40.5129 C.ar           1 <1>                0.0000
     14 H14         33.2518  36.2480  37.1046 H              1 <1>                0.0000
     15 H15         31.1638  36.0990  38.9950 H              1 <1>                0.0000
     16 H16         26.6607  37.4629  37.9348 H              1 <1>                0.0000
     17 H17         24.9605  37.1872  39.6915 H              1 <1>                0.0000
     18 H18         25.6306  36.5265  41.9648 H              1 <1>                0.0000
     19 H19         28.0019  36.1368  42.4924 H              1 <1>                0.0000
     20 H20         29.7143  36.4006  40.7456 H              1 <1>                0.0000
@<TRIPOS>BOND
    1    1    2 2     
    2    2    3 1     
    3    2   14 1     
    4    3    4 2     
    5    3    7 1     
    6    4    5 1     
    7    4   15 1     
    8    5    6 2     
    9    5    8 1     
   10    6    7 1     
   11    8    9 ar    
   12    8   13 ar    
   13    9   10 ar    
   14    9   16 1     
   15   10   11 ar    
   16   10   17 1     
   17   11   12 ar    
   18   11   18 1     
   19   12   13 ar    
   20   12   19 1     
   21   13   20 1     
@<TRIPOS>SUBSTRUCTURE
      1 ****           1
@<TRIPOS>COMMENT
> <Gold.Version>
2022.2.0

> <Gold.Id.Protein>
1qkm|1qkm_protein|mol2

> <Gold.Protein.RotatedTorsions>
[  496  491  490  487 ] final  -83.96 input  -89.99 | X-H torsion

> <Gold.Protein.ActiveResidues>
 MET295  LEU298  THR299  LEU301  ALA302  GLU305  TRP335  MET336  LEU339  MET340 
 GLY342  LEU343  ARG346  PHE356  ILE373  ILE376  PHE377  LEU380  LYS471  GLY472 
 MET473  HIS475  LEU476  LEU477  ASN478  MET479  VAL484  VAL487 

> <Gold.Protein.RotatedAtoms>
   36.7018   34.6883   41.1538 H   0  0  0  0  0  0  0  0  0  0  0  0  # atno 496  bound_to 491 

> <Gold.Score>
     Score     S(PLP)   S(hbond)     S(cho)   S(metal)  DE(clash)   DE(tors)     intcor
     41.10     -41.32       0.00       0.00       0.00       0.00       0.11       0.00

> <Gold.PLP.Fitness>
41.1010

> <Gold.PLP.PLP>
-41.3151

> <Gold.PLP.part.hbond>
0.0000

> <Gold.PLP.part.metal>
0.0000

> <Gold.PLP.part.buried>
-4.1023

> <Gold.PLP.part.nonpolar>
-37.6852

> <Gold.PLP.part.repulsive>
0.0995

> <Gold.PLP.ligand.clash>
0.0000

> <Gold.PLP.ligand.torsion>
0.1071

> <Gold.PLP.Chemscore.Hbond>
0.0000

> <Gold.PLP.Chemscore.CHOScore>
0.0000

> <Gold.PLP.Chemscore.Metal>
0.0000

> <Gold.PLP.Chemscore.Internal.Correction>
0.0001

