#       Name:                plp ligand
#       Creating user name   aseyller
#       Creation time:       Fri Apr 21 19:37:42 2023


#       File generated by GOLD software.
#

@<TRIPOS>MOLECULE
plp ligand
    20    21     1
SMALL
USER_CHARGES


@<TRIPOS>ATOM
      1 O1          -5.2774   0.1090   0.0011 ACCEPTOR       1 <1>                0.0000
      2 C2          -4.2895  -0.5948  -0.0003 NONPOLAR       1 <1>                0.0000
      3 C3          -2.9547   0.0145   0.0002 NONPOLAR       1 <1>                0.0000
      4 C4          -1.7519  -0.6411  -0.0012 NONPOLAR       1 <1>                0.0000
      5 C5          -0.7944   0.4094   0.0000 NONPOLAR       1 <1>                0.0000
      6 N6          -1.4745   1.5282   0.0018 ACCEPTOR       1 <1>                0.0000
      7 O7          -2.6669   1.3309  -0.0039 ACCEPTOR       1 <1>                0.0000
      8 C8           0.6833   0.2663  -0.0003 NONPOLAR       1 <1>                0.0000
      9 C9           1.4952   1.3985   0.0010 NONPOLAR       1 <1>                0.0000
     10 C10          2.8684   1.2598   0.0007 NONPOLAR       1 <1>                0.0000
     11 C11          3.4388  -0.0003  -0.0013 NONPOLAR       1 <1>                0.0000
     12 C12          2.6373  -1.1277  -0.0026 NONPOLAR       1 <1>                0.0000
     13 C13          1.2630  -1.0005   0.0039 NONPOLAR       1 <1>                0.0000
     14 H14         -4.3923  -1.6699   0.0027                1 <1>                0.0000
     15 H15         -1.5732  -1.7062  -0.0025                1 <1>                0.0000
     16 H16          1.0508   2.3828   0.0019                1 <1>                0.0000
     17 H17          3.4987   2.1368   0.0017                1 <1>                0.0000
     18 H18          4.5138  -0.1044  -0.0023                1 <1>                0.0000
     19 H19          3.0878  -2.1093  -0.0046                1 <1>                0.0000
     20 H20          0.6381  -1.8813   0.0033                1 <1>                0.0000
@<TRIPOS>BOND
    1    1    2 2     
    2    2    3 1     
    3    2   14 1     
    4    3    4 2     
    5    3    7 1     
    6    4    5 1     
    7    4   15 1     
    8    5    6 2     
    9    5    8 1     
   10    6    7 1     
   11    8    9 ar    
   12    8   13 ar    
   13    9   10 ar    
   14    9   16 1     
   15   10   11 ar    
   16   10   17 1     
   17   11   12 ar    
   18   11   18 1     
   19   12   13 ar    
   20   12   19 1     
   21   13   20 1     
@<TRIPOS>SUBSTRUCTURE
      1 ****           1
@<TRIPOS>SET
DONOR_HYDROGENS      STATIC     ATOMS    <user>   **** ""
0
ATOM$RED        STATIC     ATOMS    COLORGROUP SYSTEM
0
