#       Name:                EN300-330399_i001
#       Creating user name   aseyller
#       Creation time:       Fri Apr 21 19:46:31 2023


#       File generated by GOLD software.
#

@<TRIPOS>MOLECULE
EN300-330399_i001|Sulfonylchlorides|mol2|903|dock6
    26    26     1
SMALL
USER_CHARGES


@<TRIPOS>ATOM
      1 Cl1         30.4472  36.9615  35.0730 Cl             1 <1>                0.0000
      2 S2          32.2664  36.6118  35.8784 S.o2           1 <1>                0.0000
      3 O3          32.4056  35.1986  35.8293 O.2            1 <1>                0.0000
      4 O4          33.1419  37.4600  35.1481 O.2            1 <1>                0.0000
      5 C5          32.1175  37.1774  37.5955 C.3            1 <1>                0.0000
      6 C6          31.0506  36.3495  38.3144 C.3            1 <1>                0.0000
      7 O7          29.8299  37.0906  38.3700 O.3            1 <1>                0.0000
      8 C8          28.8098  36.4722  39.1568 C.3            1 <1>                0.0000
      9 C9          29.1021  36.6976  40.6435 C.3            1 <1>                0.0000
     10 C10         27.9642  36.1005  41.4754 C.3            1 <1>                0.0000
     11 O11         26.7262  36.6990  41.0860 O.3            1 <1>                0.0000
     12 C12         26.3777  36.4807  39.7175 C.3            1 <1>                0.0000
     13 C13         27.4519  37.0931  38.8148 C.3            1 <1>                0.0000
     14 H14         33.0747  37.0556  38.1025 H              1 <1>                0.0000
     15 H15         31.8311  38.2290  37.6081 H              1 <1>                0.0000
     16 H16         30.8861  35.4187  37.7717 H              1 <1>                0.0000
     17 H17         31.3858  36.1253  39.3271 H              1 <1>                0.0000
     18 H18         28.7863  35.4027  38.9479 H              1 <1>                0.0000
     19 H19         30.0409  36.2110  40.9080 H              1 <1>                0.0000
     20 H20         29.1763  37.7667  40.8421 H              1 <1>                0.0000
     21 H21         27.9166  35.0246  41.3071 H              1 <1>                0.0000
     22 H22         28.1456  36.2955  42.5324 H              1 <1>                0.0000
     23 H23         26.3093  35.4098  39.5261 H              1 <1>                0.0000
     24 H24         25.4163  36.9496  39.5080 H              1 <1>                0.0000
     25 H25         27.4928  38.1702  38.9765 H              1 <1>                0.0000
     26 H26         27.2105  36.8893  37.7716 H              1 <1>                0.0000
@<TRIPOS>BOND
    1    1    2 1     
    2    2    3 2     
    3    2    4 2     
    4    2    5 1     
    5    5    6 1     
    6    5   14 1     
    7    5   15 1     
    8    6    7 1     
    9    6   16 1     
   10    6   17 1     
   11    7    8 1     
   12    8    9 1     
   13    8   13 1     
   14    8   18 1     
   15    9   10 1     
   16    9   19 1     
   17    9   20 1     
   18   10   11 1     
   19   10   21 1     
   20   10   22 1     
   21   11   12 1     
   22   12   13 1     
   23   12   23 1     
   24   12   24 1     
   25   13   25 1     
   26   13   26 1     
@<TRIPOS>SUBSTRUCTURE
      1 ****           1
@<TRIPOS>COMMENT
> <Gold.Version>
2022.2.0

> <Gold.Id.Protein>
1qkm|1qkm_protein|mol2

> <Gold.Protein.RotatedTorsions>
[  496  491  490  487 ] final -135.74 input  -89.99 | X-H torsion

> <Gold.Protein.ActiveResidues>
 MET295  LEU298  THR299  LEU301  ALA302  GLU305  TRP335  MET336  LEU339  MET340 
 GLY342  LEU343  ARG346  PHE356  ILE373  ILE376  PHE377  LEU380  LYS471  GLY472 
 MET473  HIS475  LEU476  LEU477  ASN478  MET479  VAL484  VAL487 

> <Gold.Protein.RotatedAtoms>
   37.1457   34.1377   40.7319 H   0  0  0  0  0  0  0  0  0  0  0  0  # atno 496  bound_to 491 

> <Gold.Score>
     Score     S(PLP)   S(hbond)     S(cho)   S(metal)  DE(clash)   DE(tors)     intcor
     36.98     -37.86       0.00       0.00       0.00       0.00       0.51       0.14

> <Gold.PLP.Fitness>
36.9789

> <Gold.PLP.PLP>
-37.8580

> <Gold.PLP.part.hbond>
0.0000

> <Gold.PLP.part.metal>
0.0000

> <Gold.PLP.part.buried>
-5.4489

> <Gold.PLP.part.nonpolar>
-32.6857

> <Gold.PLP.part.repulsive>
0.3081

> <Gold.PLP.ligand.clash>
0.0000

> <Gold.PLP.ligand.torsion>
0.5118

> <Gold.PLP.Chemscore.Hbond>
0.0000

> <Gold.PLP.Chemscore.CHOScore>
0.0000

> <Gold.PLP.Chemscore.Metal>
0.0000

> <Gold.PLP.Chemscore.Internal.Correction>
0.1445

