#       Name:                EN300-330399_i001
#       Creating user name   aseyller
#       Creation time:       Fri Apr 21 19:46:34 2023


#       File generated by GOLD software.
#

@<TRIPOS>MOLECULE
EN300-330399_i001|Sulfonylchlorides|mol2|903|dock9
    26    26     1
SMALL
USER_CHARGES


@<TRIPOS>ATOM
      1 Cl1         33.1468  36.5229  35.1806 Cl             1 <1>                0.0000
      2 S2          32.3386  36.0180  36.9617 S.o2           1 <1>                0.0000
      3 O3          32.4011  34.5987  36.9852 O.2            1 <1>                0.0000
      4 O4          33.0574  36.7988  37.9066 O.2            1 <1>                0.0000
      5 C5          30.6165  36.5775  36.8521 C.3            1 <1>                0.0000
      6 C6          30.2451  37.3374  38.1271 C.3            1 <1>                0.0000
      7 O7          29.6264  36.4413  39.0526 O.3            1 <1>                0.0000
      8 C8          28.3992  36.9272  39.6002 C.3            1 <1>                0.0000
      9 C9          27.2505  36.6216  38.6341 C.3            1 <1>                0.0000
     10 C10         25.9306  37.0747  39.2636 C.3            1 <1>                0.0000
     11 O11         25.7519  36.4153  40.5188 O.3            1 <1>                0.0000
     12 C12         26.7713  36.7015  41.4785 C.3            1 <1>                0.0000
     13 C13         28.1250  36.2334  40.9381 C.3            1 <1>                0.0000
     14 H14         30.5023  37.2355  35.9907 H              1 <1>                0.0000
     15 H15         29.9606  35.7143  36.7395 H              1 <1>                0.0000
     16 H16         31.1456  37.7577  38.5749 H              1 <1>                0.0000
     17 H17         29.5518  38.1419  37.8817 H              1 <1>                0.0000
     18 H18         28.4697  38.0040  39.7540 H              1 <1>                0.0000
     19 H19         27.4100  37.1565  37.6978 H              1 <1>                0.0000
     20 H20         27.2127  35.5497  38.4406 H              1 <1>                0.0000
     21 H21         25.9535  38.1532  39.4197 H              1 <1>                0.0000
     22 H22         25.1049  36.8209  38.5989 H              1 <1>                0.0000
     23 H23         26.8052  37.7751  41.6636 H              1 <1>                0.0000
     24 H24         26.5511  36.1788  42.4094 H              1 <1>                0.0000
     25 H25         28.1049  35.1537  40.7910 H              1 <1>                0.0000
     26 H26         28.9098  36.4905  41.6494 H              1 <1>                0.0000
@<TRIPOS>BOND
    1    1    2 1     
    2    2    3 2     
    3    2    4 2     
    4    2    5 1     
    5    5    6 1     
    6    5   14 1     
    7    5   15 1     
    8    6    7 1     
    9    6   16 1     
   10    6   17 1     
   11    7    8 1     
   12    8    9 1     
   13    8   13 1     
   14    8   18 1     
   15    9   10 1     
   16    9   19 1     
   17    9   20 1     
   18   10   11 1     
   19   10   21 1     
   20   10   22 1     
   21   11   12 1     
   22   12   13 1     
   23   12   23 1     
   24   12   24 1     
   25   13   25 1     
   26   13   26 1     
@<TRIPOS>SUBSTRUCTURE
      1 ****           1
@<TRIPOS>COMMENT
> <Gold.Version>
2022.2.0

> <Gold.Id.Protein>
1qkm|1qkm_protein|mol2

> <Gold.Protein.RotatedTorsions>
[  496  491  490  487 ] final  -75.18 input  -89.99 | X-H torsion

> <Gold.Protein.ActiveResidues>
 MET295  LEU298  THR299  LEU301  ALA302  GLU305  TRP335  MET336  LEU339  MET340 
 GLY342  LEU343  ARG346  PHE356  ILE373  ILE376  PHE377  LEU380  LYS471  GLY472 
 MET473  HIS475  LEU476  LEU477  ASN478  MET479  VAL484  VAL487 

> <Gold.Protein.RotatedAtoms>
   36.6230   34.7224   41.2701 H   0  0  0  0  0  0  0  0  0  0  0  0  # atno 496  bound_to 491 

> <Gold.Score>
     Score     S(PLP)   S(hbond)     S(cho)   S(metal)  DE(clash)   DE(tors)     intcor
     35.94     -37.93       0.00       0.00       0.00       0.00       1.06       0.14

> <Gold.PLP.Fitness>
35.9436

> <Gold.PLP.PLP>
-37.9285

> <Gold.PLP.part.hbond>
0.0000

> <Gold.PLP.part.metal>
0.0000

> <Gold.PLP.part.buried>
-3.6616

> <Gold.PLP.part.nonpolar>
-34.2546

> <Gold.PLP.part.repulsive>
0.2410

> <Gold.PLP.ligand.clash>
0.0000

> <Gold.PLP.ligand.torsion>
1.0647

> <Gold.PLP.Chemscore.Hbond>
0.0000

> <Gold.PLP.Chemscore.CHOScore>
0.0000

> <Gold.PLP.Chemscore.Metal>
0.0000

> <Gold.PLP.Chemscore.Internal.Correction>
0.1445

