#       Name:                EN300-330399_i001
#       Creating user name   aseyller
#       Creation time:       Fri Apr 21 19:46:36 2023


#       File generated by GOLD software.
#

@<TRIPOS>MOLECULE
EN300-330399_i001|Sulfonylchlorides|mol2|903|dock12
    26    26     1
SMALL
USER_CHARGES


@<TRIPOS>ATOM
      1 Cl1         31.9198  36.0877  37.6129 Cl             1 <1>                0.0000
      2 S2          31.5283  37.4202  36.1459 S.o2           1 <1>                0.0000
      3 O3          32.6927  38.2328  36.0908 O.2            1 <1>                0.0000
      4 O4          31.1413  36.6184  35.0384 O.2            1 <1>                0.0000
      5 C5          30.1153  38.3739  36.7661 C.3            1 <1>                0.0000
      6 C6          29.6996  37.8366  38.1369 C.3            1 <1>                0.0000
      7 O7          29.2388  36.4907  38.0013 O.3            1 <1>                0.0000
      8 C8          28.3502  36.0731  39.0396 C.3            1 <1>                0.0000
      9 C9          28.9654  36.4016  40.4033 C.3            1 <1>                0.0000
     10 C10         27.9735  36.0231  41.5063 C.3            1 <1>                0.0000
     11 O11         26.7447  36.7233  41.3010 O.3            1 <1>                0.0000
     12 C12         26.1001  36.4195  40.0624 C.3            1 <1>                0.0000
     13 C13         27.0166  36.8140  38.9014 C.3            1 <1>                0.0000
     14 H14         30.3969  39.4230  36.8571 H              1 <1>                0.0000
     15 H15         29.2810  38.2807  36.0710 H              1 <1>                0.0000
     16 H16         30.5553  37.8615  38.8117 H              1 <1>                0.0000
     17 H17         28.8992  38.4555  38.5423 H              1 <1>                0.0000
     18 H18         28.1815  34.9988  38.9648 H              1 <1>                0.0000
     19 H19         29.8877  35.8353  40.5328 H              1 <1>                0.0000
     20 H20         29.1812  37.4686  40.4580 H              1 <1>                0.0000
     21 H21         27.7892  34.9492  41.4766 H              1 <1>                0.0000
     22 H22         28.3886  36.2941  42.4771 H              1 <1>                0.0000
     23 H23         25.8912  35.3509  40.0138 H              1 <1>                0.0000
     24 H24         25.1655  36.9762  39.9930 H              1 <1>                0.0000
     25 H25         27.1932  37.8893  38.9258 H              1 <1>                0.0000
     26 H26         26.5453  36.5427  37.9568 H              1 <1>                0.0000
@<TRIPOS>BOND
    1    1    2 1     
    2    2    3 2     
    3    2    4 2     
    4    2    5 1     
    5    5    6 1     
    6    5   14 1     
    7    5   15 1     
    8    6    7 1     
    9    6   16 1     
   10    6   17 1     
   11    7    8 1     
   12    8    9 1     
   13    8   13 1     
   14    8   18 1     
   15    9   10 1     
   16    9   19 1     
   17    9   20 1     
   18   10   11 1     
   19   10   21 1     
   20   10   22 1     
   21   11   12 1     
   22   12   13 1     
   23   12   23 1     
   24   12   24 1     
   25   13   25 1     
   26   13   26 1     
@<TRIPOS>SUBSTRUCTURE
      1 ****           1
@<TRIPOS>COMMENT
> <Gold.Version>
2022.2.0

> <Gold.Id.Protein>
1qkm|1qkm_protein|mol2

> <Gold.Protein.RotatedTorsions>
[  496  491  490  487 ] final -120.64 input  -89.99 | X-H torsion

> <Gold.Protein.ActiveResidues>
 MET295  LEU298  THR299  LEU301  ALA302  GLU305  TRP335  MET336  LEU339  MET340 
 GLY342  LEU343  ARG346  PHE356  ILE373  ILE376  PHE377  LEU380  LYS471  GLY472 
 MET473  HIS475  LEU476  LEU477  ASN478  MET479  VAL484  VAL487 

> <Gold.Protein.RotatedAtoms>
   37.0313   34.3479   40.7965 H   0  0  0  0  0  0  0  0  0  0  0  0  # atno 496  bound_to 491 

> <Gold.Score>
     Score     S(PLP)   S(hbond)     S(cho)   S(metal)  DE(clash)   DE(tors)     intcor
     37.10     -37.46       0.00       0.00       0.00       0.00       0.25       0.14

> <Gold.PLP.Fitness>
37.1018

> <Gold.PLP.PLP>
-37.4575

> <Gold.PLP.part.hbond>
0.0000

> <Gold.PLP.part.metal>
0.0000

> <Gold.PLP.part.buried>
-3.9310

> <Gold.PLP.part.nonpolar>
-34.3556

> <Gold.PLP.part.repulsive>
0.2347

> <Gold.PLP.ligand.clash>
0.0000

> <Gold.PLP.ligand.torsion>
0.2501

> <Gold.PLP.Chemscore.Hbond>
0.0000

> <Gold.PLP.Chemscore.CHOScore>
0.0000

> <Gold.PLP.Chemscore.Metal>
0.0000

> <Gold.PLP.Chemscore.Internal.Correction>
0.1445

