#       Name:                EN300-330399_i001
#       Creating user name   aseyller
#       Creation time:       Fri Apr 21 19:46:39 2023


#       File generated by GOLD software.
#

@<TRIPOS>MOLECULE
EN300-330399_i001|Sulfonylchlorides|mol2|903|dock15
    26    26     1
SMALL
USER_CHARGES


@<TRIPOS>ATOM
      1 Cl1         32.6838  35.8725  35.4901 Cl             1 <1>                0.0000
      2 S2          31.7665  37.6665  35.3465 S.o2           1 <1>                0.0000
      3 O3          32.2960  38.4185  36.4296 O.2            1 <1>                0.0000
      4 O4          31.9864  38.0658  34.0006 O.2            1 <1>                0.0000
      5 C5          30.0114  37.3008  35.6234 C.3            1 <1>                0.0000
      6 C6          29.5608  37.9324  36.9420 C.3            1 <1>                0.0000
      7 O7          29.7781  37.0092  38.0111 O.3            1 <1>                0.0000
      8 C8          28.7945  37.0759  39.0456 C.3            1 <1>                0.0000
      9 C9          27.4154  36.7521  38.4630 C.3            1 <1>                0.0000
     10 C10         26.3813  36.7486  39.5919 C.3            1 <1>                0.0000
     11 O11         26.7679  35.7991  40.5875 O.3            1 <1>                0.0000
     12 C12         28.0282  36.0775  41.2009 C.3            1 <1>                0.0000
     13 C13         29.1285  36.0540  40.1368 C.3            1 <1>                0.0000
     14 H14         29.4212  37.7107  34.8038 H              1 <1>                0.0000
     15 H15         29.8681  36.2213  35.6699 H              1 <1>                0.0000
     16 H16         30.1344  38.8411  37.1244 H              1 <1>                0.0000
     17 H17         28.5004  38.1776  36.8838 H              1 <1>                0.0000
     18 H18         28.7833  38.0782  39.4739 H              1 <1>                0.0000
     19 H19         27.1457  37.5068  37.7243 H              1 <1>                0.0000
     20 H20         27.4412  35.7706  37.9897 H              1 <1>                0.0000
     21 H21         26.3270  37.7416  40.0382 H              1 <1>                0.0000
     22 H22         25.4053  36.4768  39.1899 H              1 <1>                0.0000
     23 H23         27.9955  37.0616  41.6684 H              1 <1>                0.0000
     24 H24         28.2386  35.3222  41.9581 H              1 <1>                0.0000
     25 H25         29.1890  35.0585  39.6972 H              1 <1>                0.0000
     26 H26         30.0839  36.3095  40.5950 H              1 <1>                0.0000
@<TRIPOS>BOND
    1    1    2 1     
    2    2    3 2     
    3    2    4 2     
    4    2    5 1     
    5    5    6 1     
    6    5   14 1     
    7    5   15 1     
    8    6    7 1     
    9    6   16 1     
   10    6   17 1     
   11    7    8 1     
   12    8    9 1     
   13    8   13 1     
   14    8   18 1     
   15    9   10 1     
   16    9   19 1     
   17    9   20 1     
   18   10   11 1     
   19   10   21 1     
   20   10   22 1     
   21   11   12 1     
   22   12   13 1     
   23   12   23 1     
   24   12   24 1     
   25   13   25 1     
   26   13   26 1     
@<TRIPOS>SUBSTRUCTURE
      1 ****           1
@<TRIPOS>COMMENT
> <Gold.Version>
2022.2.0

> <Gold.Id.Protein>
1qkm|1qkm_protein|mol2

> <Gold.Protein.RotatedTorsions>
[  496  491  490  487 ] final  140.33 input  -89.99 | X-H torsion

> <Gold.Protein.ActiveResidues>
 MET295  LEU298  THR299  LEU301  ALA302  GLU305  TRP335  MET336  LEU339  MET340 
 GLY342  LEU343  ARG346  PHE356  ILE373  ILE376  PHE377  LEU380  LYS471  GLY472 
 MET473  HIS475  LEU476  LEU477  ASN478  MET479  VAL484  VAL487 

> <Gold.Protein.RotatedAtoms>
   37.2161   33.0275   41.3266 H   0  0  0  0  0  0  0  0  0  0  0  0  # atno 496  bound_to 491 

> <Gold.Score>
     Score     S(PLP)   S(hbond)     S(cho)   S(metal)  DE(clash)   DE(tors)     intcor
     37.02     -37.95       0.00       0.00       0.00       0.00       0.53       0.14

> <Gold.PLP.Fitness>
37.0234

> <Gold.PLP.PLP>
-37.9469

> <Gold.PLP.part.hbond>
0.0000

> <Gold.PLP.part.metal>
0.0000

> <Gold.PLP.part.buried>
-4.9067

> <Gold.PLP.part.nonpolar>
-33.4489

> <Gold.PLP.part.repulsive>
0.2691

> <Gold.PLP.ligand.clash>
0.0000

> <Gold.PLP.ligand.torsion>
0.5326

> <Gold.PLP.Chemscore.Hbond>
0.0000

> <Gold.PLP.Chemscore.CHOScore>
0.0000

> <Gold.PLP.Chemscore.Metal>
0.0000

> <Gold.PLP.Chemscore.Internal.Correction>
0.1417

