#       Name:                EN300-330399_i001
#       Creating user name   aseyller
#       Creation time:       Fri Apr 21 19:46:43 2023


#       File generated by GOLD software.
#

@<TRIPOS>MOLECULE
EN300-330399_i001|Sulfonylchlorides|mol2|903|dock19
    26    26     1
SMALL
USER_CHARGES


@<TRIPOS>ATOM
      1 Cl1         33.2730  35.9059  36.8301 Cl             1 <1>                0.0000
      2 S2          31.8129  37.1839  36.2685 S.o2           1 <1>                0.0000
      3 O3          32.4045  38.4696  36.3957 O.2            1 <1>                0.0000
      4 O4          31.3868  36.6954  35.0040 O.2            1 <1>                0.0000
      5 C5          30.5103  36.9570  37.5105 C.3            1 <1>                0.0000
      6 C6          29.3173  37.8513  37.1675 C.3            1 <1>                0.0000
      7 O7          28.1026  37.1619  37.4703 O.3            1 <1>                0.0000
      8 C8          27.6892  37.2841  38.8327 C.3            1 <1>                0.0000
      9 C9          26.2219  36.8641  38.9625 C.3            1 <1>                0.0000
     10 C10         25.8108  36.9228  40.4360 C.3            1 <1>                0.0000
     11 O11         26.6700  36.0767  41.2030 O.3            1 <1>                0.0000
     12 C12         28.0486  36.4501  41.1575 C.3            1 <1>                0.0000
     13 C13         28.5496  36.3724  39.7130 C.3            1 <1>                0.0000
     14 H14         30.1927  35.9144  37.5175 H              1 <1>                0.0000
     15 H15         30.8953  37.2262  38.4940 H              1 <1>                0.0000
     16 H16         29.3704  38.7686  37.7538 H              1 <1>                0.0000
     17 H17         29.3406  38.0968  36.1058 H              1 <1>                0.0000
     18 H18         27.8024  38.3187  39.1568 H              1 <1>                0.0000
     19 H19         25.5961  37.5425  38.3825 H              1 <1>                0.0000
     20 H20         26.0999  35.8468  38.5906 H              1 <1>                0.0000
     21 H21         25.8944  37.9481  40.7962 H              1 <1>                0.0000
     22 H22         24.7800  36.5839  40.5396 H              1 <1>                0.0000
     23 H23         28.1616  37.4692  41.5272 H              1 <1>                0.0000
     24 H24         28.6299  35.7707  41.7809 H              1 <1>                0.0000
     25 H25         28.4747  35.3452  39.3562 H              1 <1>                0.0000
     26 H26         29.5886  36.6991  39.6698 H              1 <1>                0.0000
@<TRIPOS>BOND
    1    1    2 1     
    2    2    3 2     
    3    2    4 2     
    4    2    5 1     
    5    5    6 1     
    6    5   14 1     
    7    5   15 1     
    8    6    7 1     
    9    6   16 1     
   10    6   17 1     
   11    7    8 1     
   12    8    9 1     
   13    8   13 1     
   14    8   18 1     
   15    9   10 1     
   16    9   19 1     
   17    9   20 1     
   18   10   11 1     
   19   10   21 1     
   20   10   22 1     
   21   11   12 1     
   22   12   13 1     
   23   12   23 1     
   24   12   24 1     
   25   13   25 1     
   26   13   26 1     
@<TRIPOS>SUBSTRUCTURE
      1 ****           1
@<TRIPOS>COMMENT
> <Gold.Version>
2022.2.0

> <Gold.Id.Protein>
1qkm|1qkm_protein|mol2

> <Gold.Protein.RotatedTorsions>
[  496  491  490  487 ] final   95.28 input  -89.99 | X-H torsion

> <Gold.Protein.ActiveResidues>
 MET295  LEU298  THR299  LEU301  ALA302  GLU305  TRP335  MET336  LEU339  MET340 
 GLY342  LEU343  ARG346  PHE356  ILE373  ILE376  PHE377  LEU380  LYS471  GLY472 
 MET473  HIS475  LEU476  LEU477  ASN478  MET479  VAL484  VAL487 

> <Gold.Protein.RotatedAtoms>
   36.8688   32.9908   41.9593 H   0  0  0  0  0  0  0  0  0  0  0  0  # atno 496  bound_to 491 

> <Gold.Score>
     Score     S(PLP)   S(hbond)     S(cho)   S(metal)  DE(clash)   DE(tors)     intcor
     35.67     -36.71       0.00       0.00       0.00       0.00       0.59       0.14

> <Gold.PLP.Fitness>
35.6667

> <Gold.PLP.PLP>
-36.7141

> <Gold.PLP.part.hbond>
0.0000

> <Gold.PLP.part.metal>
0.0000

> <Gold.PLP.part.buried>
-4.2738

> <Gold.PLP.part.nonpolar>
-33.0485

> <Gold.PLP.part.repulsive>
0.7213

> <Gold.PLP.ligand.clash>
0.0000

> <Gold.PLP.ligand.torsion>
0.5946

> <Gold.PLP.Chemscore.Hbond>
0.0000

> <Gold.PLP.Chemscore.CHOScore>
0.0000

> <Gold.PLP.Chemscore.Metal>
0.0000

> <Gold.PLP.Chemscore.Internal.Correction>
0.1417

