#       Name:                EN300-330399_i001
#       Creating user name   aseyller
#       Creation time:       Fri Apr 21 19:46:33 2023


#       File generated by GOLD software.
#

@<TRIPOS>MOLECULE
EN300-330399_i001|Sulfonylchlorides|mol2|903|dock8
    26    26     1
SMALL
USER_CHARGES


@<TRIPOS>ATOM
      1 Cl1         33.5946  36.7022  34.9242 Cl             1 <1>                0.0000
      2 S2          32.4227  36.4134  36.5440 S.o2           1 <1>                0.0000
      3 O3          32.1811  35.0132  36.5565 O.2            1 <1>                0.0000
      4 O4          33.1279  37.0447  37.6038 O.2            1 <1>                0.0000
      5 C5          30.8971  37.3191  36.1661 C.3            1 <1>                0.0000
      6 C6          30.1851  37.6851  37.4699 C.3            1 <1>                0.0000
      7 O7          28.9591  36.9568  37.5639 O.3            1 <1>                0.0000
      8 C8          28.3070  37.0773  38.8297 C.3            1 <1>                0.0000
      9 C9          26.8873  36.5109  38.7306 C.3            1 <1>                0.0000
     10 C10         26.2246  36.5720  40.1094 C.3            1 <1>                0.0000
     11 O11         27.0170  35.8442  41.0500 O.3            1 <1>                0.0000
     12 C12         28.3398  36.3576  41.2193 C.3            1 <1>                0.0000
     13 C13         29.0875  36.2879  39.8852 C.3            1 <1>                0.0000
     14 H14         31.1410  38.2288  35.6175 H              1 <1>                0.0000
     15 H15         30.2437  36.6927  35.5588 H              1 <1>                0.0000
     16 H16         30.8238  37.4321  38.3161 H              1 <1>                0.0000
     17 H17         29.9741  38.7544  37.4809 H              1 <1>                0.0000
     18 H18         28.2614  38.1276  39.1178 H              1 <1>                0.0000
     19 H19         26.3079  37.1021  38.0215 H              1 <1>                0.0000
     20 H20         26.9310  35.4755  38.3931 H              1 <1>                0.0000
     21 H21         26.1446  37.6111  40.4286 H              1 <1>                0.0000
     22 H22         25.2294  36.1310  40.0541 H              1 <1>                0.0000
     23 H23         28.2875  37.3939  41.5531 H              1 <1>                0.0000
     24 H24         28.8683  35.7621  41.9638 H              1 <1>                0.0000
     25 H25         29.1755  35.2480  39.5710 H              1 <1>                0.0000
     26 H26         30.0815  36.7196  40.0018 H              1 <1>                0.0000
@<TRIPOS>BOND
    1    1    2 1     
    2    2    3 2     
    3    2    4 2     
    4    2    5 1     
    5    5    6 1     
    6    5   14 1     
    7    5   15 1     
    8    6    7 1     
    9    6   16 1     
   10    6   17 1     
   11    7    8 1     
   12    8    9 1     
   13    8   13 1     
   14    8   18 1     
   15    9   10 1     
   16    9   19 1     
   17    9   20 1     
   18   10   11 1     
   19   10   21 1     
   20   10   22 1     
   21   11   12 1     
   22   12   13 1     
   23   12   23 1     
   24   12   24 1     
   25   13   25 1     
   26   13   26 1     
@<TRIPOS>SUBSTRUCTURE
      1 ****           1
@<TRIPOS>COMMENT
> <Gold.Version>
2022.2.0

> <Gold.Id.Protein>
1qkm|1qkm_protein|mol2

> <Gold.Protein.RotatedTorsions>
[  496  491  490  487 ] final -110.34 input  -89.99 | X-H torsion

> <Gold.Protein.ActiveResidues>
 MET295  LEU298  THR299  LEU301  ALA302  GLU305  TRP335  MET336  LEU339  MET340 
 GLY342  LEU343  ARG346  PHE356  ILE373  ILE376  PHE377  LEU380  LYS471  GLY472 
 MET473  HIS475  LEU476  LEU477  ASN478  MET479  VAL484  VAL487 

> <Gold.Protein.RotatedAtoms>
   36.9432   34.4718   40.8709 H   0  0  0  0  0  0  0  0  0  0  0  0  # atno 496  bound_to 491 

> <Gold.Score>
     Score     S(PLP)   S(hbond)     S(cho)   S(metal)  DE(clash)   DE(tors)     intcor
     36.72     -38.38       0.00       0.00       0.00       0.00       0.90       0.14

> <Gold.PLP.Fitness>
36.7237

> <Gold.PLP.PLP>
-38.3800

> <Gold.PLP.part.hbond>
0.0000

> <Gold.PLP.part.metal>
0.0000

> <Gold.PLP.part.buried>
-3.4199

> <Gold.PLP.part.nonpolar>
-35.5231

> <Gold.PLP.part.repulsive>
0.1422

> <Gold.PLP.ligand.clash>
0.0000

> <Gold.PLP.ligand.torsion>
0.9004

> <Gold.PLP.Chemscore.Hbond>
0.0000

> <Gold.PLP.Chemscore.CHOScore>
0.0000

> <Gold.PLP.Chemscore.Metal>
0.0000

> <Gold.PLP.Chemscore.Internal.Correction>
0.1445

