#       Name:                EN300-330399_i001
#       Creating user name   aseyller
#       Creation time:       Fri Apr 21 19:46:32 2023


#       File generated by GOLD software.
#

@<TRIPOS>MOLECULE
EN300-330399_i001|Sulfonylchlorides|mol2|903|dock7
    26    26     1
SMALL
USER_CHARGES


@<TRIPOS>ATOM
      1 Cl1         30.5059  40.3068  36.1021 Cl             1 <1>                0.0000
      2 S2          30.9879  38.3539  36.2871 S.o2           1 <1>                0.0000
      3 O3          30.2587  37.7131  35.2494 O.2            1 <1>                0.0000
      4 O4          32.4088  38.3432  36.2985 O.2            1 <1>                0.0000
      5 C5          30.3347  37.8784  37.9113 C.3            1 <1>                0.0000
      6 C6          30.5334  36.3759  38.1209 C.3            1 <1>                0.0000
      7 O7          30.0626  36.0097  39.4195 O.3            1 <1>                0.0000
      8 C8          28.7778  36.5445  39.7442 C.3            1 <1>                0.0000
      9 C9          27.7223  35.9449  38.8099 C.3            1 <1>                0.0000
     10 C10         26.3399  36.4628  39.2156 C.3            1 <1>                0.0000
     11 O11         26.0875  36.1239  40.5808 O.3            1 <1>                0.0000
     12 C12         27.0153  36.6958  41.5050 C.3            1 <1>                0.0000
     13 C13         28.4249  36.1873  41.1914 C.3            1 <1>                0.0000
     14 H14         30.8637  38.4270  38.6905 H              1 <1>                0.0000
     15 H15         29.2716  38.1144  37.9586 H              1 <1>                0.0000
     16 H16         29.9745  35.8263  37.3634 H              1 <1>                0.0000
     17 H17         31.5929  36.1343  38.0371 H              1 <1>                0.0000
     18 H18         28.7941  37.6282  39.6282 H              1 <1>                0.0000
     19 H19         27.9350  36.2407  37.7826 H              1 <1>                0.0000
     20 H20         27.7416  34.8580  38.8885 H              1 <1>                0.0000
     21 H21         26.3086  37.5460  39.0981 H              1 <1>                0.0000
     22 H22         25.5802  36.0061  38.5812 H              1 <1>                0.0000
     23 H23         26.9928  37.7820  41.4175 H              1 <1>                0.0000
     24 H24         26.7422  36.4069  42.5199 H              1 <1>                0.0000
     25 H25         28.4584  35.1053  41.3180 H              1 <1>                0.0000
     26 H26         29.1400  36.6564  41.8671 H              1 <1>                0.0000
@<TRIPOS>BOND
    1    1    2 1     
    2    2    3 2     
    3    2    4 2     
    4    2    5 1     
    5    5    6 1     
    6    5   14 1     
    7    5   15 1     
    8    6    7 1     
    9    6   16 1     
   10    6   17 1     
   11    7    8 1     
   12    8    9 1     
   13    8   13 1     
   14    8   18 1     
   15    9   10 1     
   16    9   19 1     
   17    9   20 1     
   18   10   11 1     
   19   10   21 1     
   20   10   22 1     
   21   11   12 1     
   22   12   13 1     
   23   12   23 1     
   24   12   24 1     
   25   13   25 1     
   26   13   26 1     
@<TRIPOS>SUBSTRUCTURE
      1 ****           1
@<TRIPOS>COMMENT
> <Gold.Version>
2022.2.0

> <Gold.Id.Protein>
1qkm|1qkm_protein|mol2

> <Gold.Protein.RotatedTorsions>
[  496  491  490  487 ] final   90.25 input  -89.99 | X-H torsion

> <Gold.Protein.ActiveResidues>
 MET295  LEU298  THR299  LEU301  ALA302  GLU305  TRP335  MET336  LEU339  MET340 
 GLY342  LEU343  ARG346  PHE356  ILE373  ILE376  PHE377  LEU380  LYS471  GLY472 
 MET473  HIS475  LEU476  LEU477  ASN478  MET479  VAL484  VAL487 

> <Gold.Protein.RotatedAtoms>
   36.8226   33.0203   42.0212 H   0  0  0  0  0  0  0  0  0  0  0  0  # atno 496  bound_to 491 

> <Gold.Score>
     Score     S(PLP)   S(hbond)     S(cho)   S(metal)  DE(clash)   DE(tors)     intcor
     37.84     -38.00       0.00       0.00       0.00       0.00       0.15       0.14

> <Gold.PLP.Fitness>
37.8430

> <Gold.PLP.PLP>
-37.9979

> <Gold.PLP.part.hbond>
0.0000

> <Gold.PLP.part.metal>
0.0000

> <Gold.PLP.part.buried>
-4.3698

> <Gold.PLP.part.nonpolar>
-34.2529

> <Gold.PLP.part.repulsive>
0.2895

> <Gold.PLP.ligand.clash>
0.0000

> <Gold.PLP.ligand.torsion>
0.1497

> <Gold.PLP.Chemscore.Hbond>
0.0000

> <Gold.PLP.Chemscore.CHOScore>
0.0000

> <Gold.PLP.Chemscore.Metal>
0.0000

> <Gold.PLP.Chemscore.Internal.Correction>
0.1445

