#       Name:                EN300-330399_i001
#       Creating user name   aseyller
#       Creation time:       Fri Apr 21 19:46:35 2023


#       File generated by GOLD software.
#

@<TRIPOS>MOLECULE
EN300-330399_i001|Sulfonylchlorides|mol2|903|dock11
    26    26     1
SMALL
USER_CHARGES


@<TRIPOS>ATOM
      1 Cl1         32.2491  38.0966  34.3436 Cl             1 <1>                0.0000
      2 S2          31.0220  38.2380  35.9419 S.o2           1 <1>                0.0000
      3 O3          31.1988  39.5705  36.4027 O.2            1 <1>                0.0000
      4 O4          29.7629  37.7913  35.4577 O.2            1 <1>                0.0000
      5 C5          31.6997  37.0554  37.1389 C.3            1 <1>                0.0000
      6 C6          30.8298  37.0486  38.3975 C.3            1 <1>                0.0000
      7 O7          29.4562  36.9158  38.0264 O.3            1 <1>                0.0000
      8 C8          28.5466  36.9970  39.1256 C.3            1 <1>                0.0000
      9 C9          27.1499  36.5661  38.6678 C.3            1 <1>                0.0000
     10 C10         26.2007  36.5808  39.8689 C.3            1 <1>                0.0000
     11 O11         26.7100  35.7174  40.8875 O.3            1 <1>                0.0000
     12 C12         27.9932  36.0988  41.3876 C.3            1 <1>                0.0000
     13 C13         29.0144  36.0648  40.2476 C.3            1 <1>                0.0000
     14 H14         31.7097  36.0583  36.6988 H              1 <1>                0.0000
     15 H15         32.7166  37.3468  37.4016 H              1 <1>                0.0000
     16 H16         31.1171  36.2112  39.0333 H              1 <1>                0.0000
     17 H17         30.9704  37.9827  38.9415 H              1 <1>                0.0000
     18 H18         28.5098  38.0225  39.4933 H              1 <1>                0.0000
     19 H19         26.7862  37.2577  37.9078 H              1 <1>                0.0000
     20 H20         27.1970  35.5593  38.2530 H              1 <1>                0.0000
     21 H21         26.1226  37.5958  40.2583 H              1 <1>                0.0000
     22 H22         25.2153  36.2340  39.5576 H              1 <1>                0.0000
     23 H23         27.9386  37.1075  41.7969 H              1 <1>                0.0000
     24 H24         28.2991  35.4048  42.1705 H              1 <1>                0.0000
     25 H25         29.0992  35.0479  39.8646 H              1 <1>                0.0000
     26 H26         29.9842  36.3978  40.6173 H              1 <1>                0.0000
@<TRIPOS>BOND
    1    1    2 1     
    2    2    3 2     
    3    2    4 2     
    4    2    5 1     
    5    5    6 1     
    6    5   14 1     
    7    5   15 1     
    8    6    7 1     
    9    6   16 1     
   10    6   17 1     
   11    7    8 1     
   12    8    9 1     
   13    8   13 1     
   14    8   18 1     
   15    9   10 1     
   16    9   19 1     
   17    9   20 1     
   18   10   11 1     
   19   10   21 1     
   20   10   22 1     
   21   11   12 1     
   22   12   13 1     
   23   12   23 1     
   24   12   24 1     
   25   13   25 1     
   26   13   26 1     
@<TRIPOS>SUBSTRUCTURE
      1 ****           1
@<TRIPOS>COMMENT
> <Gold.Version>
2022.2.0

> <Gold.Id.Protein>
1qkm|1qkm_protein|mol2

> <Gold.Protein.RotatedTorsions>
[  496  491  490  487 ] final   12.52 input  -89.99 | X-H torsion

> <Gold.Protein.ActiveResidues>
 MET295  LEU298  THR299  LEU301  ALA302  GLU305  TRP335  MET336  LEU339  MET340 
 GLY342  LEU343  ARG346  PHE356  ILE373  ILE376  PHE377  LEU380  LYS471  GLY472 
 MET473  HIS475  LEU476  LEU477  ASN478  MET479  VAL484  VAL487 

> <Gold.Protein.RotatedAtoms>
   36.2791   34.0279   42.3222 H   0  0  0  0  0  0  0  0  0  0  0  0  # atno 496  bound_to 491 

> <Gold.Score>
     Score     S(PLP)   S(hbond)     S(cho)   S(metal)  DE(clash)   DE(tors)     intcor
     36.80     -36.98       0.00       0.00       0.00       0.00       0.16       0.14

> <Gold.PLP.Fitness>
36.7989

> <Gold.PLP.PLP>
-36.9841

> <Gold.PLP.part.hbond>
0.0000

> <Gold.PLP.part.metal>
0.0000

> <Gold.PLP.part.buried>
-3.3919

> <Gold.PLP.part.nonpolar>
-33.5398

> <Gold.PLP.part.repulsive>
0.1499

> <Gold.PLP.ligand.clash>
0.0000

> <Gold.PLP.ligand.torsion>
0.1648

> <Gold.PLP.Chemscore.Hbond>
0.0000

> <Gold.PLP.Chemscore.CHOScore>
0.0000

> <Gold.PLP.Chemscore.Metal>
0.0000

> <Gold.PLP.Chemscore.Internal.Correction>
0.1445

