#       Name:                EN300-330399_i001
#       Creating user name   aseyller
#       Creation time:       Fri Apr 21 19:46:28 2023


#       File generated by GOLD software.
#

@<TRIPOS>MOLECULE
EN300-330399_i001|Sulfonylchlorides|mol2|903|dock2
    26    26     1
SMALL
USER_CHARGES


@<TRIPOS>ATOM
      1 Cl1         32.4234  38.2019  34.5553 Cl             1 <1>                0.0000
      2 S2          31.3686  36.9001  35.6837 S.o2           1 <1>                0.0000
      3 O3          30.0461  36.9832  35.1707 O.2            1 <1>                0.0000
      4 O4          32.1094  35.6899  35.6073 O.2            1 <1>                0.0000
      5 C5          31.4454  37.5887  37.3602 C.3            1 <1>                0.0000
      6 C6          30.6185  36.7174  38.3077 C.3            1 <1>                0.0000
      7 O7          29.2330  37.0348  38.1596 O.3            1 <1>                0.0000
      8 C8          28.3893  36.4261  39.1392 C.3            1 <1>                0.0000
      9 C9          28.9393  36.7143  40.5394 C.3            1 <1>                0.0000
     10 C10         27.9873  36.1260  41.5841 C.3            1 <1>                0.0000
     11 O11         26.6834  36.6834  41.4060 O.3            1 <1>                0.0000
     12 C12         26.0993  36.4056  40.1317 C.3            1 <1>                0.0000
     13 C13         26.9754  37.0051  39.0287 C.3            1 <1>                0.0000
     14 H14         32.4818  37.6097  37.6973 H              1 <1>                0.0000
     15 H15         31.0443  38.6022  37.3554 H              1 <1>                0.0000
     16 H16         30.7782  35.6663  38.0673 H              1 <1>                0.0000
     17 H17         30.9263  36.9057  39.3362 H              1 <1>                0.0000
     18 H18         28.3575  35.3490  38.9744 H              1 <1>                0.0000
     19 H19         29.9233  36.2577  40.6453 H              1 <1>                0.0000
     20 H20         29.0189  37.7915  40.6848 H              1 <1>                0.0000
     21 H21         27.9394  35.0437  41.4639 H              1 <1>                0.0000
     22 H22         28.3514  36.3651  42.5832 H              1 <1>                0.0000
     23 H23         26.0267  35.3270  39.9925 H              1 <1>                0.0000
     24 H24         25.1034  36.8461  40.0846 H              1 <1>                0.0000
     25 H25         27.0155  38.0882  39.1436 H              1 <1>                0.0000
     26 H26         26.5551  36.7565  38.0542 H              1 <1>                0.0000
@<TRIPOS>BOND
    1    1    2 1     
    2    2    3 2     
    3    2    4 2     
    4    2    5 1     
    5    5    6 1     
    6    5   14 1     
    7    5   15 1     
    8    6    7 1     
    9    6   16 1     
   10    6   17 1     
   11    7    8 1     
   12    8    9 1     
   13    8   13 1     
   14    8   18 1     
   15    9   10 1     
   16    9   19 1     
   17    9   20 1     
   18   10   11 1     
   19   10   21 1     
   20   10   22 1     
   21   11   12 1     
   22   12   13 1     
   23   12   23 1     
   24   12   24 1     
   25   13   25 1     
   26   13   26 1     
@<TRIPOS>SUBSTRUCTURE
      1 ****           1
@<TRIPOS>COMMENT
> <Gold.Version>
2022.2.0

> <Gold.Id.Protein>
1qkm|1qkm_protein|mol2

> <Gold.Protein.RotatedTorsions>
[  496  491  490  487 ] final -133.02 input  -89.99 | X-H torsion

> <Gold.Protein.ActiveResidues>
 MET295  LEU298  THR299  LEU301  ALA302  GLU305  TRP335  MET336  LEU339  MET340 
 GLY342  LEU343  ARG346  PHE356  ILE373  ILE376  PHE377  LEU380  LYS471  GLY472 
 MET473  HIS475  LEU476  LEU477  ASN478  MET479  VAL484  VAL487 

> <Gold.Protein.RotatedAtoms>
   37.1268   34.1774   40.7394 H   0  0  0  0  0  0  0  0  0  0  0  0  # atno 496  bound_to 491 

> <Gold.Score>
     Score     S(PLP)   S(hbond)     S(cho)   S(metal)  DE(clash)   DE(tors)     intcor
     38.16     -38.45       0.00       0.00       0.00       0.00       0.22       0.16

> <Gold.PLP.Fitness>
38.1610

> <Gold.PLP.PLP>
-38.4451

> <Gold.PLP.part.hbond>
0.0000

> <Gold.PLP.part.metal>
0.0000

> <Gold.PLP.part.buried>
-4.8851

> <Gold.PLP.part.nonpolar>
-34.2255

> <Gold.PLP.part.repulsive>
0.2555

> <Gold.PLP.ligand.clash>
0.0000

> <Gold.PLP.ligand.torsion>
0.2235

> <Gold.PLP.Chemscore.Hbond>
0.0000

> <Gold.PLP.Chemscore.CHOScore>
0.0000

> <Gold.PLP.Chemscore.Metal>
0.0000

> <Gold.PLP.Chemscore.Internal.Correction>
0.1630

