#       Name:                EN300-330399_i001
#       Creating user name   aseyller
#       Creation time:       Fri Apr 21 19:46:29 2023


#       File generated by GOLD software.
#

@<TRIPOS>MOLECULE
EN300-330399_i001|Sulfonylchlorides|mol2|903|dock4
    26    26     1
SMALL
USER_CHARGES


@<TRIPOS>ATOM
      1 Cl1         30.3145  39.1255  36.7012 Cl             1 <1>                0.0000
      2 S2          31.4544  37.5792  36.0765 S.o2           1 <1>                0.0000
      3 O3          30.5379  36.7072  35.4294 O.2            1 <1>                0.0000
      4 O4          32.5143  38.1936  35.3565 O.2            1 <1>                0.0000
      5 C5          32.0757  36.8280  37.6064 C.3            1 <1>                0.0000
      6 C6          30.9194  36.1592  38.3523 C.3            1 <1>                0.0000
      7 O7          29.7585  36.9890  38.2737 O.3            1 <1>                0.0000
      8 C8          28.6159  36.4552  38.9456 C.3            1 <1>                0.0000
      9 C9          28.7984  36.5990  40.4597 C.3            1 <1>                0.0000
     10 C10         27.5372  36.0971  41.1676 C.3            1 <1>                0.0000
     11 O11         26.4054  36.8349  40.7017 O.3            1 <1>                0.0000
     12 C12         26.1576  36.7001  39.3008 C.3            1 <1>                0.0000
     13 C13         27.3633  37.2262  38.5178 C.3            1 <1>                0.0000
     14 H14         32.8317  36.0813  37.3635 H              1 <1>                0.0000
     15 H15         32.5169  37.5998  38.2370 H              1 <1>                0.0000
     16 H16         30.7057  35.1915  37.8986 H              1 <1>                0.0000
     17 H17         31.1946  36.0177  39.3974 H              1 <1>                0.0000
     18 H18         28.5021  35.4016  38.6904 H              1 <1>                0.0000
     19 H19         29.6560  36.0080  40.7810 H              1 <1>                0.0000
     20 H20         28.9632  37.6472  40.7087 H              1 <1>                0.0000
     21 H21         27.3953  35.0384  40.9507 H              1 <1>                0.0000
     22 H22         27.6443  36.2367  42.2434 H              1 <1>                0.0000
     23 H23         25.9977  35.6493  39.0594 H              1 <1>                0.0000
     24 H24         25.2709  37.2741  39.0317 H              1 <1>                0.0000
     25 H25         27.4992  38.2871  38.7277 H              1 <1>                0.0000
     26 H26         27.1947  37.0838  37.4504 H              1 <1>                0.0000
@<TRIPOS>BOND
    1    1    2 1     
    2    2    3 2     
    3    2    4 2     
    4    2    5 1     
    5    5    6 1     
    6    5   14 1     
    7    5   15 1     
    8    6    7 1     
    9    6   16 1     
   10    6   17 1     
   11    7    8 1     
   12    8    9 1     
   13    8   13 1     
   14    8   18 1     
   15    9   10 1     
   16    9   19 1     
   17    9   20 1     
   18   10   11 1     
   19   10   21 1     
   20   10   22 1     
   21   11   12 1     
   22   12   13 1     
   23   12   23 1     
   24   12   24 1     
   25   13   25 1     
   26   13   26 1     
@<TRIPOS>SUBSTRUCTURE
      1 ****           1
@<TRIPOS>COMMENT
> <Gold.Version>
2022.2.0

> <Gold.Id.Protein>
1qkm|1qkm_protein|mol2

> <Gold.Protein.RotatedTorsions>
[  496  491  490  487 ] final -170.32 input  -89.99 | X-H torsion

> <Gold.Protein.ActiveResidues>
 MET295  LEU298  THR299  LEU301  ALA302  GLU305  TRP335  MET336  LEU339  MET340 
 GLY342  LEU343  ARG346  PHE356  ILE373  ILE376  PHE377  LEU380  LYS471  GLY472 
 MET473  HIS475  LEU476  LEU477  ASN478  MET479  VAL484  VAL487 

> <Gold.Protein.RotatedAtoms>
   37.3050   33.6042   40.7977 H   0  0  0  0  0  0  0  0  0  0  0  0  # atno 496  bound_to 491 

> <Gold.Score>
     Score     S(PLP)   S(hbond)     S(cho)   S(metal)  DE(clash)   DE(tors)     intcor
     37.30     -37.84       0.00       0.00       0.00       0.00       0.35       0.15

> <Gold.PLP.Fitness>
37.2995

> <Gold.PLP.PLP>
-37.8422

> <Gold.PLP.part.hbond>
0.0000

> <Gold.PLP.part.metal>
0.0000

> <Gold.PLP.part.buried>
-4.5574

> <Gold.PLP.part.nonpolar>
-33.8685

> <Gold.PLP.part.repulsive>
0.2478

> <Gold.PLP.ligand.clash>
0.0000

> <Gold.PLP.ligand.torsion>
0.3466

> <Gold.PLP.Chemscore.Hbond>
0.0000

> <Gold.PLP.Chemscore.CHOScore>
0.0000

> <Gold.PLP.Chemscore.Metal>
0.0000

> <Gold.PLP.Chemscore.Internal.Correction>
0.1505

