#       Name:                EN300-330399_i001
#       Creating user name   aseyller
#       Creation time:       Fri Apr 21 19:46:27 2023


#       File generated by GOLD software.
#

@<TRIPOS>MOLECULE
EN300-330399_i001|Sulfonylchlorides|mol2|903|dock1
    26    26     1
SMALL
USER_CHARGES


@<TRIPOS>ATOM
      1 Cl1         33.0113  36.7321  35.4679 Cl             1 <1>                0.0000
      2 S2          31.2368  37.6937  35.3850 S.o2           1 <1>                0.0000
      3 O3          31.4954  38.8380  34.5833 O.2            1 <1>                0.0000
      4 O4          30.3170  36.6962  34.9630 O.2            1 <1>                0.0000
      5 C5          30.9052  38.1804  37.1008 C.3            1 <1>                0.0000
      6 C6          30.7590  36.9278  37.9670 C.3            1 <1>                0.0000
      7 O7          29.4026  36.4794  37.9309 O.3            1 <1>                0.0000
      8 C8          28.6329  36.8633  39.0720 C.3            1 <1>                0.0000
      9 C9          27.1501  36.5853  38.8070 C.3            1 <1>                0.0000
     10 C10         26.3428  36.9257  40.0625 C.3            1 <1>                0.0000
     11 O11         26.8329  36.1594  41.1647 O.3            1 <1>                0.0000
     12 C12         28.2014  36.4127  41.4887 C.3            1 <1>                0.0000
     13 C13         29.0834  36.0517  40.2906 C.3            1 <1>                0.0000
     14 H14         31.7320  38.7852  37.4732 H              1 <1>                0.0000
     15 H15         29.9833  38.7605  37.1422 H              1 <1>                0.0000
     16 H16         31.4115  36.1431  37.5842 H              1 <1>                0.0000
     17 H17         31.0368  37.1622  38.9946 H              1 <1>                0.0000
     18 H18         28.7755  37.9262  39.2672 H              1 <1>                0.0000
     19 H19         26.8070  37.2009  37.9754 H              1 <1>                0.0000
     20 H20         27.0151  35.5320  38.5617 H              1 <1>                0.0000
     21 H21         26.4457  37.9880  40.2840 H              1 <1>                0.0000
     22 H22         25.2921  36.6895  39.8941 H              1 <1>                0.0000
     23 H23         28.3287  37.4682  41.7289 H              1 <1>                0.0000
     24 H24         28.4897  35.8070  42.3478 H              1 <1>                0.0000
     25 H25         28.9875  34.9876  40.0751 H              1 <1>                0.0000
     26 H26         30.1230  36.2857  40.5200 H              1 <1>                0.0000
@<TRIPOS>BOND
    1    1    2 1     
    2    2    3 2     
    3    2    4 2     
    4    2    5 1     
    5    5    6 1     
    6    5   14 1     
    7    5   15 1     
    8    6    7 1     
    9    6   16 1     
   10    6   17 1     
   11    7    8 1     
   12    8    9 1     
   13    8   13 1     
   14    8   18 1     
   15    9   10 1     
   16    9   19 1     
   17    9   20 1     
   18   10   11 1     
   19   10   21 1     
   20   10   22 1     
   21   11   12 1     
   22   12   13 1     
   23   12   23 1     
   24   12   24 1     
   25   13   25 1     
   26   13   26 1     
@<TRIPOS>SUBSTRUCTURE
      1 ****           1
@<TRIPOS>COMMENT
> <Gold.Version>
2022.2.0

> <Gold.Id.Protein>
1qkm|1qkm_protein|mol2

> <Gold.Protein.RotatedTorsions>
[  496  491  490  487 ] final  -74.87 input  -89.99 | X-H torsion

> <Gold.Protein.ActiveResidues>
 MET295  LEU298  THR299  LEU301  ALA302  GLU305  TRP335  MET336  LEU339  MET340 
 GLY342  LEU343  ARG346  PHE356  ILE373  ILE376  PHE377  LEU380  LYS471  GLY472 
 MET473  HIS475  LEU476  LEU477  ASN478  MET479  VAL484  VAL487 

> <Gold.Protein.RotatedAtoms>
   36.6203   34.7232   41.2742 H   0  0  0  0  0  0  0  0  0  0  0  0  # atno 496  bound_to 491 

> <Gold.Score>
     Score     S(PLP)   S(hbond)     S(cho)   S(metal)  DE(clash)   DE(tors)     intcor
     37.24     -38.23       0.00       0.00       0.00       0.00       0.58       0.17

> <Gold.PLP.Fitness>
37.2375

> <Gold.PLP.PLP>
-38.2339

> <Gold.PLP.part.hbond>
0.0000

> <Gold.PLP.part.metal>
0.0000

> <Gold.PLP.part.buried>
-4.7074

> <Gold.PLP.part.nonpolar>
-34.4087

> <Gold.PLP.part.repulsive>
0.2581

> <Gold.PLP.ligand.clash>
0.0000

> <Gold.PLP.ligand.torsion>
0.5827

> <Gold.PLP.Chemscore.Hbond>
0.0000

> <Gold.PLP.Chemscore.CHOScore>
0.0000

> <Gold.PLP.Chemscore.Metal>
0.0000

> <Gold.PLP.Chemscore.Internal.Correction>
0.1690

