#       Name:                EN300-330399_i001
#       Creating user name   aseyller
#       Creation time:       Fri Apr 21 19:46:28 2023


#       File generated by GOLD software.
#

@<TRIPOS>MOLECULE
EN300-330399_i001|Sulfonylchlorides|mol2|903|dock3
    26    26     1
SMALL
USER_CHARGES


@<TRIPOS>ATOM
      1 Cl1         33.5572  36.5778  34.8978 Cl             1 <1>                0.0000
      2 S2          31.9226  36.9942  36.0091 S.o2           1 <1>                0.0000
      3 O3          32.1524  38.3112  36.4907 O.2            1 <1>                0.0000
      4 O4          30.8302  36.7100  35.1458 O.2            1 <1>                0.0000
      5 C5          31.9850  35.7983  37.3717 C.3            1 <1>                0.0000
      6 C6          31.0808  36.2748  38.5102 C.3            1 <1>                0.0000
      7 O7          29.7233  36.2943  38.0640 O.3            1 <1>                0.0000
      8 C8          28.7862  36.6828  39.0705 C.3            1 <1>                0.0000
      9 C9          27.3617  36.4172  38.5741 C.3            1 <1>                0.0000
     10 C10         26.3691  36.7624  39.6874 C.3            1 <1>                0.0000
     11 O11         26.6732  35.9906  40.8511 O.3            1 <1>                0.0000
     12 C12         27.9754  36.2324  41.3876 C.3            1 <1>                0.0000
     13 C13         29.0325  35.8659  40.3427 C.3            1 <1>                0.0000
     14 H14         31.6419  34.8261  37.0178 H              1 <1>                0.0000
     15 H15         33.0097  35.7125  37.7331 H              1 <1>                0.0000
     16 H16         31.1751  35.5957  39.3575 H              1 <1>                0.0000
     17 H17         31.3777  37.2785  38.8142 H              1 <1>                0.0000
     18 H18         28.9045  37.7443  39.2885 H              1 <1>                0.0000
     19 H19         27.1589  37.0367  37.7005 H              1 <1>                0.0000
     20 H20         27.2589  35.3654  38.3078 H              1 <1>                0.0000
     21 H21         26.4441  37.8235  39.9252 H              1 <1>                0.0000
     22 H22         25.3563  36.5350  39.3548 H              1 <1>                0.0000
     23 H23         28.0714  37.2865  41.6477 H              1 <1>                0.0000
     24 H24         28.1198  35.6231  42.2799 H              1 <1>                0.0000
     25 H25         28.9635  34.8030  40.1120 H              1 <1>                0.0000
     26 H26         30.0247  36.0911  40.7338 H              1 <1>                0.0000
@<TRIPOS>BOND
    1    1    2 1     
    2    2    3 2     
    3    2    4 2     
    4    2    5 1     
    5    5    6 1     
    6    5   14 1     
    7    5   15 1     
    8    6    7 1     
    9    6   16 1     
   10    6   17 1     
   11    7    8 1     
   12    8    9 1     
   13    8   13 1     
   14    8   18 1     
   15    9   10 1     
   16    9   19 1     
   17    9   20 1     
   18   10   11 1     
   19   10   21 1     
   20   10   22 1     
   21   11   12 1     
   22   12   13 1     
   23   12   23 1     
   24   12   24 1     
   25   13   25 1     
   26   13   26 1     
@<TRIPOS>SUBSTRUCTURE
      1 ****           1
@<TRIPOS>COMMENT
> <Gold.Version>
2022.2.0

> <Gold.Id.Protein>
1qkm|1qkm_protein|mol2

> <Gold.Protein.RotatedTorsions>
[  496  491  490  487 ] final  117.98 input  -89.99 | X-H torsion

> <Gold.Protein.ActiveResidues>
 MET295  LEU298  THR299  LEU301  ALA302  GLU305  TRP335  MET336  LEU339  MET340 
 GLY342  LEU343  ARG346  PHE356  ILE373  ILE376  PHE377  LEU380  LYS471  GLY472 
 MET473  HIS475  LEU476  LEU477  ASN478  MET479  VAL484  VAL487 

> <Gold.Protein.RotatedAtoms>
   37.0648   32.9409   41.6480 H   0  0  0  0  0  0  0  0  0  0  0  0  # atno 496  bound_to 491 

> <Gold.Score>
     Score     S(PLP)   S(hbond)     S(cho)   S(metal)  DE(clash)   DE(tors)     intcor
     39.49     -40.15       0.00       0.00       0.00       0.00       0.41       0.15

> <Gold.PLP.Fitness>
39.4888

> <Gold.PLP.PLP>
-40.1498

> <Gold.PLP.part.hbond>
0.0000

> <Gold.PLP.part.metal>
0.0000

> <Gold.PLP.part.buried>
-4.5316

> <Gold.PLP.part.nonpolar>
-36.2000

> <Gold.PLP.part.repulsive>
0.2185

> <Gold.PLP.ligand.clash>
0.0000

> <Gold.PLP.ligand.torsion>
0.4057

> <Gold.PLP.Chemscore.Hbond>
0.0000

> <Gold.PLP.Chemscore.CHOScore>
0.0000

> <Gold.PLP.Chemscore.Metal>
0.0000

> <Gold.PLP.Chemscore.Internal.Correction>
0.1505

