#       Name:                EN300-330399_i001
#       Creating user name   aseyller
#       Creation time:       Fri Apr 21 19:46:41 2023


#       File generated by GOLD software.
#

@<TRIPOS>MOLECULE
EN300-330399_i001|Sulfonylchlorides|mol2|903|dock17
    26    26     1
SMALL
USER_CHARGES


@<TRIPOS>ATOM
      1 Cl1         30.5240  37.0260  34.9605 Cl             1 <1>                0.0000
      2 S2          31.2073  37.6903  36.7416 S.o2           1 <1>                0.0000
      3 O3          32.3996  38.3929  36.4196 O.2            1 <1>                0.0000
      4 O4          30.0940  38.3610  37.3160 O.2            1 <1>                0.0000
      5 C5          31.5898  36.1803  37.6713 C.3            1 <1>                0.0000
      6 C6          30.6977  36.1056  38.9120 C.3            1 <1>                0.0000
      7 O7          29.3278  36.0398  38.5104 O.3            1 <1>                0.0000
      8 C8          28.4253  36.6783  39.4159 C.3            1 <1>                0.0000
      9 C9          26.9911  36.5317  38.8984 C.3            1 <1>                0.0000
     10 C10         26.0252  37.1493  39.9131 C.3            1 <1>                0.0000
     11 O11         26.1951  36.5107  41.1802 O.3            1 <1>                0.0000
     12 C12         27.5039  36.6550  41.7354 C.3            1 <1>                0.0000
     13 C13         28.5292  36.0176  40.7940 C.3            1 <1>                0.0000
     14 H14         31.4089  35.3098  37.0409 H              1 <1>                0.0000
     15 H15         32.6361  36.1968  37.9765 H              1 <1>                0.0000
     16 H16         30.9506  35.2157  39.4884 H              1 <1>                0.0000
     17 H17         30.8540  36.9926  39.5259 H              1 <1>                0.0000
     18 H18         28.6775  37.7357  39.4971 H              1 <1>                0.0000
     19 H19         26.8942  37.0472  37.9429 H              1 <1>                0.0000
     20 H20         26.7568  35.4752  38.7688 H              1 <1>                0.0000
     21 H21         26.2339  38.2145  40.0120 H              1 <1>                0.0000
     22 H22         25.0000  37.0099  39.5703 H              1 <1>                0.0000
     23 H23         27.7320  37.7137  41.8582 H              1 <1>                0.0000
     24 H24         27.5439  36.1595  42.7055 H              1 <1>                0.0000
     25 H25         28.3260  34.9507  40.7026 H              1 <1>                0.0000
     26 H26         29.5323  36.1653  41.1941 H              1 <1>                0.0000
@<TRIPOS>BOND
    1    1    2 1     
    2    2    3 2     
    3    2    4 2     
    4    2    5 1     
    5    5    6 1     
    6    5   14 1     
    7    5   15 1     
    8    6    7 1     
    9    6   16 1     
   10    6   17 1     
   11    7    8 1     
   12    8    9 1     
   13    8   13 1     
   14    8   18 1     
   15    9   10 1     
   16    9   19 1     
   17    9   20 1     
   18   10   11 1     
   19   10   21 1     
   20   10   22 1     
   21   11   12 1     
   22   12   13 1     
   23   12   23 1     
   24   12   24 1     
   25   13   25 1     
   26   13   26 1     
@<TRIPOS>SUBSTRUCTURE
      1 ****           1
@<TRIPOS>COMMENT
> <Gold.Version>
2022.2.0

> <Gold.Id.Protein>
1qkm|1qkm_protein|mol2

> <Gold.Protein.RotatedTorsions>
[  496  491  490  487 ] final   26.98 input  -89.99 | X-H torsion

> <Gold.Protein.ActiveResidues>
 MET295  LEU298  THR299  LEU301  ALA302  GLU305  TRP335  MET336  LEU339  MET340 
 GLY342  LEU343  ARG346  PHE356  ILE373  ILE376  PHE377  LEU380  LYS471  GLY472 
 MET473  HIS475  LEU476  LEU477  ASN478  MET479  VAL484  VAL487 

> <Gold.Protein.RotatedAtoms>
   36.3316   33.8026   42.3759 H   0  0  0  0  0  0  0  0  0  0  0  0  # atno 496  bound_to 491 

> <Gold.Score>
     Score     S(PLP)   S(hbond)     S(cho)   S(metal)  DE(clash)   DE(tors)     intcor
     36.57     -37.02       0.00       0.00       0.00       0.00       0.29       0.14

> <Gold.PLP.Fitness>
36.5731

> <Gold.PLP.PLP>
-37.0168

> <Gold.PLP.part.hbond>
0.0000

> <Gold.PLP.part.metal>
0.0000

> <Gold.PLP.part.buried>
-4.5496

> <Gold.PLP.part.nonpolar>
-32.9242

> <Gold.PLP.part.repulsive>
0.2065

> <Gold.PLP.ligand.clash>
0.0000

> <Gold.PLP.ligand.torsion>
0.2928

> <Gold.PLP.Chemscore.Hbond>
0.0000

> <Gold.PLP.Chemscore.CHOScore>
0.0000

> <Gold.PLP.Chemscore.Metal>
0.0000

> <Gold.PLP.Chemscore.Internal.Correction>
0.1417

