#       Name:                EN300-330399_i001
#       Creating user name   aseyller
#       Creation time:       Fri Apr 21 19:46:37 2023


#       File generated by GOLD software.
#

@<TRIPOS>MOLECULE
EN300-330399_i001|Sulfonylchlorides|mol2|903|dock13
    26    26     1
SMALL
USER_CHARGES


@<TRIPOS>ATOM
      1 Cl1         32.6885  37.4392  34.6788 Cl             1 <1>                0.0000
      2 S2          31.3569  37.7004  36.1751 S.o2           1 <1>                0.0000
      3 O3          31.3290  39.1065  36.3781 O.2            1 <1>                0.0000
      4 O4          30.1995  36.9997  35.7406 O.2            1 <1>                0.0000
      5 C5          32.1082  36.8665  37.6003 C.3            1 <1>                0.0000
      6 C6          31.0855  35.9230  38.2364 C.3            1 <1>                0.0000
      7 O7          30.3005  36.6435  39.1887 O.3            1 <1>                0.0000
      8 C8          28.9797  36.1267  39.3633 C.3            1 <1>                0.0000
      9 C9          28.4614  36.5044  40.7543 C.3            1 <1>                0.0000
     10 C10         27.0184  36.0151  40.9027 C.3            1 <1>                0.0000
     11 O11         26.2142  36.5864  39.8687 O.3            1 <1>                0.0000
     12 C12         26.6233  36.2291  38.5469 C.3            1 <1>                0.0000
     13 C13         28.0504  36.7270  38.3037 C.3            1 <1>                0.0000
     14 H14         32.9750  36.2938  37.2707 H              1 <1>                0.0000
     15 H15         32.4212  37.6103  38.3329 H              1 <1>                0.0000
     16 H16         30.4348  35.5169  37.4620 H              1 <1>                0.0000
     17 H17         31.6063  35.1073  38.7378 H              1 <1>                0.0000
     18 H18         28.9966  35.0414  39.2627 H              1 <1>                0.0000
     19 H19         29.0851  36.0353  41.5152 H              1 <1>                0.0000
     20 H20         28.4928  37.5874  40.8730 H              1 <1>                0.0000
     21 H21         26.9931  34.9283  40.8242 H              1 <1>                0.0000
     22 H22         26.6299  36.3186  41.8749 H              1 <1>                0.0000
     23 H23         26.5928  35.1451  38.4375 H              1 <1>                0.0000
     24 H24         25.9502  36.6868  37.8219 H              1 <1>                0.0000
     25 H25         28.0736  37.8145  38.3730 H              1 <1>                0.0000
     26 H26         28.3803  36.4171  37.3122 H              1 <1>                0.0000
@<TRIPOS>BOND
    1    1    2 1     
    2    2    3 2     
    3    2    4 2     
    4    2    5 1     
    5    5    6 1     
    6    5   14 1     
    7    5   15 1     
    8    6    7 1     
    9    6   16 1     
   10    6   17 1     
   11    7    8 1     
   12    8    9 1     
   13    8   13 1     
   14    8   18 1     
   15    9   10 1     
   16    9   19 1     
   17    9   20 1     
   18   10   11 1     
   19   10   21 1     
   20   10   22 1     
   21   11   12 1     
   22   12   13 1     
   23   12   23 1     
   24   12   24 1     
   25   13   25 1     
   26   13   26 1     
@<TRIPOS>SUBSTRUCTURE
      1 ****           1
@<TRIPOS>COMMENT
> <Gold.Version>
2022.2.0

> <Gold.Id.Protein>
1qkm|1qkm_protein|mol2

> <Gold.Protein.RotatedTorsions>
[  496  491  490  487 ] final   52.04 input  -89.99 | X-H torsion

> <Gold.Protein.ActiveResidues>
 MET295  LEU298  THR299  LEU301  ALA302  GLU305  TRP335  MET336  LEU339  MET340 
 GLY342  LEU343  ARG346  PHE356  ILE373  ILE376  PHE377  LEU380  LYS471  GLY472 
 MET473  HIS475  LEU476  LEU477  ASN478  MET479  VAL484  VAL487 

> <Gold.Protein.RotatedAtoms>
   36.4882   33.4258   42.3452 H   0  0  0  0  0  0  0  0  0  0  0  0  # atno 496  bound_to 491 

> <Gold.Score>
     Score     S(PLP)   S(hbond)     S(cho)   S(metal)  DE(clash)   DE(tors)     intcor
     37.21     -38.65       0.00       0.00       0.00       0.00       0.79       0.14

> <Gold.PLP.Fitness>
37.2140

> <Gold.PLP.PLP>
-38.6472

> <Gold.PLP.part.hbond>
0.0000

> <Gold.PLP.part.metal>
0.0000

> <Gold.PLP.part.buried>
-4.2041

> <Gold.PLP.part.nonpolar>
-34.7949

> <Gold.PLP.part.repulsive>
0.1936

> <Gold.PLP.ligand.clash>
0.0000

> <Gold.PLP.ligand.torsion>
0.7875

> <Gold.PLP.Chemscore.Hbond>
0.0000

> <Gold.PLP.Chemscore.CHOScore>
0.0000

> <Gold.PLP.Chemscore.Metal>
0.0000

> <Gold.PLP.Chemscore.Internal.Correction>
0.1417

