#       Name:                EN300-330399_i001
#       Creating user name   aseyller
#       Creation time:       Fri Apr 21 19:46:42 2023


#       File generated by GOLD software.
#

@<TRIPOS>MOLECULE
EN300-330399_i001|Sulfonylchlorides|mol2|903|dock18
    26    26     1
SMALL
USER_CHARGES


@<TRIPOS>ATOM
      1 Cl1         30.3685  36.9305  36.1179 Cl             1 <1>                0.0000
      2 S2          32.0729  36.1751  36.8955 S.o2           1 <1>                0.0000
      3 O3          32.6946  35.5146  35.8017 O.2            1 <1>                0.0000
      4 O4          32.6923  37.2865  37.5282 O.2            1 <1>                0.0000
      5 C5          31.5120  34.9707  38.1307 C.3            1 <1>                0.0000
      6 C6          30.5415  35.6486  39.0999 C.3            1 <1>                0.0000
      7 O7          29.2956  35.8829  38.4404 O.3            1 <1>                0.0000
      8 C8          28.3354  36.5752  39.2408 C.3            1 <1>                0.0000
      9 C9          27.0171  36.6954  38.4702 C.3            1 <1>                0.0000
     10 C10         25.9719  37.3677  39.3643 C.3            1 <1>                0.0000
     11 O11         25.8127  36.6072  40.5637 O.3            1 <1>                0.0000
     12 C12         27.0017  36.5010  41.3492 C.3            1 <1>                0.0000
     13 C13         28.0883  35.7938  40.5350 C.3            1 <1>                0.0000
     14 H14         31.0074  34.1446  37.6296 H              1 <1>                0.0000
     15 H15         32.3710  34.5902  38.6833 H              1 <1>                0.0000
     16 H16         30.3799  35.0030  39.9632 H              1 <1>                0.0000
     17 H17         30.9620  36.5984  39.4301 H              1 <1>                0.0000
     18 H18         28.7099  37.5705  39.4801 H              1 <1>                0.0000
     19 H19         27.1720  37.2975  37.5749 H              1 <1>                0.0000
     20 H20         26.6691  35.7022  38.1867 H              1 <1>                0.0000
     21 H21         26.3019  38.3760  39.6144 H              1 <1>                0.0000
     22 H22         25.0197  37.4173  38.8362 H              1 <1>                0.0000
     23 H23         27.3452  37.4979  41.6253 H              1 <1>                0.0000
     24 H24         26.7914  35.9261  42.2511 H              1 <1>                0.0000
     25 H25         27.7620  34.7824  40.2930 H              1 <1>                0.0000
     26 H26         29.0093  35.7511  41.1163 H              1 <1>                0.0000
@<TRIPOS>BOND
    1    1    2 1     
    2    2    3 2     
    3    2    4 2     
    4    2    5 1     
    5    5    6 1     
    6    5   14 1     
    7    5   15 1     
    8    6    7 1     
    9    6   16 1     
   10    6   17 1     
   11    7    8 1     
   12    8    9 1     
   13    8   13 1     
   14    8   18 1     
   15    9   10 1     
   16    9   19 1     
   17    9   20 1     
   18   10   11 1     
   19   10   21 1     
   20   10   22 1     
   21   11   12 1     
   22   12   13 1     
   23   12   23 1     
   24   12   24 1     
   25   13   25 1     
   26   13   26 1     
@<TRIPOS>SUBSTRUCTURE
      1 ****           1
@<TRIPOS>COMMENT
> <Gold.Version>
2022.2.0

> <Gold.Id.Protein>
1qkm|1qkm_protein|mol2

> <Gold.Protein.RotatedTorsions>
[  496  491  490  487 ] final  -85.54 input  -89.99 | X-H torsion

> <Gold.Protein.ActiveResidues>
 MET295  LEU298  THR299  LEU301  ALA302  GLU305  TRP335  MET336  LEU339  MET340 
 GLY342  LEU343  ARG346  PHE356  ILE373  ILE376  PHE377  LEU380  LYS471  GLY472 
 MET473  HIS475  LEU476  LEU477  ASN478  MET479  VAL484  VAL487 

> <Gold.Protein.RotatedAtoms>
   36.7162   34.6801   41.1339 H   0  0  0  0  0  0  0  0  0  0  0  0  # atno 496  bound_to 491 

> <Gold.Score>
     Score     S(PLP)   S(hbond)     S(cho)   S(metal)  DE(clash)   DE(tors)     intcor
     37.72     -37.90       0.00       0.00       0.00       0.00       0.16       0.14

> <Gold.PLP.Fitness>
37.7186

> <Gold.PLP.PLP>
-37.8973

> <Gold.PLP.part.hbond>
0.0000

> <Gold.PLP.part.metal>
0.0000

> <Gold.PLP.part.buried>
-3.4661

> <Gold.PLP.part.nonpolar>
-34.0989

> <Gold.PLP.part.repulsive>
0.2280

> <Gold.PLP.ligand.clash>
0.0000

> <Gold.PLP.ligand.torsion>
0.1603

> <Gold.PLP.Chemscore.Hbond>
0.0000

> <Gold.PLP.Chemscore.CHOScore>
0.0000

> <Gold.PLP.Chemscore.Metal>
0.0000

> <Gold.PLP.Chemscore.Internal.Correction>
0.1417

