#       Name:                EN300-330399_i001
#       Creating user name   aseyller
#       Creation time:       Fri Apr 21 19:46:35 2023


#       File generated by GOLD software.
#

@<TRIPOS>MOLECULE
EN300-330399_i001|Sulfonylchlorides|mol2|903|dock10
    26    26     1
SMALL
USER_CHARGES


@<TRIPOS>ATOM
      1 Cl1         32.0887  38.2019  34.0011 Cl             1 <1>                0.0000
      2 S2          31.8386  37.1505  35.7077 S.o2           1 <1>                0.0000
      3 O3          32.1668  35.8156  35.3482 O.2            1 <1>                0.0000
      4 O4          32.6052  37.8593  36.6715 O.2            1 <1>                0.0000
      5 C5          30.0673  37.2943  36.0723 C.3            1 <1>                0.0000
      6 C6          29.7800  36.6943  37.4501 C.3            1 <1>                0.0000
      7 O7          28.4365  36.9980  37.8310 O.3            1 <1>                0.0000
      8 C8          28.0339  36.4025  39.0661 C.3            1 <1>                0.0000
      9 C9          28.9922  36.8353  40.1799 C.3            1 <1>                0.0000
     10 C10         28.5080  36.2569  41.5122 C.3            1 <1>                0.0000
     11 O11         27.1731  36.6997  41.7652 O.3            1 <1>                0.0000
     12 C12         26.2242  36.2843  40.7808 C.3            1 <1>                0.0000
     13 C13         26.6165  36.8637  39.4192 C.3            1 <1>                0.0000
     14 H14         29.7794  38.3455  36.0665 H              1 <1>                0.0000
     15 H15         29.4959  36.7569  35.3156 H              1 <1>                0.0000
     16 H16         29.9107  35.6130  37.4099 H              1 <1>                0.0000
     17 H17         30.4692  37.1167  38.1812 H              1 <1>                0.0000
     18 H18         28.0523  35.3169  38.9705 H              1 <1>                0.0000
     19 H19         29.9936  36.4632  39.9638 H              1 <1>                0.0000
     20 H20         29.0121  37.9233  40.2410 H              1 <1>                0.0000
     21 H21         28.5269  35.1681  41.4641 H              1 <1>                0.0000
     22 H22         29.1621  36.5968  42.3151 H              1 <1>                0.0000
     23 H23         26.2130  35.1959  40.7232 H              1 <1>                0.0000
     24 H24         25.2329  36.6439  41.0569 H              1 <1>                0.0000
     25 H25         26.5885  37.9523  39.4649 H              1 <1>                0.0000
     26 H26         25.9190  36.5121  38.6591 H              1 <1>                0.0000
@<TRIPOS>BOND
    1    1    2 1     
    2    2    3 2     
    3    2    4 2     
    4    2    5 1     
    5    5    6 1     
    6    5   14 1     
    7    5   15 1     
    8    6    7 1     
    9    6   16 1     
   10    6   17 1     
   11    7    8 1     
   12    8    9 1     
   13    8   13 1     
   14    8   18 1     
   15    9   10 1     
   16    9   19 1     
   17    9   20 1     
   18   10   11 1     
   19   10   21 1     
   20   10   22 1     
   21   11   12 1     
   22   12   13 1     
   23   12   23 1     
   24   12   24 1     
   25   13   25 1     
   26   13   26 1     
@<TRIPOS>SUBSTRUCTURE
      1 ****           1
@<TRIPOS>COMMENT
> <Gold.Version>
2022.2.0

> <Gold.Id.Protein>
1qkm|1qkm_protein|mol2

> <Gold.Protein.RotatedTorsions>
[  496  491  490  487 ] final  -85.31 input  -89.99 | X-H torsion

> <Gold.Protein.ActiveResidues>
 MET295  LEU298  THR299  LEU301  ALA302  GLU305  TRP335  MET336  LEU339  MET340 
 GLY342  LEU343  ARG346  PHE356  ILE373  ILE376  PHE377  LEU380  LYS471  GLY472 
 MET473  HIS475  LEU476  LEU477  ASN478  MET479  VAL484  VAL487 

> <Gold.Protein.RotatedAtoms>
   36.7141   34.6813   41.1368 H   0  0  0  0  0  0  0  0  0  0  0  0  # atno 496  bound_to 491 

> <Gold.Score>
     Score     S(PLP)   S(hbond)     S(cho)   S(metal)  DE(clash)   DE(tors)     intcor
     37.77     -37.95       0.00       0.00       0.00       0.00       0.16       0.14

> <Gold.PLP.Fitness>
37.7732

> <Gold.PLP.PLP>
-37.9550

> <Gold.PLP.part.hbond>
0.0000

> <Gold.PLP.part.metal>
0.0000

> <Gold.PLP.part.buried>
-4.4178

> <Gold.PLP.part.nonpolar>
-33.8400

> <Gold.PLP.part.repulsive>
0.2137

> <Gold.PLP.ligand.clash>
0.0000

> <Gold.PLP.ligand.torsion>
0.1631

> <Gold.PLP.Chemscore.Hbond>
0.0000

> <Gold.PLP.Chemscore.CHOScore>
0.0000

> <Gold.PLP.Chemscore.Metal>
0.0000

> <Gold.PLP.Chemscore.Internal.Correction>
0.1445

