#       Name:                EN300-330399_i001
#       Creating user name   aseyller
#       Creation time:       Fri Apr 21 19:46:40 2023


#       File generated by GOLD software.
#

@<TRIPOS>MOLECULE
EN300-330399_i001|Sulfonylchlorides|mol2|903|dock16
    26    26     1
SMALL
USER_CHARGES


@<TRIPOS>ATOM
      1 Cl1         31.7823  36.0965  35.6477 Cl             1 <1>                0.0000
      2 S2          32.1232  35.6859  37.5959 S.o2           1 <1>                0.0000
      3 O3          32.0907  34.2671  37.6660 O.2            1 <1>                0.0000
      4 O4          33.3077  36.4078  37.9042 O.2            1 <1>                0.0000
      5 C5          30.6991  36.3988  38.4646 C.3            1 <1>                0.0000
      6 C6          29.9009  35.2809  39.1385 C.3            1 <1>                0.0000
      7 O7          29.3000  35.7795  40.3354 O.3            1 <1>                0.0000
      8 C8          27.8766  35.8879  40.2696 C.3            1 <1>                0.0000
      9 C9          27.3640  36.6538  41.4930 C.3            1 <1>                0.0000
     10 C10         25.8483  36.8334  41.3746 C.3            1 <1>                0.0000
     11 O11         25.5448  37.5204  40.1587 O.3            1 <1>                0.0000
     12 C12         25.9586  36.8285  38.9788 C.3            1 <1>                0.0000
     13 C13         27.4788  36.6487  39.0010 C.3            1 <1>                0.0000
     14 H14         31.0492  37.1018  39.2204 H              1 <1>                0.0000
     15 H15         30.0619  36.9205  37.7505 H              1 <1>                0.0000
     16 H16         29.1231  34.9301  38.4602 H              1 <1>                0.0000
     17 H17         30.5685  34.4550  39.3840 H              1 <1>                0.0000
     18 H18         27.4355  34.8912  40.2521 H              1 <1>                0.0000
     19 H19         27.5945  36.0914  42.3978 H              1 <1>                0.0000
     20 H20         27.8441  37.6312  41.5383 H              1 <1>                0.0000
     21 H21         25.3656  35.8561  41.3701 H              1 <1>                0.0000
     22 H22         25.4839  37.4150  42.2214 H              1 <1>                0.0000
     23 H23         25.4774  35.8511  38.9429 H              1 <1>                0.0000
     24 H24         25.6737  37.4066  38.0997 H              1 <1>                0.0000
     25 H25         27.9613  37.6260  38.9960 H              1 <1>                0.0000
     26 H26         27.7914  36.0826  38.1236 H              1 <1>                0.0000
@<TRIPOS>BOND
    1    1    2 1     
    2    2    3 2     
    3    2    4 2     
    4    2    5 1     
    5    5    6 1     
    6    5   14 1     
    7    5   15 1     
    8    6    7 1     
    9    6   16 1     
   10    6   17 1     
   11    7    8 1     
   12    8    9 1     
   13    8   13 1     
   14    8   18 1     
   15    9   10 1     
   16    9   19 1     
   17    9   20 1     
   18   10   11 1     
   19   10   21 1     
   20   10   22 1     
   21   11   12 1     
   22   12   13 1     
   23   12   23 1     
   24   12   24 1     
   25   13   25 1     
   26   13   26 1     
@<TRIPOS>SUBSTRUCTURE
      1 ****           1
@<TRIPOS>COMMENT
> <Gold.Version>
2022.2.0

> <Gold.Id.Protein>
1qkm|1qkm_protein|mol2

> <Gold.Protein.RotatedTorsions>
[  496  491  490  487 ] final   56.52 input  -89.99 | X-H torsion

> <Gold.Protein.ActiveResidues>
 MET295  LEU298  THR299  LEU301  ALA302  GLU305  TRP335  MET336  LEU339  MET340 
 GLY342  LEU343  ARG346  PHE356  ILE373  ILE376  PHE377  LEU380  LYS471  GLY472 
 MET473  HIS475  LEU476  LEU477  ASN478  MET479  VAL484  VAL487 

> <Gold.Protein.RotatedAtoms>
   36.5232   33.3647   42.3233 H   0  0  0  0  0  0  0  0  0  0  0  0  # atno 496  bound_to 491 

> <Gold.Score>
     Score     S(PLP)   S(hbond)     S(cho)   S(metal)  DE(clash)   DE(tors)     intcor
     39.00     -40.23       0.00       0.00       0.00       0.00       0.69       0.14

> <Gold.PLP.Fitness>
38.9961

> <Gold.PLP.PLP>
-40.2328

> <Gold.PLP.part.hbond>
0.0000

> <Gold.PLP.part.metal>
0.0000

> <Gold.PLP.part.buried>
-5.6265

> <Gold.PLP.part.nonpolar>
-35.4196

> <Gold.PLP.part.repulsive>
0.2647

> <Gold.PLP.ligand.clash>
0.0000

> <Gold.PLP.ligand.torsion>
0.6892

> <Gold.PLP.Chemscore.Hbond>
0.0000

> <Gold.PLP.Chemscore.CHOScore>
0.0000

> <Gold.PLP.Chemscore.Metal>
0.0000

> <Gold.PLP.Chemscore.Internal.Correction>
0.1417

