#       Name:                EN300-330399_i001
#       Creating user name   aseyller
#       Creation time:       Fri Apr 21 19:46:38 2023


#       File generated by GOLD software.
#

@<TRIPOS>MOLECULE
EN300-330399_i001|Sulfonylchlorides|mol2|903|dock14
    26    26     1
SMALL
USER_CHARGES


@<TRIPOS>ATOM
      1 Cl1         31.6757  34.0366  38.3212 Cl             1 <1>                0.0000
      2 S2          31.9829  35.8254  37.4344 S.o2           1 <1>                0.0000
      3 O3          33.0602  36.3975  38.1631 O.2            1 <1>                0.0000
      4 O4          32.1153  35.5142  36.0543 O.2            1 <1>                0.0000
      5 C5          30.4503  36.7485  37.7346 C.3            1 <1>                0.0000
      6 C6          30.1052  36.6932  39.2241 C.3            1 <1>                0.0000
      7 O7          29.3637  35.5024  39.4974 O.3            1 <1>                0.0000
      8 C8          27.9638  35.7196  39.6849 C.3            1 <1>                0.0000
      9 C9          27.7273  36.3983  41.0375 C.3            1 <1>                0.0000
     10 C10         26.2343  36.6980  41.1950 C.3            1 <1>                0.0000
     11 O11         25.7976  37.5198  40.1105 O.3            1 <1>                0.0000
     12 C12         25.9507  36.9175  38.8237 C.3            1 <1>                0.0000
     13 C13         27.4323  36.6267  38.5709 C.3            1 <1>                0.0000
     14 H14         30.5861  37.7866  37.4314 H              1 <1>                0.0000
     15 H15         29.6397  36.3043  37.1571 H              1 <1>                0.0000
     16 H16         31.0242  36.6915  39.8102 H              1 <1>                0.0000
     17 H17         29.5058  37.5636  39.4908 H              1 <1>                0.0000
     18 H18         27.4401  34.7639  39.6599 H              1 <1>                0.0000
     19 H19         28.0523  35.7355  41.8395 H              1 <1>                0.0000
     20 H20         28.2922  37.3293  41.0816 H              1 <1>                0.0000
     21 H21         25.6735  35.7633  41.1915 H              1 <1>                0.0000
     22 H22         26.0657  37.2195  42.1372 H              1 <1>                0.0000
     23 H23         25.3862  35.9857  38.7891 H              1 <1>                0.0000
     24 H24         25.5778  37.5973  38.0576 H              1 <1>                0.0000
     25 H25         27.9914  37.5623  38.5652 H              1 <1>                0.0000
     26 H26         27.5464  36.1272  37.6088 H              1 <1>                0.0000
@<TRIPOS>BOND
    1    1    2 1     
    2    2    3 2     
    3    2    4 2     
    4    2    5 1     
    5    5    6 1     
    6    5   14 1     
    7    5   15 1     
    8    6    7 1     
    9    6   16 1     
   10    6   17 1     
   11    7    8 1     
   12    8    9 1     
   13    8   13 1     
   14    8   18 1     
   15    9   10 1     
   16    9   19 1     
   17    9   20 1     
   18   10   11 1     
   19   10   21 1     
   20   10   22 1     
   21   11   12 1     
   22   12   13 1     
   23   12   23 1     
   24   12   24 1     
   25   13   25 1     
   26   13   26 1     
@<TRIPOS>SUBSTRUCTURE
      1 ****           1
@<TRIPOS>COMMENT
> <Gold.Version>
2022.2.0

> <Gold.Id.Protein>
1qkm|1qkm_protein|mol2

> <Gold.Protein.RotatedTorsions>
[  496  491  490  487 ] final  -87.52 input  -89.99 | X-H torsion

> <Gold.Protein.ActiveResidues>
 MET295  LEU298  THR299  LEU301  ALA302  GLU305  TRP335  MET336  LEU339  MET340 
 GLY342  LEU343  ARG346  PHE356  ILE373  ILE376  PHE377  LEU380  LYS471  GLY472 
 MET473  HIS475  LEU476  LEU477  ASN478  MET479  VAL484  VAL487 

> <Gold.Protein.RotatedAtoms>
   36.7345   34.6688   41.1093 H   0  0  0  0  0  0  0  0  0  0  0  0  # atno 496  bound_to 491 

> <Gold.Score>
     Score     S(PLP)   S(hbond)     S(cho)   S(metal)  DE(clash)   DE(tors)     intcor
     39.14     -40.39       0.00       0.00       0.00       0.00       0.70       0.14

> <Gold.PLP.Fitness>
39.1370

> <Gold.PLP.PLP>
-40.3887

> <Gold.PLP.part.hbond>
0.0000

> <Gold.PLP.part.metal>
0.0000

> <Gold.PLP.part.buried>
-3.9169

> <Gold.PLP.part.nonpolar>
-36.8822

> <Gold.PLP.part.repulsive>
0.2611

> <Gold.PLP.ligand.clash>
0.0000

> <Gold.PLP.ligand.torsion>
0.6967

> <Gold.PLP.Chemscore.Hbond>
0.0000

> <Gold.PLP.Chemscore.CHOScore>
0.0000

> <Gold.PLP.Chemscore.Metal>
0.0000

> <Gold.PLP.Chemscore.Internal.Correction>
0.1417

