#       Name:                EN300-330399_i001
#       Creating user name   aseyller
#       Creation time:       Fri Apr 21 19:46:30 2023


#       File generated by GOLD software.
#

@<TRIPOS>MOLECULE
EN300-330399_i001|Sulfonylchlorides|mol2|903|dock5
    26    26     1
SMALL
USER_CHARGES


@<TRIPOS>ATOM
      1 Cl1         31.8117  34.3400  37.8938 Cl             1 <1>                0.0000
      2 S2          32.4874  35.9912  36.9463 S.o2           1 <1>                0.0000
      3 O3          33.3126  36.6341  37.9080 O.2            1 <1>                0.0000
      4 O4          33.0287  35.4993  35.7280 O.2            1 <1>                0.0000
      5 C5          30.9956  36.9735  36.6294 C.3            1 <1>                0.0000
      6 C6          30.2747  37.2468  37.9509 C.3            1 <1>                0.0000
      7 O7          28.9189  36.8057  37.8541 O.3            1 <1>                0.0000
      8 C8          28.1409  37.0566  39.0262 C.3            1 <1>                0.0000
      9 C9          26.7253  36.5058  38.8291 C.3            1 <1>                0.0000
     10 C10         25.9234  36.7086  40.1174 C.3            1 <1>                0.0000
     11 O11         26.5935  36.0614  41.2010 O.3            1 <1>                0.0000
     12 C12         27.9041  36.5677  41.4622 C.3            1 <1>                0.0000
     13 C13         28.7856  36.3592  40.2281 C.3            1 <1>                0.0000
     14 H14         31.2751  37.9194  36.1656 H              1 <1>                0.0000
     15 H15         30.3332  36.4230  35.9613 H              1 <1>                0.0000
     16 H16         30.7753  36.7088  38.7559 H              1 <1>                0.0000
     17 H17         30.2947  38.3161  38.1613 H              1 <1>                0.0000
     18 H18         28.0924  38.1302  39.2087 H              1 <1>                0.0000
     19 H19         26.2389  37.0358  38.0102 H              1 <1>                0.0000
     20 H20         26.7773  35.4424  38.5961 H              1 <1>                0.0000
     21 H21         25.8372  37.7746  40.3280 H              1 <1>                0.0000
     22 H22         24.9283  36.2801  39.9974 H              1 <1>                0.0000
     23 H23         27.8438  37.6317  41.6905 H              1 <1>                0.0000
     24 H24         28.3360  36.0375  42.3111 H              1 <1>                0.0000
     25 H25         28.8793  35.2928  40.0232 H              1 <1>                0.0000
     26 H26         29.7727  36.7843  40.4096 H              1 <1>                0.0000
@<TRIPOS>BOND
    1    1    2 1     
    2    2    3 2     
    3    2    4 2     
    4    2    5 1     
    5    5    6 1     
    6    5   14 1     
    7    5   15 1     
    8    6    7 1     
    9    6   16 1     
   10    6   17 1     
   11    7    8 1     
   12    8    9 1     
   13    8   13 1     
   14    8   18 1     
   15    9   10 1     
   16    9   19 1     
   17    9   20 1     
   18   10   11 1     
   19   10   21 1     
   20   10   22 1     
   21   11   12 1     
   22   12   13 1     
   23   12   23 1     
   24   12   24 1     
   25   13   25 1     
   26   13   26 1     
@<TRIPOS>SUBSTRUCTURE
      1 ****           1
@<TRIPOS>COMMENT
> <Gold.Version>
2022.2.0

> <Gold.Id.Protein>
1qkm|1qkm_protein|mol2

> <Gold.Protein.RotatedTorsions>
[  496  491  490  487 ] final -144.13 input  -89.99 | X-H torsion

> <Gold.Protein.ActiveResidues>
 MET295  LEU298  THR299  LEU301  ALA302  GLU305  TRP335  MET336  LEU339  MET340 
 GLY342  LEU343  ARG346  PHE356  ILE373  ILE376  PHE377  LEU380  LYS471  GLY472 
 MET473  HIS475  LEU476  LEU477  ASN478  MET479  VAL484  VAL487 

> <Gold.Protein.RotatedAtoms>
   37.1991   34.0110   40.7203 H   0  0  0  0  0  0  0  0  0  0  0  0  # atno 496  bound_to 491 

> <Gold.Score>
     Score     S(PLP)   S(hbond)     S(cho)   S(metal)  DE(clash)   DE(tors)     intcor
     37.18     -37.93       0.00       0.00       0.00       0.00       0.45       0.14

> <Gold.PLP.Fitness>
37.1805

> <Gold.PLP.PLP>
-37.9338

> <Gold.PLP.part.hbond>
0.0000

> <Gold.PLP.part.metal>
0.0000

> <Gold.PLP.part.buried>
-3.6544

> <Gold.PLP.part.nonpolar>
-35.1003

> <Gold.PLP.part.repulsive>
0.8573

> <Gold.PLP.ligand.clash>
0.0000

> <Gold.PLP.ligand.torsion>
0.4489

> <Gold.PLP.Chemscore.Hbond>
0.0000

> <Gold.PLP.Chemscore.CHOScore>
0.0000

> <Gold.PLP.Chemscore.Metal>
0.0000

> <Gold.PLP.Chemscore.Internal.Correction>
0.1445

