#       Name:                EN300-330399_i001
#       Creating user name   aseyller
#       Creation time:       Fri Apr 21 19:46:44 2023


#       File generated by GOLD software.
#

@<TRIPOS>MOLECULE
EN300-330399_i001|Sulfonylchlorides|mol2|903|dock20
    26    26     1
SMALL
USER_CHARGES


@<TRIPOS>ATOM
      1 Cl1         32.4022  38.5018  36.4526 Cl             1 <1>                0.0000
      2 S2          31.9342  36.6104  35.9197 S.o2           1 <1>                0.0000
      3 O3          30.6002  36.7016  35.4390 O.2            1 <1>                0.0000
      4 O4          32.9964  36.2148  35.0626 O.2            1 <1>                0.0000
      5 C5          31.9884  35.6758  37.4735 C.3            1 <1>                0.0000
      6 C6          31.0560  36.3302  38.4949 C.3            1 <1>                0.0000
      7 O7          29.7371  35.8012  38.3433 O.3            1 <1>                0.0000
      8 C8          28.7665  36.4051  39.2009 C.3            1 <1>                0.0000
      9 C9          27.3612  36.1328  38.6558 C.3            1 <1>                0.0000
     10 C10         26.3260  36.7152  39.6218 C.3            1 <1>                0.0000
     11 O11         26.5085  36.1399  40.9172 O.3            1 <1>                0.0000
     12 C12         27.7880  36.4021  41.4969 C.3            1 <1>                0.0000
     13 C13         28.8819  35.8071  40.6064 C.3            1 <1>                0.0000
     14 H14         31.6663  34.6504  37.2922 H              1 <1>                0.0000
     15 H15         33.0072  35.6735  37.8608 H              1 <1>                0.0000
     16 H16         31.4173  36.1224  39.5021 H              1 <1>                0.0000
     17 H17         31.0363  37.4076  38.3310 H              1 <1>                0.0000
     18 H18         28.9383  37.4806  39.2455 H              1 <1>                0.0000
     19 H19         27.2521  36.6027  37.6784 H              1 <1>                0.0000
     20 H20         27.2084  35.0576  38.5632 H              1 <1>                0.0000
     21 H21         26.4534  37.7960  39.6829 H              1 <1>                0.0000
     22 H22         25.3232  36.4871  39.2607 H              1 <1>                0.0000
     23 H23         27.9346  37.4787  41.5826 H              1 <1>                0.0000
     24 H24         27.8384  35.9484  42.4868 H              1 <1>                0.0000
     25 H25         28.7599  34.7253  40.5531 H              1 <1>                0.0000
     26 H26         29.8605  36.0441  41.0239 H              1 <1>                0.0000
@<TRIPOS>BOND
    1    1    2 1     
    2    2    3 2     
    3    2    4 2     
    4    2    5 1     
    5    5    6 1     
    6    5   14 1     
    7    5   15 1     
    8    6    7 1     
    9    6   16 1     
   10    6   17 1     
   11    7    8 1     
   12    8    9 1     
   13    8   13 1     
   14    8   18 1     
   15    9   10 1     
   16    9   19 1     
   17    9   20 1     
   18   10   11 1     
   19   10   21 1     
   20   10   22 1     
   21   11   12 1     
   22   12   13 1     
   23   12   23 1     
   24   12   24 1     
   25   13   25 1     
   26   13   26 1     
@<TRIPOS>SUBSTRUCTURE
      1 ****           1
@<TRIPOS>COMMENT
> <Gold.Version>
2022.2.0

> <Gold.Id.Protein>
1qkm|1qkm_protein|mol2

> <Gold.Protein.RotatedTorsions>
[  496  491  490  487 ] final  -50.12 input  -89.99 | X-H torsion

> <Gold.Protein.ActiveResidues>
 MET295  LEU298  THR299  LEU301  ALA302  GLU305  TRP335  MET336  LEU339  MET340 
 GLY342  LEU343  ARG346  PHE356  ILE373  ILE376  PHE377  LEU380  LYS471  GLY472 
 MET473  HIS475  LEU476  LEU477  ASN478  MET479  VAL484  VAL487 

> <Gold.Protein.RotatedAtoms>
   36.4254   34.7047   41.6279 H   0  0  0  0  0  0  0  0  0  0  0  0  # atno 496  bound_to 491 

> <Gold.Score>
     Score     S(PLP)   S(hbond)     S(cho)   S(metal)  DE(clash)   DE(tors)     intcor
     36.60     -37.32       0.00       0.00       0.00       0.00       0.43       0.14

> <Gold.PLP.Fitness>
36.5970

> <Gold.PLP.PLP>
-37.3216

> <Gold.PLP.part.hbond>
0.0000

> <Gold.PLP.part.metal>
0.0000

> <Gold.PLP.part.buried>
-5.1524

> <Gold.PLP.part.nonpolar>
-32.6356

> <Gold.PLP.part.repulsive>
0.3655

> <Gold.PLP.ligand.clash>
0.0000

> <Gold.PLP.ligand.torsion>
0.4318

> <Gold.PLP.Chemscore.Hbond>
0.0000

> <Gold.PLP.Chemscore.CHOScore>
0.0000

> <Gold.PLP.Chemscore.Metal>
0.0000

> <Gold.PLP.Chemscore.Internal.Correction>
0.1389

