#       Name:                plp ligand
#       Creating user name   aseyller
#       Creation time:       Fri Apr 21 19:46:26 2023


#       File generated by GOLD software.
#

@<TRIPOS>MOLECULE
plp ligand
    26    26     1
SMALL
USER_CHARGES


@<TRIPOS>ATOM
      1 Cl1         -5.8694  -0.4560  -0.7167 NONPOLAR       1 <1>                0.0000
      2 S2          -4.2816   0.2823   0.2904 NONPOLAR       1 <1>                0.0000
      3 O3          -4.3175   1.6781   0.0267 ACCEPTOR       1 <1>                0.0000
      4 O4          -4.4405  -0.2182   1.6108 ACCEPTOR       1 <1>                0.0000
      5 C5          -2.8434  -0.4799  -0.5105 NONPOLAR       1 <1>                0.0000
      6 C6          -1.5629   0.0064   0.1711 NONPOLAR       1 <1>                0.0000
      7 O7          -0.4299  -0.5941  -0.4598 ACCEPTOR       1 <1>                0.0000
      8 C8           0.8239  -0.2043   0.1042 NONPOLAR       1 <1>                0.0000
      9 C9           1.8341  -1.3446  -0.0553 NONPOLAR       1 <1>                0.0000
     10 C10          3.1942  -0.8895   0.4802 NONPOLAR       1 <1>                0.0000
     11 O11          3.6115   0.2847  -0.2194 ACCEPTOR       1 <1>                0.0000
     12 C12          2.7293   1.3986  -0.0677 NONPOLAR       1 <1>                0.0000
     13 C13          1.3505   1.0355  -0.6252 NONPOLAR       1 <1>                0.0000
     14 H14         -2.9117  -1.5643  -0.4241                1 <1>                0.0000
     15 H15         -2.8233  -0.1999  -1.5637                1 <1>                0.0000
     16 H16         -1.4946   1.0908   0.0847                1 <1>                0.0000
     17 H17         -1.5830  -0.2736   1.2243                1 <1>                0.0000
     18 H18          0.6931   0.0217   1.1625                1 <1>                0.0000
     19 H19          1.4937  -2.2141   0.5070                1 <1>                0.0000
     20 H20          1.9263  -1.6047  -1.1097                1 <1>                0.0000
     21 H21          3.1105  -0.6682   1.5442                1 <1>                0.0000
     22 H22          3.9275  -1.6819   0.3302                1 <1>                0.0000
     23 H23          2.6395   1.6499   0.9891                1 <1>                0.0000
     24 H24          3.1277   2.2546  -0.6124                1 <1>                0.0000
     25 H25          1.4329   0.8234  -1.6911                1 <1>                0.0000
     26 H26          0.6643   1.8681  -0.4705                1 <1>                0.0000
@<TRIPOS>BOND
    1    1    2 1     
    2    2    3 2     
    3    2    4 2     
    4    2    5 1     
    5    5    6 1     
    6    5   14 1     
    7    5   15 1     
    8    6    7 1     
    9    6   16 1     
   10    6   17 1     
   11    7    8 1     
   12    8    9 1     
   13    8   13 1     
   14    8   18 1     
   15    9   10 1     
   16    9   19 1     
   17    9   20 1     
   18   10   11 1     
   19   10   21 1     
   20   10   22 1     
   21   11   12 1     
   22   12   13 1     
   23   12   23 1     
   24   12   24 1     
   25   13   25 1     
   26   13   26 1     
@<TRIPOS>SUBSTRUCTURE
      1 ****           1
@<TRIPOS>SET
DONOR_HYDROGENS      STATIC     ATOMS    <user>   **** ""
0
ATOM$RED        STATIC     ATOMS    COLORGROUP SYSTEM
0
