#       Name:                EN300-200881_i001
#       Creating user name   aseyller
#       Creation time:       Fri Apr 21 16:32:47 2023


#       File generated by GOLD software.
#

@<TRIPOS>MOLECULE
EN300-200881_i001|aminophenols|mol2|49|dock6
    27    27     1
SMALL
USER_CHARGES


@<TRIPOS>ATOM
      1 C1          32.1175  36.9085  37.3743 C.3            1 <1>                0.0000
      2 C2          32.2520  35.6866  38.2852 C.3            1 <1>                0.0000
      3 O3          30.9970  34.9567  38.3043 O.3            1 <1>                0.0000
      4 C4          29.9566  35.5492  38.9113 C.2            1 <1>                0.0000
      5 O5          30.0572  36.6848  39.3112 O.2            1 <1>                0.0000
      6 C6          28.6631  34.7978  39.0941 C.3            1 <1>                0.0000
      7 C7          27.5665  35.7660  39.4557 C.ar           1 <1>                0.0000
      8 C8          27.0435  36.6096  38.4922 C.ar           1 <1>                0.0000
      9 C9          26.0373  37.4988  38.8193 C.ar           1 <1>                0.0000
     10 C10         25.5483  37.5498  40.1116 C.ar           1 <1>                0.0000
     11 C11         26.0678  36.7071  41.0829 C.ar           1 <1>                0.0000
     12 N12         25.5746  36.7569  42.3918 N.pl3          1 <1>                0.0000
     13 C13         27.0787  35.8072  40.7509 C.ar           1 <1>                0.0000
     14 O14         27.5921  34.9783  41.6993 O.3            1 <1>                0.0000
     15 H15         31.3259  37.5567  37.7503 H              1 <1>                0.0000
     16 H16         33.0596  37.4565  37.3599 H              1 <1>                0.0000
     17 H17         31.8711  36.5830  36.3636 H              1 <1>                0.0000
     18 H18         33.0436  35.0386  37.9092 H              1 <1>                0.0000
     19 H19         32.4984  36.0123  39.2958 H              1 <1>                0.0000
     20 H20         28.4055  34.2869  38.1663 H              1 <1>                0.0000
     21 H21         28.7785  34.0647  39.8925 H              1 <1>                0.0000
     22 H22         27.4227  36.5734  37.4815 H              1 <1>                0.0000
     23 H23         25.6323  38.1557  38.0638 H              1 <1>                0.0000
     24 H24         24.7623  38.2459  40.3646 H              1 <1>                0.0000
     25 H25         24.8685  37.3813  42.6205 H              1 <1>                0.0000
     26 H26         25.9389  36.1669  43.0701 H              1 <1>                0.0000
     27 H27         27.0428  34.8987  42.4911 H              1 <1>                0.0000
@<TRIPOS>BOND
    1    1    2 1     
    2    1   15 1     
    3    1   16 1     
    4    1   17 1     
    5    2    3 1     
    6    2   18 1     
    7    2   19 1     
    8    3    4 1     
    9    4    5 2     
   10    4    6 1     
   11    6    7 1     
   12    6   20 1     
   13    6   21 1     
   14    7    8 ar    
   15    7   13 ar    
   16    8    9 ar    
   17    8   22 1     
   18    9   10 ar    
   19    9   23 1     
   20   10   11 ar    
   21   10   24 1     
   22   11   12 1     
   23   11   13 ar    
   24   12   25 1     
   25   12   26 1     
   26   13   14 1     
   27   14   27 1     
@<TRIPOS>SUBSTRUCTURE
      1 ****           1
@<TRIPOS>SET
DONOR_HYDROGENS      STATIC     ATOMS    <user>   **** ""
3 25 26 27
ATOM$RED        STATIC     ATOMS    COLORGROUP SYSTEM
3 25 26 27
@<TRIPOS>COMMENT
> <Gold.Version>
2022.2.0

> <Gold.Id.Protein>
1qkm|1qkm_protein|mol2

> <Gold.Protein.RotatedTorsions>
[  496  491  490  487 ] final  165.43 input  -89.99 | X-H torsion

> <Gold.Protein.ActiveResidues>
 MET295  LEU298  THR299  LEU301  ALA302  GLU305  TRP335  MET336  LEU339  MET340 
 GLY342  LEU343  ARG346  PHE356  ILE373  ILE376  PHE377  LEU380  LYS471  GLY472 
 MET473  HIS475  LEU476  LEU477  ASN478  MET479  VAL484  VAL487 

> <Gold.Protein.RotatedAtoms>
   37.3088   33.2685   41.0083 H   0  0  0  0  0  0  0  0  0  0  0  0  # atno 496  bound_to 491 

> <Gold.Score>
     Score     S(PLP)   S(hbond)     S(cho)   S(metal)  DE(clash)   DE(tors)     intcor
     51.42     -46.20       2.00       0.00       0.00       0.00       0.40       0.02

> <Gold.PLP.Fitness>
51.4194

> <Gold.PLP.PLP>
-46.2007

> <Gold.PLP.part.hbond>
-2.0000

> <Gold.PLP.part.metal>
0.0000

> <Gold.PLP.part.buried>
-6.9721

> <Gold.PLP.part.nonpolar>
-40.9381

> <Gold.PLP.part.repulsive>
2.8133

> <Gold.PLP.ligand.clash>
0.0000

> <Gold.PLP.ligand.torsion>
0.3986

> <Gold.PLP.Chemscore.Hbond>
2.0000

> <Gold.PLP.Chemscore.CHOScore>
0.0000

> <Gold.PLP.Chemscore.Metal>
0.0000

> <Gold.Chemscore.Hbonds>
donor molecule, donor type, donor heavy atom, donor atom, acceptor molecule, acceptor atom, score
      L1  H    12    26       P1   582  1.00
      L1  H    14    27       P1   582  1.00

> <Gold.PLP.Chemscore.Internal.Correction>
0.0158

