#       Name:                EN300-200881_i001
#       Creating user name   aseyller
#       Creation time:       Fri Apr 21 16:32:44 2023


#       File generated by GOLD software.
#

@<TRIPOS>MOLECULE
EN300-200881_i001|aminophenols|mol2|49|dock3
    27    27     1
SMALL
USER_CHARGES


@<TRIPOS>ATOM
      1 C1          32.7479  35.7215  35.9162 C.3            1 <1>                0.0000
      2 C2          31.9080  36.6137  36.8324 C.3            1 <1>                0.0000
      3 O3          31.0832  35.7841  37.6924 O.3            1 <1>                0.0000
      4 C4          30.3051  36.4164  38.5849 C.2            1 <1>                0.0000
      5 O5          30.2998  37.6235  38.6337 O.2            1 <1>                0.0000
      6 C6          29.4384  35.6204  39.5264 C.3            1 <1>                0.0000
      7 C7          28.0524  36.2113  39.5540 C.ar           1 <1>                0.0000
      8 C8          27.6163  37.0008  38.5052 C.ar           1 <1>                0.0000
      9 C9          26.3457  37.5443  38.5262 C.ar           1 <1>                0.0000
     10 C10         25.5040  37.3017  39.5959 C.ar           1 <1>                0.0000
     11 C11         25.9344  36.5112  40.6510 C.ar           1 <1>                0.0000
     12 N12         25.0842  36.2643  41.7351 N.pl3          1 <1>                0.0000
     13 C13         27.2137  35.9593  40.6265 C.ar           1 <1>                0.0000
     14 O14         27.6413  35.1833  41.6585 O.3            1 <1>                0.0000
     15 H15         32.0886  35.1064  35.3039 H              1 <1>                0.0000
     16 H16         33.3671  36.3443  35.2706 H              1 <1>                0.0000
     17 H17         33.3866  35.0781  36.5214 H              1 <1>                0.0000
     18 H18         32.5675  37.2287  37.4447 H              1 <1>                0.0000
     19 H19         31.2694  37.2571  36.2271 H              1 <1>                0.0000
     20 H20         29.3859  34.5864  39.1854 H              1 <1>                0.0000
     21 H21         29.8666  35.6513  40.5282 H              1 <1>                0.0000
     22 H22         28.2705  37.1932  37.6676 H              1 <1>                0.0000
     23 H23         26.0097  38.1603  37.7052 H              1 <1>                0.0000
     24 H24         24.5118  37.7280  39.6101 H              1 <1>                0.0000
     25 H25         24.1927  36.6462  41.7491 H              1 <1>                0.0000
     26 H26         25.3867  35.7112  42.4724 H              1 <1>                0.0000
     27 H27         26.9315  34.8708  42.2360 H              1 <1>                0.0000
@<TRIPOS>BOND
    1    1    2 1     
    2    1   15 1     
    3    1   16 1     
    4    1   17 1     
    5    2    3 1     
    6    2   18 1     
    7    2   19 1     
    8    3    4 1     
    9    4    5 2     
   10    4    6 1     
   11    6    7 1     
   12    6   20 1     
   13    6   21 1     
   14    7    8 ar    
   15    7   13 ar    
   16    8    9 ar    
   17    8   22 1     
   18    9   10 ar    
   19    9   23 1     
   20   10   11 ar    
   21   10   24 1     
   22   11   12 1     
   23   11   13 ar    
   24   12   25 1     
   25   12   26 1     
   26   13   14 1     
   27   14   27 1     
@<TRIPOS>SUBSTRUCTURE
      1 ****           1
@<TRIPOS>SET
DONOR_HYDROGENS      STATIC     ATOMS    <user>   **** ""
3 25 26 27
ATOM$RED        STATIC     ATOMS    COLORGROUP SYSTEM
3 25 26 27
@<TRIPOS>COMMENT
> <Gold.Version>
2022.2.0

> <Gold.Id.Protein>
1qkm|1qkm_protein|mol2

> <Gold.Protein.RotatedTorsions>
[  496  491  490  487 ] final  173.12 input  -89.99 | X-H torsion

> <Gold.Protein.ActiveResidues>
 MET295  LEU298  THR299  LEU301  ALA302  GLU305  TRP335  MET336  LEU339  MET340 
 GLY342  LEU343  ARG346  PHE356  ILE373  ILE376  PHE377  LEU380  LYS471  GLY472 
 MET473  HIS475  LEU476  LEU477  ASN478  MET479  VAL484  VAL487 

> <Gold.Protein.RotatedAtoms>
   37.3178   33.3667   40.9289 H   0  0  0  0  0  0  0  0  0  0  0  0  # atno 496  bound_to 491 

> <Gold.Score>
     Score     S(PLP)   S(hbond)     S(cho)   S(metal)  DE(clash)   DE(tors)     intcor
     50.99     -45.91       2.00       0.00       0.00       0.00       0.46       0.02

> <Gold.PLP.Fitness>
50.9943

> <Gold.PLP.PLP>
-45.9053

> <Gold.PLP.part.hbond>
-2.3409

> <Gold.PLP.part.metal>
0.0000

> <Gold.PLP.part.buried>
-5.6243

> <Gold.PLP.part.nonpolar>
-39.4897

> <Gold.PLP.part.repulsive>
1.1897

> <Gold.PLP.ligand.clash>
0.0000

> <Gold.PLP.ligand.torsion>
0.4634

> <Gold.PLP.Chemscore.Hbond>
2.0000

> <Gold.PLP.Chemscore.CHOScore>
0.0000

> <Gold.PLP.Chemscore.Metal>
0.0000

> <Gold.Chemscore.Hbonds>
donor molecule, donor type, donor heavy atom, donor atom, acceptor molecule, acceptor atom, score
      L1  H    12    26       P1   582  1.00
      L1  H    14    27       P1   582  1.00

> <Gold.PLP.Chemscore.Internal.Correction>
0.0158

