#       Name:                EN300-200881_i001
#       Creating user name   aseyller
#       Creation time:       Fri Apr 21 16:32:52 2023


#       File generated by GOLD software.
#

@<TRIPOS>MOLECULE
EN300-200881_i001|aminophenols|mol2|49|dock9
    27    27     1
SMALL
USER_CHARGES


@<TRIPOS>ATOM
      1 C1          33.2548  36.4176  35.2537 C.3            1 <1>                0.0000
      2 C2          32.3302  35.9230  36.3679 C.3            1 <1>                0.0000
      3 O3          31.4402  36.9971  36.7708 O.3            1 <1>                0.0000
      4 C4          30.4535  36.6829  37.6250 C.2            1 <1>                0.0000
      5 O5          30.3819  35.5664  38.0809 O.2            1 <1>                0.0000
      6 C6          29.4349  37.7228  38.0150 C.3            1 <1>                0.0000
      7 C7          28.3703  37.0868  38.8711 C.ar           1 <1>                0.0000
      8 C8          27.0744  36.9818  38.3986 C.ar           1 <1>                0.0000
      9 C9          26.0949  36.3988  39.1802 C.ar           1 <1>                0.0000
     10 C10         26.4054  35.9174  40.4386 C.ar           1 <1>                0.0000
     11 C11         27.7024  36.0193  40.9190 C.ar           1 <1>                0.0000
     12 N12         28.0192  35.5330  42.1926 N.pl3          1 <1>                0.0000
     13 C13         28.6905  36.6026  40.1281 C.ar           1 <1>                0.0000
     14 O14         29.9643  36.7053  40.5940 O.3            1 <1>                0.0000
     15 H15         33.8433  37.2601  35.6172 H              1 <1>                0.0000
     16 H16         33.9229  35.6113  34.9512 H              1 <1>                0.0000
     17 H17         32.6569  36.7341  34.3990 H              1 <1>                0.0000
     18 H18         31.7417  35.0806  36.0043 H              1 <1>                0.0000
     19 H19         32.9281  35.6066  37.2225 H              1 <1>                0.0000
     20 H20         29.9249  38.5187  38.5760 H              1 <1>                0.0000
     21 H21         28.9785  38.1392  37.1170 H              1 <1>                0.0000
     22 H22         26.8273  37.3567  37.4162 H              1 <1>                0.0000
     23 H23         25.0845  36.3192  38.8072 H              1 <1>                0.0000
     24 H24         25.6380  35.4627  41.0475 H              1 <1>                0.0000
     25 H25         27.3311  35.1241  42.7405 H              1 <1>                0.0000
     26 H26         28.9268  35.6050  42.5273 H              1 <1>                0.0000
     27 H27         30.3138  35.8847  40.9674 H              1 <1>                0.0000
@<TRIPOS>BOND
    1    1    2 1     
    2    1   15 1     
    3    1   16 1     
    4    1   17 1     
    5    2    3 1     
    6    2   18 1     
    7    2   19 1     
    8    3    4 1     
    9    4    5 2     
   10    4    6 1     
   11    6    7 1     
   12    6   20 1     
   13    6   21 1     
   14    7    8 ar    
   15    7   13 ar    
   16    8    9 ar    
   17    8   22 1     
   18    9   10 ar    
   19    9   23 1     
   20   10   11 ar    
   21   10   24 1     
   22   11   12 1     
   23   11   13 ar    
   24   12   25 1     
   25   12   26 1     
   26   13   14 1     
   27   14   27 1     
@<TRIPOS>SUBSTRUCTURE
      1 ****           1
@<TRIPOS>SET
DONOR_HYDROGENS      STATIC     ATOMS    <user>   **** ""
3 25 26 27
ATOM$RED        STATIC     ATOMS    COLORGROUP SYSTEM
3 25 26 27
@<TRIPOS>COMMENT
> <Gold.Version>
2022.2.0

> <Gold.Id.Protein>
1qkm|1qkm_protein|mol2

> <Gold.Protein.RotatedTorsions>
[  496  491  490  487 ] final -132.32 input  -89.99 | X-H torsion

> <Gold.Protein.ActiveResidues>
 MET295  LEU298  THR299  LEU301  ALA302  GLU305  TRP335  MET336  LEU339  MET340 
 GLY342  LEU343  ARG346  PHE356  ILE373  ILE376  PHE377  LEU380  LYS471  GLY472 
 MET473  HIS475  LEU476  LEU477  ASN478  MET479  VAL484  VAL487 

> <Gold.Protein.RotatedAtoms>
   37.1217   34.1877   40.7417 H   0  0  0  0  0  0  0  0  0  0  0  0  # atno 496  bound_to 491 

> <Gold.Score>
     Score     S(PLP)   S(hbond)     S(cho)   S(metal)  DE(clash)   DE(tors)     intcor
     49.40     -44.00       1.86       0.00       0.00       0.00       0.10       0.02

> <Gold.PLP.Fitness>
49.4045

> <Gold.PLP.PLP>
-44.0002

> <Gold.PLP.part.hbond>
-2.0000

> <Gold.PLP.part.metal>
0.0000

> <Gold.PLP.part.buried>
-3.6380

> <Gold.PLP.part.nonpolar>
-39.2608

> <Gold.PLP.part.repulsive>
0.1193

> <Gold.PLP.ligand.clash>
0.0000

> <Gold.PLP.ligand.torsion>
0.1018

> <Gold.PLP.Chemscore.Hbond>
1.8640

> <Gold.PLP.Chemscore.CHOScore>
0.0000

> <Gold.PLP.Chemscore.Metal>
0.0000

> <Gold.Chemscore.Hbonds>
donor molecule, donor type, donor heavy atom, donor atom, acceptor molecule, acceptor atom, score
      L1  H    12    25       P1   582  1.00
      L1  H    14    27       P1   470  0.86

> <Gold.PLP.Chemscore.Internal.Correction>
0.0158

