#       Name:                EN300-200881_i001
#       Creating user name   aseyller
#       Creation time:       Fri Apr 21 16:32:58 2023


#       File generated by GOLD software.
#

@<TRIPOS>MOLECULE
EN300-200881_i001|aminophenols|mol2|49|dock14
    27    27     1
SMALL
USER_CHARGES


@<TRIPOS>ATOM
      1 C1          30.3500  40.4486  35.8414 C.3            1 <1>                0.0000
      2 C2          29.3265  40.1706  36.9442 C.3            1 <1>                0.0000
      3 O3          28.9007  38.7845  36.8711 O.3            1 <1>                0.0000
      4 C4          29.8150  37.8494  37.1736 C.2            1 <1>                0.0000
      5 O5          30.9846  38.1459  37.2362 O.2            1 <1>                0.0000
      6 C6          29.3827  36.4295  37.4349 C.3            1 <1>                0.0000
      7 C7          28.3657  36.4106  38.5467 C.ar           1 <1>                0.0000
      8 C8          27.0732  36.8421  38.3089 C.ar           1 <1>                0.0000
      9 C9          26.1371  36.8260  39.3257 C.ar           1 <1>                0.0000
     10 C10         26.4880  36.3785  40.5859 C.ar           1 <1>                0.0000
     11 C11         27.7821  35.9446  40.8318 C.ar           1 <1>                0.0000
     12 N12         28.1398  35.4913  42.1068 N.pl3          1 <1>                0.0000
     13 C13         28.7238  35.9562  39.8047 C.ar           1 <1>                0.0000
     14 O14         29.9945  35.5317  40.0399 O.3            1 <1>                0.0000
     15 H15         29.8965  40.2586  34.8686 H              1 <1>                0.0000
     16 H16         30.6696  41.4892  35.8963 H              1 <1>                0.0000
     17 H17         31.2130  39.7960  35.9737 H              1 <1>                0.0000
     18 H18         29.7800  40.3607  37.9170 H              1 <1>                0.0000
     19 H19         28.4636  40.8233  36.8119 H              1 <1>                0.0000
     20 H20         28.9401  36.0123  36.5304 H              1 <1>                0.0000
     21 H21         30.2483  35.8336  37.7240 H              1 <1>                0.0000
     22 H22         26.7947  37.1927  37.3260 H              1 <1>                0.0000
     23 H23         25.1292  37.1640  39.1354 H              1 <1>                0.0000
     24 H24         25.7548  36.3674  41.3788 H              1 <1>                0.0000
     25 H25         27.4823  35.4804  42.8198 H              1 <1>                0.0000
     26 H26         29.0453  35.1880  42.2773 H              1 <1>                0.0000
     27 H27         30.2182  35.4612  40.9780 H              1 <1>                0.0000
@<TRIPOS>BOND
    1    1    2 1     
    2    1   15 1     
    3    1   16 1     
    4    1   17 1     
    5    2    3 1     
    6    2   18 1     
    7    2   19 1     
    8    3    4 1     
    9    4    5 2     
   10    4    6 1     
   11    6    7 1     
   12    6   20 1     
   13    6   21 1     
   14    7    8 ar    
   15    7   13 ar    
   16    8    9 ar    
   17    8   22 1     
   18    9   10 ar    
   19    9   23 1     
   20   10   11 ar    
   21   10   24 1     
   22   11   12 1     
   23   11   13 ar    
   24   12   25 1     
   25   12   26 1     
   26   13   14 1     
   27   14   27 1     
@<TRIPOS>SUBSTRUCTURE
      1 ****           1
@<TRIPOS>SET
DONOR_HYDROGENS      STATIC     ATOMS    <user>   **** ""
3 25 26 27
ATOM$RED        STATIC     ATOMS    COLORGROUP SYSTEM
3 25 26 27
@<TRIPOS>COMMENT
> <Gold.Version>
2022.2.0

> <Gold.Id.Protein>
1qkm|1qkm_protein|mol2

> <Gold.Protein.RotatedTorsions>
[  496  491  490  487 ] final   10.78 input  -89.99 | X-H torsion

> <Gold.Protein.ActiveResidues>
 MET295  LEU298  THR299  LEU301  ALA302  GLU305  TRP335  MET336  LEU339  MET340 
 GLY342  LEU343  ARG346  PHE356  ILE373  ILE376  PHE377  LEU380  LYS471  GLY472 
 MET473  HIS475  LEU476  LEU477  ASN478  MET479  VAL484  VAL487 

> <Gold.Protein.RotatedAtoms>
   36.2749   34.0544   42.3123 H   0  0  0  0  0  0  0  0  0  0  0  0  # atno 496  bound_to 491 

> <Gold.Score>
     Score     S(PLP)   S(hbond)     S(cho)   S(metal)  DE(clash)   DE(tors)     intcor
     47.19     -42.64       1.76       0.00       0.00       0.00       0.37       0.01

> <Gold.PLP.Fitness>
47.1862

> <Gold.PLP.PLP>
-42.6440

> <Gold.PLP.part.hbond>
-2.0000

> <Gold.PLP.part.metal>
0.0000

> <Gold.PLP.part.buried>
-4.3562

> <Gold.PLP.part.nonpolar>
-37.2153

> <Gold.PLP.part.repulsive>
0.0860

> <Gold.PLP.ligand.clash>
0.0000

> <Gold.PLP.ligand.torsion>
0.3715

> <Gold.PLP.Chemscore.Hbond>
1.7600

> <Gold.PLP.Chemscore.CHOScore>
0.0000

> <Gold.PLP.Chemscore.Metal>
0.0000

> <Gold.Chemscore.Hbonds>
donor molecule, donor type, donor heavy atom, donor atom, acceptor molecule, acceptor atom, score
      L1  H    12    25       P1   582  0.99
      L1  H    14    27       P1   470  0.77

> <Gold.PLP.Chemscore.Internal.Correction>
0.0053

