#       Name:                EN300-200881_i001
#       Creating user name   aseyller
#       Creation time:       Fri Apr 21 16:33:05 2023


#       File generated by GOLD software.
#

@<TRIPOS>MOLECULE
EN300-200881_i001|aminophenols|mol2|49|dock19
    27    27     1
SMALL
USER_CHARGES


@<TRIPOS>ATOM
      1 C1          31.7058  37.8904  34.3060 C.3            1 <1>                0.0000
      2 C2          31.1730  38.4149  35.6409 C.3            1 <1>                0.0000
      3 O3          29.9433  37.7203  35.9778 O.3            1 <1>                0.0000
      4 C4          29.2479  38.1865  37.0270 C.2            1 <1>                0.0000
      5 O5          29.6978  39.0838  37.6994 O.2            1 <1>                0.0000
      6 C6          27.9060  37.5905  37.3665 C.3            1 <1>                0.0000
      7 C7          27.9522  37.0076  38.7553 C.ar           1 <1>                0.0000
      8 C8          29.1403  36.5059  39.2556 C.ar           1 <1>                0.0000
      9 C9          29.1872  35.9708  40.5290 C.ar           1 <1>                0.0000
     10 C10         28.0466  35.9342  41.3096 C.ar           1 <1>                0.0000
     11 C11         26.8518  36.4352  40.8147 C.ar           1 <1>                0.0000
     12 N12         25.6957  36.3990  41.6028 N.pl3          1 <1>                0.0000
     13 C13         26.8066  36.9793  39.5326 C.ar           1 <1>                0.0000
     14 O14         25.6377  37.4721  39.0419 O.3            1 <1>                0.0000
     15 H15         30.9649  38.0640  33.5256 H              1 <1>                0.0000
     16 H16         32.6289  38.4118  34.0531 H              1 <1>                0.0000
     17 H17         31.9031  36.8215  34.3883 H              1 <1>                0.0000
     18 H18         31.9140  38.2413  36.4212 H              1 <1>                0.0000
     19 H19         30.9757  39.4838  35.5585 H              1 <1>                0.0000
     20 H20         27.1423  38.3670  37.3235 H              1 <1>                0.0000
     21 H21         27.6658  36.8047  36.6504 H              1 <1>                0.0000
     22 H22         30.0337  36.5323  38.6493 H              1 <1>                0.0000
     23 H23         30.1170  35.5801  40.9153 H              1 <1>                0.0000
     24 H24         28.0859  35.5151  42.3042 H              1 <1>                0.0000
     25 H25         25.7295  36.0232  42.4964 H              1 <1>                0.0000
     26 H26         24.8607  36.7498  41.2554 H              1 <1>                0.0000
     27 H27         24.8587  36.9548  39.2879 H              1 <1>                0.0000
@<TRIPOS>BOND
    1    1    2 1     
    2    1   15 1     
    3    1   16 1     
    4    1   17 1     
    5    2    3 1     
    6    2   18 1     
    7    2   19 1     
    8    3    4 1     
    9    4    5 2     
   10    4    6 1     
   11    6    7 1     
   12    6   20 1     
   13    6   21 1     
   14    7    8 ar    
   15    7   13 ar    
   16    8    9 ar    
   17    8   22 1     
   18    9   10 ar    
   19    9   23 1     
   20   10   11 ar    
   21   10   24 1     
   22   11   12 1     
   23   11   13 ar    
   24   12   25 1     
   25   12   26 1     
   26   13   14 1     
   27   14   27 1     
@<TRIPOS>SUBSTRUCTURE
      1 ****           1
@<TRIPOS>SET
DONOR_HYDROGENS      STATIC     ATOMS    <user>   **** ""
3 25 26 27
ATOM$RED        STATIC     ATOMS    COLORGROUP SYSTEM
3 25 26 27
@<TRIPOS>COMMENT
> <Gold.Version>
2022.2.0

> <Gold.Id.Protein>
1qkm|1qkm_protein|mol2

> <Gold.Protein.RotatedTorsions>
[  496  491  490  487 ] final   -3.89 input  -89.99 | X-H torsion

> <Gold.Protein.ActiveResidues>
 MET295  LEU298  THR299  LEU301  ALA302  GLU305  TRP335  MET336  LEU339  MET340 
 GLY342  LEU343  ARG346  PHE356  ILE373  ILE376  PHE377  LEU380  LYS471  GLY472 
 MET473  HIS475  LEU476  LEU477  ASN478  MET479  VAL484  VAL487 

> <Gold.Protein.RotatedAtoms>
   36.2588   34.2681   42.2024 H   0  0  0  0  0  0  0  0  0  0  0  0  # atno 496  bound_to 491 

> <Gold.Score>
     Score     S(PLP)   S(hbond)     S(cho)   S(metal)  DE(clash)   DE(tors)     intcor
     44.59     -42.43       1.00       0.00       0.00       0.00       0.42       0.01

> <Gold.PLP.Fitness>
44.5923

> <Gold.PLP.PLP>
-42.4275

> <Gold.PLP.part.hbond>
-1.0000

> <Gold.PLP.part.metal>
0.0000

> <Gold.PLP.part.buried>
-3.7559

> <Gold.PLP.part.nonpolar>
-37.9867

> <Gold.PLP.part.repulsive>
0.0867

> <Gold.PLP.ligand.clash>
0.0000

> <Gold.PLP.ligand.torsion>
0.4202

> <Gold.PLP.Chemscore.Hbond>
1.0000

> <Gold.PLP.Chemscore.CHOScore>
0.0000

> <Gold.PLP.Chemscore.Metal>
0.0000

> <Gold.Chemscore.Hbonds>
donor molecule, donor type, donor heavy atom, donor atom, acceptor molecule, acceptor atom, score
      L1  H    12    25       P1   582  1.00

> <Gold.PLP.Chemscore.Internal.Correction>
0.0053

