#       Name:                EN300-200881_i001
#       Creating user name   aseyller
#       Creation time:       Fri Apr 21 16:33:01 2023


#       File generated by GOLD software.
#

@<TRIPOS>MOLECULE
EN300-200881_i001|aminophenols|mol2|49|dock16
    27    27     1
SMALL
USER_CHARGES


@<TRIPOS>ATOM
      1 C1          30.6216  39.7291  35.6018 C.3            1 <1>                0.0000
      2 C2          29.5349  40.3672  36.4693 C.3            1 <1>                0.0000
      3 O3          28.4929  39.3916  36.7351 O.3            1 <1>                0.0000
      4 C4          28.8669  38.2462  37.3267 C.2            1 <1>                0.0000
      5 O5          29.9946  38.1210  37.7420 O.2            1 <1>                0.0000
      6 C6          27.8805  37.1163  37.4726 C.3            1 <1>                0.0000
      7 C7          27.5161  36.9521  38.9256 C.ar           1 <1>                0.0000
      8 C8          26.2279  37.2234  39.3503 C.ar           1 <1>                0.0000
      9 C9          25.8893  37.0737  40.6819 C.ar           1 <1>                0.0000
     10 C10         26.8366  36.6520  41.5964 C.ar           1 <1>                0.0000
     11 C11         28.1302  36.3783  41.1779 C.ar           1 <1>                0.0000
     12 N12         29.0911  35.9514  42.1018 N.pl3          1 <1>                0.0000
     13 C13         28.4693  36.5245  39.8342 C.ar           1 <1>                0.0000
     14 O14         29.7364  36.2575  39.4179 O.3            1 <1>                0.0000
     15 H15         30.1860  39.3970  34.6594 H              1 <1>                0.0000
     16 H16         31.4039  40.4614  35.4023 H              1 <1>                0.0000
     17 H17         31.0494  38.8741  36.1255 H              1 <1>                0.0000
     18 H18         29.9706  40.6992  37.4116 H              1 <1>                0.0000
     19 H19         29.1073  41.2221  35.9456 H              1 <1>                0.0000
     20 H20         26.9830  37.3409  36.8960 H              1 <1>                0.0000
     21 H21         28.3279  36.1935  37.1036 H              1 <1>                0.0000
     22 H22         25.4847  37.5533  38.6394 H              1 <1>                0.0000
     23 H23         24.8823  37.2868  41.0089 H              1 <1>                0.0000
     24 H24         26.5695  36.5362  42.6364 H              1 <1>                0.0000
     25 H25         28.8526  35.8467  43.0361 H              1 <1>                0.0000
     26 H26         29.9955  35.7603  41.8076 H              1 <1>                0.0000
     27 H27         30.3080  35.8920  40.1070 H              1 <1>                0.0000
@<TRIPOS>BOND
    1    1    2 1     
    2    1   15 1     
    3    1   16 1     
    4    1   17 1     
    5    2    3 1     
    6    2   18 1     
    7    2   19 1     
    8    3    4 1     
    9    4    5 2     
   10    4    6 1     
   11    6    7 1     
   12    6   20 1     
   13    6   21 1     
   14    7    8 ar    
   15    7   13 ar    
   16    8    9 ar    
   17    8   22 1     
   18    9   10 ar    
   19    9   23 1     
   20   10   11 ar    
   21   10   24 1     
   22   11   12 1     
   23   11   13 ar    
   24   12   25 1     
   25   12   26 1     
   26   13   14 1     
   27   14   27 1     
@<TRIPOS>SUBSTRUCTURE
      1 ****           1
@<TRIPOS>SET
DONOR_HYDROGENS      STATIC     ATOMS    <user>   **** ""
3 25 26 27
ATOM$RED        STATIC     ATOMS    COLORGROUP SYSTEM
3 25 26 27
@<TRIPOS>COMMENT
> <Gold.Version>
2022.2.0

> <Gold.Id.Protein>
1qkm|1qkm_protein|mol2

> <Gold.Protein.RotatedTorsions>
[  496  491  490  487 ] final  -55.09 input  -89.99 | X-H torsion

> <Gold.Protein.ActiveResidues>
 MET295  LEU298  THR299  LEU301  ALA302  GLU305  TRP335  MET336  LEU339  MET340 
 GLY342  LEU343  ARG346  PHE356  ILE373  ILE376  PHE377  LEU380  LYS471  GLY472 
 MET473  HIS475  LEU476  LEU477  ASN478  MET479  VAL484  VAL487 

> <Gold.Protein.RotatedAtoms>
   36.4602   34.7217   41.5559 H   0  0  0  0  0  0  0  0  0  0  0  0  # atno 496  bound_to 491 

> <Gold.Score>
     Score     S(PLP)   S(hbond)     S(cho)   S(metal)  DE(clash)   DE(tors)     intcor
     48.20     -45.61       1.00       0.00       0.00       0.02       0.20       0.01

> <Gold.PLP.Fitness>
48.2046

> <Gold.PLP.PLP>
-45.6074

> <Gold.PLP.part.hbond>
-1.0000

> <Gold.PLP.part.metal>
0.0000

> <Gold.PLP.part.buried>
-4.3558

> <Gold.PLP.part.nonpolar>
-41.3803

> <Gold.PLP.part.repulsive>
0.0957

> <Gold.PLP.ligand.clash>
0.0181

> <Gold.PLP.ligand.torsion>
0.1950

> <Gold.PLP.Chemscore.Hbond>
1.0000

> <Gold.PLP.Chemscore.CHOScore>
0.0000

> <Gold.PLP.Chemscore.Metal>
0.0000

> <Gold.Chemscore.Hbonds>
donor molecule, donor type, donor heavy atom, donor atom, acceptor molecule, acceptor atom, score
      L1  H    12    26       P1   470  1.00

> <Gold.PLP.Chemscore.Internal.Correction>
0.0053

