#       Name:                EN300-200881_i001
#       Creating user name   aseyller
#       Creation time:       Fri Apr 21 16:32:41 2023


#       File generated by GOLD software.
#

@<TRIPOS>MOLECULE
EN300-200881_i001|aminophenols|mol2|49|dock1
    27    27     1
SMALL
USER_CHARGES


@<TRIPOS>ATOM
      1 C1          32.9912  35.5200  37.4506 C.3            1 <1>                0.0000
      2 C2          31.8183  34.5530  37.6235 C.3            1 <1>                0.0000
      3 O3          31.1366  34.8375  38.8735 O.3            1 <1>                0.0000
      4 C4          30.5749  36.0502  38.9990 C.2            1 <1>                0.0000
      5 O5          30.6781  36.8589  38.1074 O.2            1 <1>                0.0000
      6 C6          29.8157  36.4029  40.2521 C.3            1 <1>                0.0000
      7 C7          28.3633  36.6208  39.9149 C.ar           1 <1>                0.0000
      8 C8          28.0120  37.1806  38.6997 C.ar           1 <1>                0.0000
      9 C9          26.6810  37.3818  38.3862 C.ar           1 <1>                0.0000
     10 C10         25.6937  37.0244  39.2857 C.ar           1 <1>                0.0000
     11 C11         26.0384  36.4628  40.5060 C.ar           1 <1>                0.0000
     12 N12         25.0408  36.1004  41.4184 N.pl3          1 <1>                0.0000
     13 C13         27.3804  36.2555  40.8191 C.ar           1 <1>                0.0000
     14 O14         27.7244  35.7050  42.0144 O.3            1 <1>                0.0000
     15 H15         33.6878  35.3983  38.2802 H              1 <1>                0.0000
     16 H16         33.5030  35.3064  36.5122 H              1 <1>                0.0000
     17 H17         32.6187  36.5443  37.4363 H              1 <1>                0.0000
     18 H18         31.1218  34.6747  36.7939 H              1 <1>                0.0000
     19 H19         32.1909  33.5287  37.6377 H              1 <1>                0.0000
     20 H20         29.9036  35.5886  40.9714 H              1 <1>                0.0000
     21 H21         30.2294  37.3146  40.6830 H              1 <1>                0.0000
     22 H22         28.7799  37.4615  37.9940 H              1 <1>                0.0000
     23 H23         26.4115  37.8194  37.4363 H              1 <1>                0.0000
     24 H24         24.6545  37.1831  39.0384 H              1 <1>                0.0000
     25 H25         24.1070  36.2420  41.1976 H              1 <1>                0.0000
     26 H26         25.2834  35.7076  42.2716 H              1 <1>                0.0000
     27 H27         26.9709  35.5023  42.5854 H              1 <1>                0.0000
@<TRIPOS>BOND
    1    1    2 1     
    2    1   15 1     
    3    1   16 1     
    4    1   17 1     
    5    2    3 1     
    6    2   18 1     
    7    2   19 1     
    8    3    4 1     
    9    4    5 2     
   10    4    6 1     
   11    6    7 1     
   12    6   20 1     
   13    6   21 1     
   14    7    8 ar    
   15    7   13 ar    
   16    8    9 ar    
   17    8   22 1     
   18    9   10 ar    
   19    9   23 1     
   20   10   11 ar    
   21   10   24 1     
   22   11   12 1     
   23   11   13 ar    
   24   12   25 1     
   25   12   26 1     
   26   13   14 1     
   27   14   27 1     
@<TRIPOS>SUBSTRUCTURE
      1 ****           1
@<TRIPOS>SET
DONOR_HYDROGENS      STATIC     ATOMS    <user>   **** ""
3 25 26 27
ATOM$RED        STATIC     ATOMS    COLORGROUP SYSTEM
3 25 26 27
@<TRIPOS>COMMENT
> <Gold.Version>
2022.2.0

> <Gold.Id.Protein>
1qkm|1qkm_protein|mol2

> <Gold.Protein.RotatedTorsions>
[  496  491  490  487 ] final  -58.02 input  -89.99 | X-H torsion

> <Gold.Protein.ActiveResidues>
 MET295  LEU298  THR299  LEU301  ALA302  GLU305  TRP335  MET336  LEU339  MET340 
 GLY342  LEU343  ARG346  PHE356  ILE373  ILE376  PHE377  LEU380  LYS471  GLY472 
 MET473  HIS475  LEU476  LEU477  ASN478  MET479  VAL484  VAL487 

> <Gold.Protein.RotatedAtoms>
   36.4819   34.7286   41.5134 H   0  0  0  0  0  0  0  0  0  0  0  0  # atno 496  bound_to 491 

> <Gold.Score>
     Score     S(PLP)   S(hbond)     S(cho)   S(metal)  DE(clash)   DE(tors)     intcor
     53.49     -46.27       2.65       0.00       0.00       0.00       0.38       0.04

> <Gold.PLP.Fitness>
53.4929

> <Gold.PLP.PLP>
-46.2664

> <Gold.PLP.part.hbond>
-3.0000

> <Gold.PLP.part.metal>
0.0000

> <Gold.PLP.part.buried>
-4.6238

> <Gold.PLP.part.nonpolar>
-40.7632

> <Gold.PLP.part.repulsive>
0.2686

> <Gold.PLP.ligand.clash>
0.0003

> <Gold.PLP.ligand.torsion>
0.3846

> <Gold.PLP.Chemscore.Hbond>
2.6536

> <Gold.PLP.Chemscore.CHOScore>
0.0000

> <Gold.PLP.Chemscore.Metal>
0.0000

> <Gold.Chemscore.Hbonds>
donor molecule, donor type, donor heavy atom, donor atom, acceptor molecule, acceptor atom, score
      L1  H    12    25       P1  1131  0.68
      L1  H    12    26       P1   582  0.98
      L1  H    14    27       P1   582  1.00

> <Gold.PLP.Chemscore.Internal.Correction>
0.0351

