#       Name:                EN300-200881_i001
#       Creating user name   aseyller
#       Creation time:       Fri Apr 21 16:33:03 2023


#       File generated by GOLD software.
#

@<TRIPOS>MOLECULE
EN300-200881_i001|aminophenols|mol2|49|dock17
    27    27     1
SMALL
USER_CHARGES


@<TRIPOS>ATOM
      1 C1          30.0516  40.0074  36.9173 C.3            1 <1>                0.0000
      2 C2          30.5588  38.5667  37.0069 C.3            1 <1>                0.0000
      3 O3          30.1263  37.9785  38.2619 O.3            1 <1>                0.0000
      4 C4          30.2666  36.6499  38.3926 C.2            1 <1>                0.0000
      5 O5          30.9336  36.0317  37.5971 O.2            1 <1>                0.0000
      6 C6          29.5921  35.9293  39.5313 C.3            1 <1>                0.0000
      7 C7          28.1636  36.3957  39.6450 C.ar           1 <1>                0.0000
      8 C8          27.5602  37.0411  38.5807 C.ar           1 <1>                0.0000
      9 C9          26.2502  37.4701  38.6805 C.ar           1 <1>                0.0000
     10 C10         25.5360  37.2563  39.8449 C.ar           1 <1>                0.0000
     11 C11         26.1344  36.6100  40.9161 C.ar           1 <1>                0.0000
     12 N12         25.4136  36.3925  42.0960 N.pl3          1 <1>                0.0000
     13 C13         27.4536  36.1731  40.8127 C.ar           1 <1>                0.0000
     14 O14         28.0458  35.5387  41.8601 O.3            1 <1>                0.0000
     15 H15         30.4546  40.5867  37.7480 H              1 <1>                0.0000
     16 H16         30.3763  40.4490  35.9751 H              1 <1>                0.0000
     17 H17         28.9626  40.0129  36.9650 H              1 <1>                0.0000
     18 H18         30.1558  37.9874  36.1761 H              1 <1>                0.0000
     19 H19         31.6477  38.5612  36.9591 H              1 <1>                0.0000
     20 H20         29.6100  34.8558  39.3434 H              1 <1>                0.0000
     21 H21         30.1195  36.1443  40.4606 H              1 <1>                0.0000
     22 H22         28.1144  37.2105  37.6692 H              1 <1>                0.0000
     23 H23         25.7833  37.9738  37.8470 H              1 <1>                0.0000
     24 H24         24.5125  37.5928  39.9204 H              1 <1>                0.0000
     25 H25         24.4943  36.6939  42.1652 H              1 <1>                0.0000
     26 H26         25.8335  35.9403  42.8445 H              1 <1>                0.0000
     27 H27         27.4264  35.2392  42.5395 H              1 <1>                0.0000
@<TRIPOS>BOND
    1    1    2 1     
    2    1   15 1     
    3    1   16 1     
    4    1   17 1     
    5    2    3 1     
    6    2   18 1     
    7    2   19 1     
    8    3    4 1     
    9    4    5 2     
   10    4    6 1     
   11    6    7 1     
   12    6   20 1     
   13    6   21 1     
   14    7    8 ar    
   15    7   13 ar    
   16    8    9 ar    
   17    8   22 1     
   18    9   10 ar    
   19    9   23 1     
   20   10   11 ar    
   21   10   24 1     
   22   11   12 1     
   23   11   13 ar    
   24   12   25 1     
   25   12   26 1     
   26   13   14 1     
   27   14   27 1     
@<TRIPOS>SUBSTRUCTURE
      1 ****           1
@<TRIPOS>SET
DONOR_HYDROGENS      STATIC     ATOMS    <user>   **** ""
3 25 26 27
ATOM$RED        STATIC     ATOMS    COLORGROUP SYSTEM
3 25 26 27
@<TRIPOS>COMMENT
> <Gold.Version>
2022.2.0

> <Gold.Id.Protein>
1qkm|1qkm_protein|mol2

> <Gold.Protein.RotatedTorsions>
[  496  491  490  487 ] final   12.57 input  -89.99 | X-H torsion

> <Gold.Protein.ActiveResidues>
 MET295  LEU298  THR299  LEU301  ALA302  GLU305  TRP335  MET336  LEU339  MET340 
 GLY342  LEU343  ARG346  PHE356  ILE373  ILE376  PHE377  LEU380  LYS471  GLY472 
 MET473  HIS475  LEU476  LEU477  ASN478  MET479  VAL484  VAL487 

> <Gold.Protein.RotatedAtoms>
   36.2793   34.0270   42.3225 H   0  0  0  0  0  0  0  0  0  0  0  0  # atno 496  bound_to 491 

> <Gold.Score>
     Score     S(PLP)   S(hbond)     S(cho)   S(metal)  DE(clash)   DE(tors)     intcor
     51.01     -46.50       2.00       0.00       0.00       0.33       0.59       0.01

> <Gold.PLP.Fitness>
51.0084

> <Gold.PLP.PLP>
-46.5014

> <Gold.PLP.part.hbond>
-2.0000

> <Gold.PLP.part.metal>
0.0000

> <Gold.PLP.part.buried>
-5.5410

> <Gold.PLP.part.nonpolar>
-41.2181

> <Gold.PLP.part.repulsive>
1.5176

> <Gold.PLP.ligand.clash>
0.3258

> <Gold.PLP.ligand.torsion>
0.5863

> <Gold.PLP.Chemscore.Hbond>
2.0000

> <Gold.PLP.Chemscore.CHOScore>
0.0000

> <Gold.PLP.Chemscore.Metal>
0.0000

> <Gold.Chemscore.Hbonds>
donor molecule, donor type, donor heavy atom, donor atom, acceptor molecule, acceptor atom, score
      L1  H    12    26       P1   582  1.00
      L1  H    14    27       P1   582  1.00

> <Gold.PLP.Chemscore.Internal.Correction>
0.0053

