#       Name:                EN300-200881_i001
#       Creating user name   aseyller
#       Creation time:       Fri Apr 21 16:32:49 2023


#       File generated by GOLD software.
#

@<TRIPOS>MOLECULE
EN300-200881_i001|aminophenols|mol2|49|dock7
    27    27     1
SMALL
USER_CHARGES


@<TRIPOS>ATOM
      1 C1          30.7799  37.9747  35.7061 C.3            1 <1>                0.0000
      2 C2          31.0902  36.8454  36.6906 C.3            1 <1>                0.0000
      3 O3          30.4441  37.1201  37.9615 O.3            1 <1>                0.0000
      4 C4          30.3383  36.0977  38.8249 C.2            1 <1>                0.0000
      5 O5          30.8080  35.0201  38.5457 O.2            1 <1>                0.0000
      6 C6          29.6335  36.2939  40.1424 C.3            1 <1>                0.0000
      7 C7          28.1799  36.6035  39.8933 C.ar           1 <1>                0.0000
      8 C8          27.8036  37.2792  38.7464 C.ar           1 <1>                0.0000
      9 C9          26.4714  37.5647  38.5137 C.ar           1 <1>                0.0000
     10 C10         25.5081  37.1765  39.4263 C.ar           1 <1>                0.0000
     11 C11         25.8780  36.4988  40.5784 C.ar           1 <1>                0.0000
     12 N12         24.9046  36.1048  41.5038 N.pl3          1 <1>                0.0000
     13 C13         27.2208  36.2067  40.8096 C.ar           1 <1>                0.0000
     14 O14         27.5895  35.5423  41.9378 O.3            1 <1>                0.0000
     15 H15         31.1515  38.9180  36.1062 H              1 <1>                0.0000
     16 H16         31.2649  37.7685  34.7520 H              1 <1>                0.0000
     17 H17         29.7020  38.0422  35.5585 H              1 <1>                0.0000
     18 H18         30.7185  35.9021  36.2903 H              1 <1>                0.0000
     19 H19         32.1681  36.7779  36.8380 H              1 <1>                0.0000
     20 H20         29.7145  35.3838  40.7368 H              1 <1>                0.0000
     21 H21         30.0943  37.1219  40.6811 H              1 <1>                0.0000
     22 H22         28.5528  37.5846  38.0309 H              1 <1>                0.0000
     23 H23         26.1823  38.0927  37.6170 H              1 <1>                0.0000
     24 H24         24.4679  37.4012  39.2423 H              1 <1>                0.0000
     25 H25         23.9700  36.3057  41.3398 H              1 <1>                0.0000
     26 H26         25.1648  35.6309  42.3092 H              1 <1>                0.0000
     27 H27         26.8552  35.3429  42.5345 H              1 <1>                0.0000
@<TRIPOS>BOND
    1    1    2 1     
    2    1   15 1     
    3    1   16 1     
    4    1   17 1     
    5    2    3 1     
    6    2   18 1     
    7    2   19 1     
    8    3    4 1     
    9    4    5 2     
   10    4    6 1     
   11    6    7 1     
   12    6   20 1     
   13    6   21 1     
   14    7    8 ar    
   15    7   13 ar    
   16    8    9 ar    
   17    8   22 1     
   18    9   10 ar    
   19    9   23 1     
   20   10   11 ar    
   21   10   24 1     
   22   11   12 1     
   23   11   13 ar    
   24   12   25 1     
   25   12   26 1     
   26   13   14 1     
   27   14   27 1     
@<TRIPOS>SUBSTRUCTURE
      1 ****           1
@<TRIPOS>SET
DONOR_HYDROGENS      STATIC     ATOMS    <user>   **** ""
3 25 26 27
ATOM$RED        STATIC     ATOMS    COLORGROUP SYSTEM
3 25 26 27
@<TRIPOS>COMMENT
> <Gold.Version>
2022.2.0

> <Gold.Id.Protein>
1qkm|1qkm_protein|mol2

> <Gold.Protein.RotatedTorsions>
[  496  491  490  487 ] final   42.77 input  -89.99 | X-H torsion

> <Gold.Protein.ActiveResidues>
 MET295  LEU298  THR299  LEU301  ALA302  GLU305  TRP335  MET336  LEU339  MET340 
 GLY342  LEU343  ARG346  PHE356  ILE373  ILE376  PHE377  LEU380  LYS471  GLY472 
 MET473  HIS475  LEU476  LEU477  ASN478  MET479  VAL484  VAL487 

> <Gold.Protein.RotatedAtoms>
   36.4218   33.5598   42.3749 H   0  0  0  0  0  0  0  0  0  0  0  0  # atno 496  bound_to 491 

> <Gold.Score>
     Score     S(PLP)   S(hbond)     S(cho)   S(metal)  DE(clash)   DE(tors)     intcor
     50.98     -44.33       2.51       0.00       0.00       0.00       0.46       0.02

> <Gold.PLP.Fitness>
50.9755

> <Gold.PLP.PLP>
-44.3337

> <Gold.PLP.part.hbond>
-3.0000

> <Gold.PLP.part.metal>
0.0000

> <Gold.PLP.part.buried>
-4.6534

> <Gold.PLP.part.nonpolar>
-37.3701

> <Gold.PLP.part.repulsive>
0.3623

> <Gold.PLP.ligand.clash>
0.0000

> <Gold.PLP.ligand.torsion>
0.4584

> <Gold.PLP.Chemscore.Hbond>
2.5143

> <Gold.PLP.Chemscore.CHOScore>
0.0000

> <Gold.PLP.Chemscore.Metal>
0.0000

> <Gold.Chemscore.Hbonds>
donor molecule, donor type, donor heavy atom, donor atom, acceptor molecule, acceptor atom, score
      L1  H    12    25       P1  1131  0.51
      L1  H    12    26       P1   582  1.00
      L1  H    14    27       P1   582  1.00

> <Gold.PLP.Chemscore.Internal.Correction>
0.0158

