#       Name:                EN300-200881_i001
#       Creating user name   aseyller
#       Creation time:       Fri Apr 21 16:32:46 2023


#       File generated by GOLD software.
#

@<TRIPOS>MOLECULE
EN300-200881_i001|aminophenols|mol2|49|dock5
    27    27     1
SMALL
USER_CHARGES


@<TRIPOS>ATOM
      1 C1          31.5129  37.0410  35.2923 C.3            1 <1>                0.0000
      2 C2          32.4428  36.3524  36.2932 C.3            1 <1>                0.0000
      3 O3          31.6502  35.6417  37.2805 O.3            1 <1>                0.0000
      4 C4          30.9463  36.3864  38.1476 C.2            1 <1>                0.0000
      5 O5          30.8039  37.5699  37.9509 O.2            1 <1>                0.0000
      6 C6          30.3339  35.7462  39.3667 C.3            1 <1>                0.0000
      7 C7          28.8965  36.1804  39.4936 C.ar           1 <1>                0.0000
      8 C8          28.2234  36.6742  38.3906 C.ar           1 <1>                0.0000
      9 C9          26.9049  37.0731  38.5024 C.ar           1 <1>                0.0000
     10 C10         26.2517  36.9807  39.7175 C.ar           1 <1>                0.0000
     11 C11         26.9202  36.4867  40.8277 C.ar           1 <1>                0.0000
     12 N12         26.2613  36.3923  42.0590 N.pl3          1 <1>                0.0000
     13 C13         28.2480  36.0798  40.7128 C.ar           1 <1>                0.0000
     14 O14         28.9087  35.5945  41.7982 O.3            1 <1>                0.0000
     15 H15         30.8707  37.7468  35.8190 H              1 <1>                0.0000
     16 H16         32.1080  37.5746  34.5511 H              1 <1>                0.0000
     17 H17         30.8975  36.2923  34.7935 H              1 <1>                0.0000
     18 H18         33.0850  35.6467  35.7664 H              1 <1>                0.0000
     19 H19         33.0583  37.1012  36.7919 H              1 <1>                0.0000
     20 H20         30.3785  34.6615  39.2686 H              1 <1>                0.0000
     21 H21         30.8861  36.0536  40.2547 H              1 <1>                0.0000
     22 H22         28.7297  36.7484  37.4394 H              1 <1>                0.0000
     23 H23         26.3835  37.4583  37.6385 H              1 <1>                0.0000
     24 H24         25.2215  37.2935  39.8022 H              1 <1>                0.0000
     25 H25         25.3359  36.6726  42.1366 H              1 <1>                0.0000
     26 H26         26.7301  36.0466  42.8346 H              1 <1>                0.0000
     27 H27         29.8622  35.5003  41.6686 H              1 <1>                0.0000
@<TRIPOS>BOND
    1    1    2 1     
    2    1   15 1     
    3    1   16 1     
    4    1   17 1     
    5    2    3 1     
    6    2   18 1     
    7    2   19 1     
    8    3    4 1     
    9    4    5 2     
   10    4    6 1     
   11    6    7 1     
   12    6   20 1     
   13    6   21 1     
   14    7    8 ar    
   15    7   13 ar    
   16    8    9 ar    
   17    8   22 1     
   18    9   10 ar    
   19    9   23 1     
   20   10   11 ar    
   21   10   24 1     
   22   11   12 1     
   23   11   13 ar    
   24   12   25 1     
   25   12   26 1     
   26   13   14 1     
   27   14   27 1     
@<TRIPOS>SUBSTRUCTURE
      1 ****           1
@<TRIPOS>SET
DONOR_HYDROGENS      STATIC     ATOMS    <user>   **** ""
3 25 26 27
ATOM$RED        STATIC     ATOMS    COLORGROUP SYSTEM
3 25 26 27
@<TRIPOS>COMMENT
> <Gold.Version>
2022.2.0

> <Gold.Id.Protein>
1qkm|1qkm_protein|mol2

> <Gold.Protein.RotatedTorsions>
[  496  491  490  487 ] final  -33.04 input  -89.99 | X-H torsion

> <Gold.Protein.ActiveResidues>
 MET295  LEU298  THR299  LEU301  ALA302  GLU305  TRP335  MET336  LEU339  MET340 
 GLY342  LEU343  ARG346  PHE356  ILE373  ILE376  PHE377  LEU380  LYS471  GLY472 
 MET473  HIS475  LEU476  LEU477  ASN478  MET479  VAL484  VAL487 

> <Gold.Protein.RotatedAtoms>
   36.3281   34.5975   41.8678 H   0  0  0  0  0  0  0  0  0  0  0  0  # atno 496  bound_to 491 

> <Gold.Score>
     Score     S(PLP)   S(hbond)     S(cho)   S(metal)  DE(clash)   DE(tors)     intcor
     47.88     -44.77       1.43       0.00       0.00       0.04       0.58       0.02

> <Gold.PLP.Fitness>
47.8766

> <Gold.PLP.PLP>
-44.7688

> <Gold.PLP.part.hbond>
-2.3601

> <Gold.PLP.part.metal>
0.0000

> <Gold.PLP.part.buried>
-4.5927

> <Gold.PLP.part.nonpolar>
-38.3986

> <Gold.PLP.part.repulsive>
0.0852

> <Gold.PLP.ligand.clash>
0.0421

> <Gold.PLP.ligand.torsion>
0.5810

> <Gold.PLP.Chemscore.Hbond>
1.4320

> <Gold.PLP.Chemscore.CHOScore>
0.0000

> <Gold.PLP.Chemscore.Metal>
0.0000

> <Gold.Chemscore.Hbonds>
donor molecule, donor type, donor heavy atom, donor atom, acceptor molecule, acceptor atom, score
      L1  H    12    26       P1   582  0.43
      L1  H    14    27       P1   470  1.00

> <Gold.PLP.Chemscore.Internal.Correction>
0.0158

