#       Name:                EN300-200881_i001
#       Creating user name   aseyller
#       Creation time:       Fri Apr 21 16:32:42 2023


#       File generated by GOLD software.
#

@<TRIPOS>MOLECULE
EN300-200881_i001|aminophenols|mol2|49|dock2
    27    27     1
SMALL
USER_CHARGES


@<TRIPOS>ATOM
      1 C1          33.0075  36.4622  36.1867 C.3            1 <1>                0.0000
      2 C2          32.4368  35.5678  37.2890 C.3            1 <1>                0.0000
      3 O3          31.4188  36.2962  38.0247 O.3            1 <1>                0.0000
      4 C4          30.5875  35.5739  38.7922 C.2            1 <1>                0.0000
      5 O5          30.3618  34.4192  38.5177 O.2            1 <1>                0.0000
      6 C6          29.9356  36.2034  39.9963 C.3            1 <1>                0.0000
      7 C7          28.4786  36.4544  39.7049 C.ar           1 <1>                0.0000
      8 C8          28.1000  36.9987  38.4909 C.ar           1 <1>                0.0000
      9 C9          26.7648  37.2302  38.2193 C.ar           1 <1>                0.0000
     10 C10         25.8004  36.9188  39.1599 C.ar           1 <1>                0.0000
     11 C11         26.1725  36.3730  40.3793 C.ar           1 <1>                0.0000
     12 N12         25.1982  36.0571  41.3332 N.pl3          1 <1>                0.0000
     13 C13         27.5186  36.1351  40.6502 C.ar           1 <1>                0.0000
     14 O14         27.8894  35.5999  41.8444 O.3            1 <1>                0.0000
     15 H15         33.4496  37.3527  36.6337 H              1 <1>                0.0000
     16 H16         33.7717  35.9154  35.6343 H              1 <1>                0.0000
     17 H17         32.2079  36.7560  35.5066 H              1 <1>                0.0000
     18 H18         31.9948  34.6774  36.8418 H              1 <1>                0.0000
     19 H19         33.2364  35.2741  37.9690 H              1 <1>                0.0000
     20 H20         30.0249  35.5319  40.8504 H              1 <1>                0.0000
     21 H21         30.4287  37.1484  40.2241 H              1 <1>                0.0000
     22 H22         28.8500  37.2437  37.7532 H              1 <1>                0.0000
     23 H23         26.4740  37.6555  37.2701 H              1 <1>                0.0000
     24 H24         24.7578  37.1011  38.9453 H              1 <1>                0.0000
     25 H25         24.2613  36.2200  41.1418 H              1 <1>                0.0000
     26 H26         25.4599  35.6753  42.1857 H              1 <1>                0.0000
     27 H27         27.1476  35.3816  42.4249 H              1 <1>                0.0000
@<TRIPOS>BOND
    1    1    2 1     
    2    1   15 1     
    3    1   16 1     
    4    1   17 1     
    5    2    3 1     
    6    2   18 1     
    7    2   19 1     
    8    3    4 1     
    9    4    5 2     
   10    4    6 1     
   11    6    7 1     
   12    6   20 1     
   13    6   21 1     
   14    7    8 ar    
   15    7   13 ar    
   16    8    9 ar    
   17    8   22 1     
   18    9   10 ar    
   19    9   23 1     
   20   10   11 ar    
   21   10   24 1     
   22   11   12 1     
   23   11   13 ar    
   24   12   25 1     
   25   12   26 1     
   26   13   14 1     
   27   14   27 1     
@<TRIPOS>SUBSTRUCTURE
      1 ****           1
@<TRIPOS>SET
DONOR_HYDROGENS      STATIC     ATOMS    <user>   **** ""
3 25 26 27
ATOM$RED        STATIC     ATOMS    COLORGROUP SYSTEM
3 25 26 27
@<TRIPOS>COMMENT
> <Gold.Version>
2022.2.0

> <Gold.Id.Protein>
1qkm|1qkm_protein|mol2

> <Gold.Protein.RotatedTorsions>
[  496  491  490  487 ] final  133.91 input  -89.99 | X-H torsion

> <Gold.Protein.ActiveResidues>
 MET295  LEU298  THR299  LEU301  ALA302  GLU305  TRP335  MET336  LEU339  MET340 
 GLY342  LEU343  ARG346  PHE356  ILE373  ILE376  PHE377  LEU380  LYS471  GLY472 
 MET473  HIS475  LEU476  LEU477  ASN478  MET479  VAL484  VAL487 

> <Gold.Protein.RotatedAtoms>
   37.1784   32.9892   41.4175 H   0  0  0  0  0  0  0  0  0  0  0  0  # atno 496  bound_to 491 

> <Gold.Score>
     Score     S(PLP)   S(hbond)     S(cho)   S(metal)  DE(clash)   DE(tors)     intcor
     51.52     -45.53       2.51       0.00       0.00       0.00       0.78       0.04

> <Gold.PLP.Fitness>
51.5151

> <Gold.PLP.PLP>
-45.5273

> <Gold.PLP.part.hbond>
-2.8324

> <Gold.PLP.part.metal>
0.0000

> <Gold.PLP.part.buried>
-4.5118

> <Gold.PLP.part.nonpolar>
-39.8607

> <Gold.PLP.part.repulsive>
0.2218

> <Gold.PLP.ligand.clash>
0.0000

> <Gold.PLP.ligand.torsion>
0.7827

> <Gold.PLP.Chemscore.Hbond>
2.5061

> <Gold.PLP.Chemscore.CHOScore>
0.0000

> <Gold.PLP.Chemscore.Metal>
0.0000

> <Gold.Chemscore.Hbonds>
donor molecule, donor type, donor heavy atom, donor atom, acceptor molecule, acceptor atom, score
      L1  H    12    25       P1  1131  0.51
      L1  H    12    26       P1   582  0.99
      L1  H    14    27       P1   582  1.00

> <Gold.PLP.Chemscore.Internal.Correction>
0.0351

