#       Name:                EN300-200881_i001
#       Creating user name   aseyller
#       Creation time:       Fri Apr 21 16:32:56 2023


#       File generated by GOLD software.
#

@<TRIPOS>MOLECULE
EN300-200881_i001|aminophenols|mol2|49|dock12
    27    27     1
SMALL
USER_CHARGES


@<TRIPOS>ATOM
      1 C1          31.5201  38.7761  34.9407 C.3            1 <1>                0.0000
      2 C2          32.0547  38.5020  36.3477 C.3            1 <1>                0.0000
      3 O3          31.2621  37.4577  36.9717 O.3            1 <1>                0.0000
      4 C4          29.9893  37.7577  37.2749 C.2            1 <1>                0.0000
      5 O5          29.6856  38.8941  37.5505 O.2            1 <1>                0.0000
      6 C6          28.9391  36.6769  37.2716 C.3            1 <1>                0.0000
      7 C7          28.2696  36.6229  38.6206 C.ar           1 <1>                0.0000
      8 C8          26.9332  36.9582  38.7432 C.ar           1 <1>                0.0000
      9 C9          26.3151  36.9097  39.9784 C.ar           1 <1>                0.0000
     10 C10         27.0296  36.5257  41.0981 C.ar           1 <1>                0.0000
     11 C11         28.3698  36.1882  40.9829 C.ar           1 <1>                0.0000
     12 N12         29.0953  35.7993  42.1149 N.pl3          1 <1>                0.0000
     13 C13         28.9908  36.2324  39.7362 C.ar           1 <1>                0.0000
     14 O14         30.3050  35.9024  39.6171 O.3            1 <1>                0.0000
     15 H15         30.4804  39.0975  35.0032 H              1 <1>                0.0000
     16 H16         32.1151  39.5600  34.4722 H              1 <1>                0.0000
     17 H17         31.5837  37.8661  34.3440 H              1 <1>                0.0000
     18 H18         33.0944  38.1806  36.2851 H              1 <1>                0.0000
     19 H19         31.9911  39.4121  36.9443 H              1 <1>                0.0000
     20 H20         28.1953  36.8954  36.5053 H              1 <1>                0.0000
     21 H21         29.4075  35.7158  37.0597 H              1 <1>                0.0000
     22 H22         26.3712  37.2590  37.8712 H              1 <1>                0.0000
     23 H23         25.2716  37.1726  40.0693 H              1 <1>                0.0000
     24 H24         26.5443  36.4890  42.0622 H              1 <1>                0.0000
     25 H25         28.6608  35.7656  42.9814 H              1 <1>                0.0000
     26 H26         30.0327  35.5635  42.0328 H              1 <1>                0.0000
     27 H27         30.7246  35.6512  40.4512 H              1 <1>                0.0000
@<TRIPOS>BOND
    1    1    2 1     
    2    1   15 1     
    3    1   16 1     
    4    1   17 1     
    5    2    3 1     
    6    2   18 1     
    7    2   19 1     
    8    3    4 1     
    9    4    5 2     
   10    4    6 1     
   11    6    7 1     
   12    6   20 1     
   13    6   21 1     
   14    7    8 ar    
   15    7   13 ar    
   16    8    9 ar    
   17    8   22 1     
   18    9   10 ar    
   19    9   23 1     
   20   10   11 ar    
   21   10   24 1     
   22   11   12 1     
   23   11   13 ar    
   24   12   25 1     
   25   12   26 1     
   26   13   14 1     
   27   14   27 1     
@<TRIPOS>SUBSTRUCTURE
      1 ****           1
@<TRIPOS>SET
DONOR_HYDROGENS      STATIC     ATOMS    <user>   **** ""
3 25 26 27
ATOM$RED        STATIC     ATOMS    COLORGROUP SYSTEM
3 25 26 27
@<TRIPOS>COMMENT
> <Gold.Version>
2022.2.0

> <Gold.Id.Protein>
1qkm|1qkm_protein|mol2

> <Gold.Protein.RotatedTorsions>
[  496  491  490  487 ] final  -89.49 input  -89.99 | X-H torsion

> <Gold.Protein.ActiveResidues>
 MET295  LEU298  THR299  LEU301  ALA302  GLU305  TRP335  MET336  LEU339  MET340 
 GLY342  LEU343  ARG346  PHE356  ILE373  ILE376  PHE377  LEU380  LYS471  GLY472 
 MET473  HIS475  LEU476  LEU477  ASN478  MET479  VAL484  VAL487 

> <Gold.Protein.RotatedAtoms>
   36.7526   34.6566   41.0854 H   0  0  0  0  0  0  0  0  0  0  0  0  # atno 496  bound_to 491 

> <Gold.Score>
     Score     S(PLP)   S(hbond)     S(cho)   S(metal)  DE(clash)   DE(tors)     intcor
     46.58     -41.45       2.00       0.00       0.00       0.00       0.44       0.01

> <Gold.PLP.Fitness>
46.5752

> <Gold.PLP.PLP>
-41.4477

> <Gold.PLP.part.hbond>
-2.0000

> <Gold.PLP.part.metal>
0.0000

> <Gold.PLP.part.buried>
-5.3146

> <Gold.PLP.part.nonpolar>
-35.1446

> <Gold.PLP.part.repulsive>
0.1071

> <Gold.PLP.ligand.clash>
0.0000

> <Gold.PLP.ligand.torsion>
0.4389

> <Gold.PLP.Chemscore.Hbond>
2.0000

> <Gold.PLP.Chemscore.CHOScore>
0.0000

> <Gold.PLP.Chemscore.Metal>
0.0000

> <Gold.Chemscore.Hbonds>
donor molecule, donor type, donor heavy atom, donor atom, acceptor molecule, acceptor atom, score
      L1  H    12    26       P1   470  1.00
      L1  H    14    27       P1   470  1.00

> <Gold.PLP.Chemscore.Internal.Correction>
0.0053

