#       Name:                EN300-200881_i001
#       Creating user name   aseyller
#       Creation time:       Fri Apr 21 16:32:57 2023


#       File generated by GOLD software.
#

@<TRIPOS>MOLECULE
EN300-200881_i001|aminophenols|mol2|49|dock13
    27    27     1
SMALL
USER_CHARGES


@<TRIPOS>ATOM
      1 C1          30.2996  40.6175  35.4967 C.3            1 <1>                0.0000
      2 C2          30.3151  40.2914  36.9914 C.3            1 <1>                0.0000
      3 O3          30.3079  38.8508  37.1726 O.3            1 <1>                0.0000
      4 C4          29.1088  38.2516  37.2434 C.2            1 <1>                0.0000
      5 O5          28.1023  38.8880  37.0393 O.2            1 <1>                0.0000
      6 C6          29.0180  36.7849  37.5777 C.3            1 <1>                0.0000
      7 C7          28.0890  36.5932  38.7486 C.ar           1 <1>                0.0000
      8 C8          26.7404  36.8703  38.6139 C.ar           1 <1>                0.0000
      9 C9          25.8848  36.6954  39.6852 C.ar           1 <1>                0.0000
     10 C10         26.3725  36.2426  40.8971 C.ar           1 <1>                0.0000
     11 C11         27.7234  35.9628  41.0395 C.ar           1 <1>                0.0000
     12 N12         28.2195  35.5045  42.2654 N.pl3          1 <1>                0.0000
     13 C13         28.5844  36.1345  39.9574 C.ar           1 <1>                0.0000
     14 O14         29.9102  35.8617  40.0912 O.3            1 <1>                0.0000
     15 H15         29.4015  40.1988  35.0427 H              1 <1>                0.0000
     16 H16         30.3051  41.6990  35.3607 H              1 <1>                0.0000
     17 H17         31.1813  40.1871  35.0217 H              1 <1>                0.0000
     18 H18         31.2133  40.7102  37.4454 H              1 <1>                0.0000
     19 H19         29.4335  40.7218  37.4664 H              1 <1>                0.0000
     20 H20         28.6339  36.2390  36.7159 H              1 <1>                0.0000
     21 H21         30.0083  36.4087  37.8341 H              1 <1>                0.0000
     22 H22         26.3551  37.2244  37.6691 H              1 <1>                0.0000
     23 H23         24.8327  36.9133  39.5754 H              1 <1>                0.0000
     24 H24         25.7018  36.1072  41.7327 H              1 <1>                0.0000
     25 H25         27.6183  35.3821  43.0167 H              1 <1>                0.0000
     26 H26         29.1646  35.3092  42.3636 H              1 <1>                0.0000
     27 H27         30.1766  35.6378  40.9934 H              1 <1>                0.0000
@<TRIPOS>BOND
    1    1    2 1     
    2    1   15 1     
    3    1   16 1     
    4    1   17 1     
    5    2    3 1     
    6    2   18 1     
    7    2   19 1     
    8    3    4 1     
    9    4    5 2     
   10    4    6 1     
   11    6    7 1     
   12    6   20 1     
   13    6   21 1     
   14    7    8 ar    
   15    7   13 ar    
   16    8    9 ar    
   17    8   22 1     
   18    9   10 ar    
   19    9   23 1     
   20   10   11 ar    
   21   10   24 1     
   22   11   12 1     
   23   11   13 ar    
   24   12   25 1     
   25   12   26 1     
   26   13   14 1     
   27   14   27 1     
@<TRIPOS>SUBSTRUCTURE
      1 ****           1
@<TRIPOS>SET
DONOR_HYDROGENS      STATIC     ATOMS    <user>   **** ""
3 25 26 27
ATOM$RED        STATIC     ATOMS    COLORGROUP SYSTEM
3 25 26 27
@<TRIPOS>COMMENT
> <Gold.Version>
2022.2.0

> <Gold.Id.Protein>
1qkm|1qkm_protein|mol2

> <Gold.Protein.RotatedTorsions>
[  496  491  490  487 ] final -156.78 input  -89.99 | X-H torsion

> <Gold.Protein.ActiveResidues>
 MET295  LEU298  THR299  LEU301  ALA302  GLU305  TRP335  MET336  LEU339  MET340 
 GLY342  LEU343  ARG346  PHE356  ILE373  ILE376  PHE377  LEU380  LYS471  GLY472 
 MET473  HIS475  LEU476  LEU477  ASN478  MET479  VAL484  VAL487 

> <Gold.Protein.RotatedAtoms>
   37.2626   33.8137   40.7366 H   0  0  0  0  0  0  0  0  0  0  0  0  # atno 496  bound_to 491 

> <Gold.Score>
     Score     S(PLP)   S(hbond)     S(cho)   S(metal)  DE(clash)   DE(tors)     intcor
     49.04     -44.16       1.82       0.00       0.00       0.00       0.30       0.01

> <Gold.PLP.Fitness>
49.0370

> <Gold.PLP.PLP>
-44.1577

> <Gold.PLP.part.hbond>
-2.0000

> <Gold.PLP.part.metal>
0.0000

> <Gold.PLP.part.buried>
-4.8757

> <Gold.PLP.part.nonpolar>
-38.1225

> <Gold.PLP.part.repulsive>
0.0915

> <Gold.PLP.ligand.clash>
0.0000

> <Gold.PLP.ligand.torsion>
0.3001

> <Gold.PLP.Chemscore.Hbond>
1.8247

> <Gold.PLP.Chemscore.CHOScore>
0.0000

> <Gold.PLP.Chemscore.Metal>
0.0000

> <Gold.Chemscore.Hbonds>
donor molecule, donor type, donor heavy atom, donor atom, acceptor molecule, acceptor atom, score
      L1  H    12    25       P1   582  1.00
      L1  H    14    27       P1   470  0.82

> <Gold.PLP.Chemscore.Internal.Correction>
0.0053

