#       Name:                EN300-200881_i001
#       Creating user name   aseyller
#       Creation time:       Fri Apr 21 16:33:07 2023


#       File generated by GOLD software.
#

@<TRIPOS>MOLECULE
EN300-200881_i001|aminophenols|mol2|49|dock20
    27    27     1
SMALL
USER_CHARGES


@<TRIPOS>ATOM
      1 C1          31.8920  38.3368  34.2980 C.3            1 <1>                0.0000
      2 C2          30.4076  38.2235  34.6507 C.3            1 <1>                0.0000
      3 O3          30.2497  37.3622  35.8088 O.3            1 <1>                0.0000
      4 C4          29.8056  37.9353  36.9385 C.2            1 <1>                0.0000
      5 O5          29.2476  39.0060  36.8938 O.2            1 <1>                0.0000
      6 C6          30.0033  37.2434  38.2626 C.3            1 <1>                0.0000
      7 C7          28.6610  36.9467  38.8797 C.ar           1 <1>                0.0000
      8 C8          27.5019  37.3447  38.2382 C.ar           1 <1>                0.0000
      9 C9          26.2686  37.0742  38.8004 C.ar           1 <1>                0.0000
     10 C10         26.1871  36.4042  40.0071 C.ar           1 <1>                0.0000
     11 C11         27.3450  36.0022  40.6561 C.ar           1 <1>                0.0000
     12 N12         27.2651  35.3240  41.8779 N.pl3          1 <1>                0.0000
     13 C13         28.5878  36.2707  40.0859 C.ar           1 <1>                0.0000
     14 O14         29.7268  35.8788  40.7178 O.3            1 <1>                0.0000
     15 H15         32.2882  37.3469  34.0713 H              1 <1>                0.0000
     16 H16         32.0106  38.9834  33.4286 H              1 <1>                0.0000
     17 H17         32.4350  38.7607  35.1428 H              1 <1>                0.0000
     18 H18         30.0115  39.2134  34.8773 H              1 <1>                0.0000
     19 H19         29.8647  37.7997  33.8058 H              1 <1>                0.0000
     20 H20         30.5462  36.3109  38.1077 H              1 <1>                0.0000
     21 H21         30.5746  37.8900  38.9287 H              1 <1>                0.0000
     22 H22         27.5607  37.8685  37.2955 H              1 <1>                0.0000
     23 H23         25.3663  37.3872  38.2960 H              1 <1>                0.0000
     24 H24         25.2222  36.1945  40.4445 H              1 <1>                0.0000
     25 H25         26.3992  35.1346  42.2717 H              1 <1>                0.0000
     26 H26         28.0758  35.0434  42.3306 H              1 <1>                0.0000
     27 H27         29.5759  35.4564  41.5744 H              1 <1>                0.0000
@<TRIPOS>BOND
    1    1    2 1     
    2    1   15 1     
    3    1   16 1     
    4    1   17 1     
    5    2    3 1     
    6    2   18 1     
    7    2   19 1     
    8    3    4 1     
    9    4    5 2     
   10    4    6 1     
   11    6    7 1     
   12    6   20 1     
   13    6   21 1     
   14    7    8 ar    
   15    7   13 ar    
   16    8    9 ar    
   17    8   22 1     
   18    9   10 ar    
   19    9   23 1     
   20   10   11 ar    
   21   10   24 1     
   22   11   12 1     
   23   11   13 ar    
   24   12   25 1     
   25   12   26 1     
   26   13   14 1     
   27   14   27 1     
@<TRIPOS>SUBSTRUCTURE
      1 ****           1
@<TRIPOS>SET
DONOR_HYDROGENS      STATIC     ATOMS    <user>   **** ""
3 25 26 27
ATOM$RED        STATIC     ATOMS    COLORGROUP SYSTEM
3 25 26 27
@<TRIPOS>COMMENT
> <Gold.Version>
2022.2.0

> <Gold.Id.Protein>
1qkm|1qkm_protein|mol2

> <Gold.Protein.RotatedTorsions>
[  496  491  490  487 ] final  176.69 input  -89.99 | X-H torsion

> <Gold.Protein.ActiveResidues>
 MET295  LEU298  THR299  LEU301  ALA302  GLU305  TRP335  MET336  LEU339  MET340 
 GLY342  LEU343  ARG346  PHE356  ILE373  ILE376  PHE377  LEU380  LYS471  GLY472 
 MET473  HIS475  LEU476  LEU477  ASN478  MET479  VAL484  VAL487 

> <Gold.Protein.RotatedAtoms>
   37.3188   33.4152   40.8958 H   0  0  0  0  0  0  0  0  0  0  0  0  # atno 496  bound_to 491 

> <Gold.Score>
     Score     S(PLP)   S(hbond)     S(cho)   S(metal)  DE(clash)   DE(tors)     intcor
     44.91     -45.86       0.58       0.00       0.00       1.44       0.62       0.01

> <Gold.PLP.Fitness>
44.9079

> <Gold.PLP.PLP>
-45.8601

> <Gold.PLP.part.hbond>
-1.4721

> <Gold.PLP.part.metal>
0.0000

> <Gold.PLP.part.buried>
-5.9131

> <Gold.PLP.part.nonpolar>
-39.1922

> <Gold.PLP.part.repulsive>
0.0671

> <Gold.PLP.ligand.clash>
1.4361

> <Gold.PLP.ligand.torsion>
0.6247

> <Gold.PLP.Chemscore.Hbond>
0.5760

> <Gold.PLP.Chemscore.CHOScore>
0.0000

> <Gold.PLP.Chemscore.Metal>
0.0000

> <Gold.Chemscore.Hbonds>
donor molecule, donor type, donor heavy atom, donor atom, acceptor molecule, acceptor atom, score
      L1  H    12    25       P1   582  0.58

> <Gold.PLP.Chemscore.Internal.Correction>
0.0053

