#       Name:                EN300-200881_i001
#       Creating user name   aseyller
#       Creation time:       Fri Apr 21 16:33:04 2023


#       File generated by GOLD software.
#

@<TRIPOS>MOLECULE
EN300-200881_i001|aminophenols|mol2|49|dock18
    27    27     1
SMALL
USER_CHARGES


@<TRIPOS>ATOM
      1 C1          30.6166  40.5455  35.8095 C.3            1 <1>                0.0000
      2 C2          29.2544  40.0750  36.3231 C.3            1 <1>                0.0000
      3 O3          29.4411  39.2446  37.4994 O.3            1 <1>                0.0000
      4 C4          29.9009  37.9994  37.2996 C.2            1 <1>                0.0000
      5 O5          30.1405  37.6164  36.1791 O.2            1 <1>                0.0000
      6 C6          30.1181  37.0791  38.4730 C.3            1 <1>                0.0000
      7 C7          28.7867  36.7067  39.0725 C.ar           1 <1>                0.0000
      8 C8          27.7109  36.4288  38.2486 C.ar           1 <1>                0.0000
      9 C9          26.4880  36.0864  38.7942 C.ar           1 <1>                0.0000
     10 C10         26.3338  36.0198  40.1665 C.ar           1 <1>                0.0000
     11 C11         27.4080  36.2972  40.9988 C.ar           1 <1>                0.0000
     12 N12         27.2543  36.2307  42.3884 N.pl3          1 <1>                0.0000
     13 C13         28.6419  36.6373  40.4478 C.ar           1 <1>                0.0000
     14 O14         29.6989  36.9103  41.2591 O.3            1 <1>                0.0000
     15 H15         31.2259  39.6797  35.5501 H              1 <1>                0.0000
     16 H16         30.4764  41.1689  34.9264 H              1 <1>                0.0000
     17 H17         31.1180  41.1231  36.5861 H              1 <1>                0.0000
     18 H18         28.6451  40.9408  36.5824 H              1 <1>                0.0000
     19 H19         28.7530  39.4974  35.5464 H              1 <1>                0.0000
     20 H20         30.6305  36.1774  38.1375 H              1 <1>                0.0000
     21 H21         30.7260  37.5844  39.2235 H              1 <1>                0.0000
     22 H22         27.8267  36.4798  37.1759 H              1 <1>                0.0000
     23 H23         25.6508  35.8705  38.1469 H              1 <1>                0.0000
     24 H24         25.3771  35.7524  40.5903 H              1 <1>                0.0000
     25 H25         26.3958  35.9904  42.7705 H              1 <1>                0.0000
     26 H26         28.0065  36.4250  42.9694 H              1 <1>                0.0000
     27 H27         30.4628  36.3349  41.1168 H              1 <1>                0.0000
@<TRIPOS>BOND
    1    1    2 1     
    2    1   15 1     
    3    1   16 1     
    4    1   17 1     
    5    2    3 1     
    6    2   18 1     
    7    2   19 1     
    8    3    4 1     
    9    4    5 2     
   10    4    6 1     
   11    6    7 1     
   12    6   20 1     
   13    6   21 1     
   14    7    8 ar    
   15    7   13 ar    
   16    8    9 ar    
   17    8   22 1     
   18    9   10 ar    
   19    9   23 1     
   20   10   11 ar    
   21   10   24 1     
   22   11   12 1     
   23   11   13 ar    
   24   12   25 1     
   25   12   26 1     
   26   13   14 1     
   27   14   27 1     
@<TRIPOS>SUBSTRUCTURE
      1 ****           1
@<TRIPOS>SET
DONOR_HYDROGENS      STATIC     ATOMS    <user>   **** ""
3 25 26 27
ATOM$RED        STATIC     ATOMS    COLORGROUP SYSTEM
3 25 26 27
@<TRIPOS>COMMENT
> <Gold.Version>
2022.2.0

> <Gold.Id.Protein>
1qkm|1qkm_protein|mol2

> <Gold.Protein.RotatedTorsions>
[  496  491  490  487 ] final   -7.24 input  -89.99 | X-H torsion

> <Gold.Protein.ActiveResidues>
 MET295  LEU298  THR299  LEU301  ALA302  GLU305  TRP335  MET336  LEU339  MET340 
 GLY342  LEU343  ARG346  PHE356  ILE373  ILE376  PHE377  LEU380  LYS471  GLY472 
 MET473  HIS475  LEU476  LEU477  ASN478  MET479  VAL484  VAL487 

> <Gold.Protein.RotatedAtoms>
   36.2600   34.3134   42.1711 H   0  0  0  0  0  0  0  0  0  0  0  0  # atno 496  bound_to 491 

> <Gold.Score>
     Score     S(PLP)   S(hbond)     S(cho)   S(metal)  DE(clash)   DE(tors)     intcor
     45.00     -41.76       1.34       0.00       0.00       0.00       0.39       0.01

> <Gold.PLP.Fitness>
45.0012

> <Gold.PLP.PLP>
-41.7569

> <Gold.PLP.part.hbond>
-1.8310

> <Gold.PLP.part.metal>
0.0000

> <Gold.PLP.part.buried>
-0.9105

> <Gold.PLP.part.nonpolar>
-38.9792

> <Gold.PLP.part.repulsive>
0.0632

> <Gold.PLP.ligand.clash>
0.0000

> <Gold.PLP.ligand.torsion>
0.3939

> <Gold.PLP.Chemscore.Hbond>
1.3423

> <Gold.PLP.Chemscore.CHOScore>
0.0000

> <Gold.PLP.Chemscore.Metal>
0.0000

> <Gold.Chemscore.Hbonds>
donor molecule, donor type, donor heavy atom, donor atom, acceptor molecule, acceptor atom, score
      L1  H    12    25       P1   582  0.53
      L1  H    14    27       P1   470  0.81

> <Gold.PLP.Chemscore.Internal.Correction>
0.0053

