#       Name:                EN300-200881_i001
#       Creating user name   aseyller
#       Creation time:       Fri Apr 21 16:32:50 2023


#       File generated by GOLD software.
#

@<TRIPOS>MOLECULE
EN300-200881_i001|aminophenols|mol2|49|dock8
    27    27     1
SMALL
USER_CHARGES


@<TRIPOS>ATOM
      1 C1          33.0027  36.6831  35.7204 C.3            1 <1>                0.0000
      2 C2          31.5237  36.2930  35.7524 C.3            1 <1>                0.0000
      3 O3          30.9148  36.8029  36.9678 O.3            1 <1>                0.0000
      4 C4          31.1158  36.0977  38.0922 C.2            1 <1>                0.0000
      5 O5          31.7185  35.0515  38.0496 O.2            1 <1>                0.0000
      6 C6          30.5894  36.6110  39.4078 C.3            1 <1>                0.0000
      7 C7          29.0834  36.6436  39.3679 C.ar           1 <1>                0.0000
      8 C8          28.4317  37.1339  38.2506 C.ar           1 <1>                0.0000
      9 C9          27.0506  37.1652  38.2096 C.ar           1 <1>                0.0000
     10 C10         26.3131  36.7066  39.2854 C.ar           1 <1>                0.0000
     11 C11         26.9595  36.2137  40.4090 C.ar           1 <1>                0.0000
     12 N12         26.2152  35.7490  41.4994 N.pl3          1 <1>                0.0000
     13 C13         28.3521  36.1776  40.4473 C.ar           1 <1>                0.0000
     14 O14         28.9915  35.6953  41.5467 O.3            1 <1>                0.0000
     15 H15         33.5095  36.2578  36.5867 H              1 <1>                0.0000
     16 H16         33.4598  36.3004  34.8079 H              1 <1>                0.0000
     17 H17         33.0927  37.7692  35.7439 H              1 <1>                0.0000
     18 H18         31.0170  36.7183  34.8860 H              1 <1>                0.0000
     19 H19         31.4338  35.2069  35.7288 H              1 <1>                0.0000
     20 H20         30.9174  35.9525  40.2121 H              1 <1>                0.0000
     21 H21         30.9701  37.6170  39.5838 H              1 <1>                0.0000
     22 H22         29.0038  37.4935  37.4079 H              1 <1>                0.0000
     23 H23         26.5462  37.5492  37.3352 H              1 <1>                0.0000
     24 H24         25.2340  36.7325  39.2509 H              1 <1>                0.0000
     25 H25         25.2460  35.7714  41.4699 H              1 <1>                0.0000
     26 H26         26.6687  35.4045  42.2847 H              1 <1>                0.0000
     27 H27         29.9432  35.5738  41.4263 H              1 <1>                0.0000
@<TRIPOS>BOND
    1    1    2 1     
    2    1   15 1     
    3    1   16 1     
    4    1   17 1     
    5    2    3 1     
    6    2   18 1     
    7    2   19 1     
    8    3    4 1     
    9    4    5 2     
   10    4    6 1     
   11    6    7 1     
   12    6   20 1     
   13    6   21 1     
   14    7    8 ar    
   15    7   13 ar    
   16    8    9 ar    
   17    8   22 1     
   18    9   10 ar    
   19    9   23 1     
   20   10   11 ar    
   21   10   24 1     
   22   11   12 1     
   23   11   13 ar    
   24   12   25 1     
   25   12   26 1     
   26   13   14 1     
   27   14   27 1     
@<TRIPOS>SUBSTRUCTURE
      1 ****           1
@<TRIPOS>SET
DONOR_HYDROGENS      STATIC     ATOMS    <user>   **** ""
3 25 26 27
ATOM$RED        STATIC     ATOMS    COLORGROUP SYSTEM
3 25 26 27
@<TRIPOS>COMMENT
> <Gold.Version>
2022.2.0

> <Gold.Id.Protein>
1qkm|1qkm_protein|mol2

> <Gold.Protein.RotatedTorsions>
[  496  491  490  487 ] final    0.25 input  -89.99 | X-H torsion

> <Gold.Protein.ActiveResidues>
 MET295  LEU298  THR299  LEU301  ALA302  GLU305  TRP335  MET336  LEU339  MET340 
 GLY342  LEU343  ARG346  PHE356  ILE373  ILE376  PHE377  LEU380  LYS471  GLY472 
 MET473  HIS475  LEU476  LEU477  ASN478  MET479  VAL484  VAL487 

> <Gold.Protein.RotatedAtoms>
   36.2599   34.2101   42.2381 H   0  0  0  0  0  0  0  0  0  0  0  0  # atno 496  bound_to 491 

> <Gold.Score>
     Score     S(PLP)   S(hbond)     S(cho)   S(metal)  DE(clash)   DE(tors)     intcor
     47.13     -42.85       1.65       0.00       0.00       0.00       0.34       0.02

> <Gold.PLP.Fitness>
47.1327

> <Gold.PLP.PLP>
-42.8451

> <Gold.PLP.part.hbond>
-2.0000

> <Gold.PLP.part.metal>
0.0000

> <Gold.PLP.part.buried>
-5.7451

> <Gold.PLP.part.nonpolar>
-35.1761

> <Gold.PLP.part.repulsive>
0.0977

> <Gold.PLP.ligand.clash>
0.0000

> <Gold.PLP.ligand.torsion>
0.3350

> <Gold.PLP.Chemscore.Hbond>
1.6473

> <Gold.PLP.Chemscore.CHOScore>
0.0000

> <Gold.PLP.Chemscore.Metal>
0.0000

> <Gold.Chemscore.Hbonds>
donor molecule, donor type, donor heavy atom, donor atom, acceptor molecule, acceptor atom, score
      L1  H    12    26       P1   582  0.66
      L1  H    14    27       P1   470  0.99

> <Gold.PLP.Chemscore.Internal.Correction>
0.0158

