#       Name:                EN300-200881_i001
#       Creating user name   aseyller
#       Creation time:       Fri Apr 21 16:32:53 2023


#       File generated by GOLD software.
#

@<TRIPOS>MOLECULE
EN300-200881_i001|aminophenols|mol2|49|dock10
    27    27     1
SMALL
USER_CHARGES


@<TRIPOS>ATOM
      1 C1          32.5746  37.3787  34.9224 C.3            1 <1>                0.0000
      2 C2          31.3494  37.8321  35.7187 C.3            1 <1>                0.0000
      3 O3          31.1242  36.9169  36.8232 O.3            1 <1>                0.0000
      4 C4          30.4048  37.3771  37.8588 C.2            1 <1>                0.0000
      5 O5          29.9548  38.4980  37.8312 O.2            1 <1>                0.0000
      6 C6          30.1588  36.4957  39.0562 C.3            1 <1>                0.0000
      7 C7          28.7034  36.5652  39.4405 C.ar           1 <1>                0.0000
      8 C8          27.7294  36.5907  38.4586 C.ar           1 <1>                0.0000
      9 C9          26.3933  36.6539  38.8067 C.ar           1 <1>                0.0000
     10 C10         26.0234  36.6922  40.1383 C.ar           1 <1>                0.0000
     11 C11         26.9944  36.6671  41.1283 C.ar           1 <1>                0.0000
     12 N12         26.6225  36.7059  42.4771 N.pl3          1 <1>                0.0000
     13 C13         28.3410  36.5980  40.7765 C.ar           1 <1>                0.0000
     14 O14         29.2977  36.5731  41.7430 O.3            1 <1>                0.0000
     15 H15         32.4041  36.3748  34.5335 H              1 <1>                0.0000
     16 H16         32.7437  38.0657  34.0932 H              1 <1>                0.0000
     17 H17         33.4491  37.3725  35.5731 H              1 <1>                0.0000
     18 H18         31.5199  38.8360  36.1075 H              1 <1>                0.0000
     19 H19         30.4750  37.8382  35.0678 H              1 <1>                0.0000
     20 H20         30.4208  35.4667  38.8098 H              1 <1>                0.0000
     21 H21         30.7717  36.8367  39.8905 H              1 <1>                0.0000
     22 H22         28.0137  36.5612  37.4171 H              1 <1>                0.0000
     23 H23         25.6364  36.6738  38.0366 H              1 <1>                0.0000
     24 H24         24.9787  36.7421  40.4076 H              1 <1>                0.0000
     25 H25         25.6846  36.7504  42.7204 H              1 <1>                0.0000
     26 H26         27.3028  36.6883  43.1684 H              1 <1>                0.0000
     27 H27         30.0498  36.0012  41.5373 H              1 <1>                0.0000
@<TRIPOS>BOND
    1    1    2 1     
    2    1   15 1     
    3    1   16 1     
    4    1   17 1     
    5    2    3 1     
    6    2   18 1     
    7    2   19 1     
    8    3    4 1     
    9    4    5 2     
   10    4    6 1     
   11    6    7 1     
   12    6   20 1     
   13    6   21 1     
   14    7    8 ar    
   15    7   13 ar    
   16    8    9 ar    
   17    8   22 1     
   18    9   10 ar    
   19    9   23 1     
   20   10   11 ar    
   21   10   24 1     
   22   11   12 1     
   23   11   13 ar    
   24   12   25 1     
   25   12   26 1     
   26   13   14 1     
   27   14   27 1     
@<TRIPOS>SUBSTRUCTURE
      1 ****           1
@<TRIPOS>SET
DONOR_HYDROGENS      STATIC     ATOMS    <user>   **** ""
3 25 26 27
ATOM$RED        STATIC     ATOMS    COLORGROUP SYSTEM
3 25 26 27
@<TRIPOS>COMMENT
> <Gold.Version>
2022.2.0

> <Gold.Id.Protein>
1qkm|1qkm_protein|mol2

> <Gold.Protein.RotatedTorsions>
[  496  491  490  487 ] final   96.70 input  -89.99 | X-H torsion

> <Gold.Protein.ActiveResidues>
 MET295  LEU298  THR299  LEU301  ALA302  GLU305  TRP335  MET336  LEU339  MET340 
 GLY342  LEU343  ARG346  PHE356  ILE373  ILE376  PHE377  LEU380  LYS471  GLY472 
 MET473  HIS475  LEU476  LEU477  ASN478  MET479  VAL484  VAL487 

> <Gold.Protein.RotatedAtoms>
   36.8817   32.9837   41.9412 H   0  0  0  0  0  0  0  0  0  0  0  0  # atno 496  bound_to 491 

> <Gold.Score>
     Score     S(PLP)   S(hbond)     S(cho)   S(metal)  DE(clash)   DE(tors)     intcor
     48.41     -46.61       0.97       0.00       0.00       0.00       0.55       0.01

> <Gold.PLP.Fitness>
48.4114

> <Gold.PLP.PLP>
-46.6117

> <Gold.PLP.part.hbond>
-2.0000

> <Gold.PLP.part.metal>
0.0000

> <Gold.PLP.part.buried>
-4.9258

> <Gold.PLP.part.nonpolar>
-39.3105

> <Gold.PLP.part.repulsive>
0.0740

> <Gold.PLP.ligand.clash>
0.0000

> <Gold.PLP.ligand.torsion>
0.5536

> <Gold.PLP.Chemscore.Hbond>
0.9672

> <Gold.PLP.Chemscore.CHOScore>
0.0000

> <Gold.PLP.Chemscore.Metal>
0.0000

> <Gold.Chemscore.Hbonds>
donor molecule, donor type, donor heavy atom, donor atom, acceptor molecule, acceptor atom, score
      L1  H    14    27       P1   470  0.97

> <Gold.PLP.Chemscore.Internal.Correction>
0.0053

