#       Name:                EN300-200881_i001
#       Creating user name   aseyller
#       Creation time:       Fri Apr 21 16:33:00 2023


#       File generated by GOLD software.
#

@<TRIPOS>MOLECULE
EN300-200881_i001|aminophenols|mol2|49|dock15
    27    27     1
SMALL
USER_CHARGES


@<TRIPOS>ATOM
      1 C1          30.6301  40.0336  35.6019 C.3            1 <1>                0.0000
      2 C2          29.8187  40.3025  36.8708 C.3            1 <1>                0.0000
      3 O3          28.7625  39.3132  36.9886 O.3            1 <1>                0.0000
      4 C4          29.0949  38.1275  37.5230 C.2            1 <1>                0.0000
      5 O5          30.2302  37.9238  37.8824 O.2            1 <1>                0.0000
      6 C6          28.0519  37.0503  37.6744 C.3            1 <1>                0.0000
      7 C7          27.8669  36.7321  39.1357 C.ar           1 <1>                0.0000
      8 C8          28.9687  36.6270  39.9654 C.ar           1 <1>                0.0000
      9 C9          28.8034  36.3358  41.3063 C.ar           1 <1>                0.0000
     10 C10         27.5358  36.1481  41.8253 C.ar           1 <1>                0.0000
     11 C11         26.4264  36.2518  40.9995 C.ar           1 <1>                0.0000
     12 N12         25.1421  36.0620  41.5225 N.pl3          1 <1>                0.0000
     13 C13         26.5937  36.5506  39.6487 C.ar           1 <1>                0.0000
     14 O14         25.5094  36.6537  38.8340 O.3            1 <1>                0.0000
     15 H15         29.9759  40.0953  34.7323 H              1 <1>                0.0000
     16 H16         31.4231  40.7762  35.5135 H              1 <1>                0.0000
     17 H17         31.0696  39.0375  35.6559 H              1 <1>                0.0000
     18 H18         30.4731  40.2407  37.7404 H              1 <1>                0.0000
     19 H19         29.3794  41.2986  36.8168 H              1 <1>                0.0000
     20 H20         27.1074  37.3978  37.2557 H              1 <1>                0.0000
     21 H21         28.3759  36.1540  37.1455 H              1 <1>                0.0000
     22 H22         29.9608  36.7726  39.5642 H              1 <1>                0.0000
     23 H23         29.6667  36.2544  41.9502 H              1 <1>                0.0000
     24 H24         27.4095  35.9202  42.8734 H              1 <1>                0.0000
     25 H25         25.0271  35.8576  42.4637 H              1 <1>                0.0000
     26 H26         24.3671  36.1349  40.9437 H              1 <1>                0.0000
     27 H27         25.6013  36.1813  37.9953 H              1 <1>                0.0000
@<TRIPOS>BOND
    1    1    2 1     
    2    1   15 1     
    3    1   16 1     
    4    1   17 1     
    5    2    3 1     
    6    2   18 1     
    7    2   19 1     
    8    3    4 1     
    9    4    5 2     
   10    4    6 1     
   11    6    7 1     
   12    6   20 1     
   13    6   21 1     
   14    7    8 ar    
   15    7   13 ar    
   16    8    9 ar    
   17    8   22 1     
   18    9   10 ar    
   19    9   23 1     
   20   10   11 ar    
   21   10   24 1     
   22   11   12 1     
   23   11   13 ar    
   24   12   25 1     
   25   12   26 1     
   26   13   14 1     
   27   14   27 1     
@<TRIPOS>SUBSTRUCTURE
      1 ****           1
@<TRIPOS>SET
DONOR_HYDROGENS      STATIC     ATOMS    <user>   **** ""
3 25 26 27
ATOM$RED        STATIC     ATOMS    COLORGROUP SYSTEM
3 25 26 27
@<TRIPOS>COMMENT
> <Gold.Version>
2022.2.0

> <Gold.Id.Protein>
1qkm|1qkm_protein|mol2

> <Gold.Protein.RotatedTorsions>
[  496  491  490  487 ] final -101.91 input  -89.99 | X-H torsion

> <Gold.Protein.ActiveResidues>
 MET295  LEU298  THR299  LEU301  ALA302  GLU305  TRP335  MET336  LEU339  MET340 
 GLY342  LEU343  ARG346  PHE356  ILE373  ILE376  PHE377  LEU380  LYS471  GLY472 
 MET473  HIS475  LEU476  LEU477  ASN478  MET479  VAL484  VAL487 

> <Gold.Protein.RotatedAtoms>
   36.8672   34.5582   40.9482 H   0  0  0  0  0  0  0  0  0  0  0  0  # atno 496  bound_to 491 

> <Gold.Score>
     Score     S(PLP)   S(hbond)     S(cho)   S(metal)  DE(clash)   DE(tors)     intcor
     45.62     -42.80       1.18       0.00       0.00       0.00       0.36       0.01

> <Gold.PLP.Fitness>
45.6241

> <Gold.PLP.PLP>
-42.8041

> <Gold.PLP.part.hbond>
-2.5263

> <Gold.PLP.part.metal>
0.0000

> <Gold.PLP.part.buried>
-1.2108

> <Gold.PLP.part.nonpolar>
-41.2513

> <Gold.PLP.part.repulsive>
0.1352

> <Gold.PLP.ligand.clash>
0.0000

> <Gold.PLP.ligand.torsion>
0.3622

> <Gold.PLP.Chemscore.Hbond>
1.1798

> <Gold.PLP.Chemscore.CHOScore>
0.0000

> <Gold.PLP.Chemscore.Metal>
0.0000

> <Gold.Chemscore.Hbonds>
donor molecule, donor type, donor heavy atom, donor atom, acceptor molecule, acceptor atom, score
      L1  H    12    25       P1   582  0.55
      L1  H    12    26       P1  1131  0.63

> <Gold.PLP.Chemscore.Internal.Correction>
0.0053

