#       Name:                plp ligand
#       Creating user name   aseyller
#       Creation time:       Fri Apr 21 16:32:40 2023


#       File generated by GOLD software.
#

@<TRIPOS>MOLECULE
plp ligand
    27    27     1
SMALL
USER_CHARGES


@<TRIPOS>ATOM
      1 C1           4.9515   0.3042   0.1231 NONPOLAR       1 <1>                0.0000
      2 C2           3.5240   0.1840   0.6603 NONPOLAR       1 <1>                0.0000
      3 O3           2.6097  -0.0498  -0.4431 ACCEPTOR       1 <1>                0.0000
      4 C4           1.3086  -0.1794  -0.1394 NONPOLAR       1 <1>                0.0000
      5 O5           0.9458  -0.1003   1.0103 ACCEPTOR       1 <1>                0.0000
      6 C6           0.3004  -0.4238  -1.2325 NONPOLAR       1 <1>                0.0000
      7 C7          -1.0770  -0.5307  -0.6307 NONPOLAR       1 <1>                0.0000
      8 C8          -1.6023  -1.7726  -0.3222 NONPOLAR       1 <1>                0.0000
      9 C9          -2.8650  -1.8752   0.2303 NONPOLAR       1 <1>                0.0000
     10 C10         -3.6097  -0.7368   0.4775 NONPOLAR       1 <1>                0.0000
     11 C11         -3.0896   0.5117   0.1707 NONPOLAR       1 <1>                0.0000
     12 N12         -3.8416   1.6656   0.4198 DONOR          1 <1>                0.0000
     13 C13         -1.8143   0.6145  -0.3815 NONPOLAR       1 <1>                0.0000
     14 O14         -1.2990   1.8363  -0.6844 DONACC         1 <1>                0.0000
     15 H15          5.0071   1.1373  -0.5776                1 <1>                0.0000
     16 H16          5.6379   0.4797   0.9514                1 <1>                0.0000
     17 H17          5.2266  -0.6188  -0.3874                1 <1>                0.0000
     18 H18          3.4685  -0.6491   1.3610                1 <1>                0.0000
     19 H19          3.2490   1.1070   1.1708                1 <1>                0.0000
     20 H20          0.3243   0.4046  -1.9406                1 <1>                0.0000
     21 H21          0.5437  -1.3515  -1.7504                1 <1>                0.0000
     22 H22         -1.0242  -2.6646  -0.5138                1 <1>                0.0000
     23 H23         -3.2711  -2.8470   0.4693                1 <1>                0.0000
     24 H24         -4.5963  -0.8198   0.9089                1 <1>                0.0000
     25 H25         -4.7277   1.5927   0.8075                1 <1>                0.0000
     26 H26         -3.4765   2.5382   0.2047                1 <1>                0.0000
     27 H27         -0.8035   2.2444   0.0387                1 <1>                0.0000
@<TRIPOS>BOND
    1    1    2 1     
    2    1   15 1     
    3    1   16 1     
    4    1   17 1     
    5    2    3 1     
    6    2   18 1     
    7    2   19 1     
    8    3    4 1     
    9    4    5 2     
   10    4    6 1     
   11    6    7 1     
   12    6   20 1     
   13    6   21 1     
   14    7    8 ar    
   15    7   13 ar    
   16    8    9 ar    
   17    8   22 1     
   18    9   10 ar    
   19    9   23 1     
   20   10   11 ar    
   21   10   24 1     
   22   11   12 1     
   23   11   13 ar    
   24   12   25 1     
   25   12   26 1     
   26   13   14 1     
   27   14   27 1     
@<TRIPOS>SUBSTRUCTURE
      1 ****           1
@<TRIPOS>SET
DONOR_HYDROGENS      STATIC     ATOMS    <user>   **** ""
3 25 26 27
ATOM$RED        STATIC     ATOMS    COLORGROUP SYSTEM
3 25 26 27
