#       Name:                EN300-222203_i001
#       Creating user name   fsindt
#       Creation time:       Wed Mar  1 07:31:11 2023


#       File generated by GOLD software.
#

@<TRIPOS>MOLECULE
EN300-222203_i001|amine_1|mol2|8817|dock17
    17    16     1
SMALL
USER_CHARGES


@<TRIPOS>ATOM
      1 N1          -0.0562 -10.6257   8.0190 N.3            1 <1>                0.0000
      2 C2           0.0899 -11.5485   9.1527 C.3            1 <1>                0.0000
      3 C3          -0.1016 -12.9869   8.6675 C.3            1 <1>                0.0000
      4 C4           1.0324 -13.3571   7.7095 C.3            1 <1>                0.0000
      5 O5           1.0374 -12.4510   6.6046 O.3            1 <1>                0.0000
      6 C6          -0.9634 -11.2236  10.2138 C.3            1 <1>                0.0000
      7 F7          -0.9982 -12.2486  11.1654 F              1 <1>                0.0000
      8 F8          -0.6370 -10.0162  10.8406 F              1 <1>                0.0000
      9 F9          -2.2180 -11.1091   9.6057 F              1 <1>                0.0000
     10 H10          1.0852 -11.4399   9.5835 H              1 <1>                0.0000
     11 H11         -0.0905 -13.6630   9.5223 H              1 <1>                0.0000
     12 H12         -1.0569 -13.0714   8.1496 H              1 <1>                0.0000
     13 H13          1.9859 -13.2958   8.2341 H              1 <1>                0.0000
     14 H14          0.8829 -14.3735   7.3451 H              1 <1>                0.0000
     15 H15          0.2543  -9.6980   8.2656 H              1 <1>                0.0000
     16 H16          0.4368 -10.9684   7.2081 H              1 <1>                0.0000
     17 H17          0.5032 -12.7435   5.8534 H              1 <1>                0.0000
@<TRIPOS>BOND
    1    1    2 1     
    2    1   15 1     
    3    1   16 1     
    4    2    3 1     
    5    2    6 1     
    6    2   10 1     
    7    3    4 1     
    8    3   11 1     
    9    3   12 1     
   10    4    5 1     
   11    4   13 1     
   12    4   14 1     
   13    5   17 1     
   14    6    7 1     
   15    6    8 1     
   16    6    9 1     
@<TRIPOS>SUBSTRUCTURE
      1 ****           1
@<TRIPOS>SET
DONOR_HYDROGENS      STATIC     ATOMS    <user>   **** ""
3 15 16 17
ATOM$RED        STATIC     ATOMS    COLORGROUP SYSTEM
3 15 16 17
@<TRIPOS>COMMENT
> <Gold.Version>
2022.2.0

> <Gold.Id.Protein>
3pbl|protein|mol2

> <Gold.Protein.RotatedTorsions>
[ 1303 1298 1297 1294 ] final  105.85 input  179.99 | X-H torsion
[ 2461 2456 2455 2452 ] final   -1.37 input   30.03 | X-H torsion
[ 2515 2510 2509 2506 ] final   23.38 input  -89.99 | X-H torsion
[ 3721 3712 3711 3710 ] final -174.56 input -179.91 | X-H torsion
[ 3841 3832 3831 3830 ] final -170.34 input -179.91 | X-H torsion
[ 3767 3762 3761 3758 ] final  151.19 input  -89.99 | X-H torsion
[ 2472 2467 2466 2463 ] final    2.69 input  -89.97 | X-H torsion

> <Gold.Protein.ActiveResidues>
 VAL82   VAL86   LEU89   PHE106  VAL107  ASP110  VAL111  MET112  CYS114  THR115 
 CYS181  SER182  ILE183  PHE188  VAL189  ILE190  SER192  SER193  SER196  TRP342 
 PHE345  PHE346  HIS349  VAL350  TYR365  THR369  GLY372  TYR373 

> <Gold.Protein.RotatedAtoms>
    4.6041   -9.9558    4.9261 H   0  0  0  0  0  0  0  0  0  0  0  0  # atno 1303 bound_to 1298
    1.0197   -7.9957    7.0307 H   0  0  0  0  0  0  0  0  0  0  0  0  # atno 2461 bound_to 2456
   -3.8235   -4.8663    8.0384 H   0  0  0  0  0  0  0  0  0  0  0  0  # atno 2472 bound_to 2467
    2.3778   -7.4491    4.9027 H   0  0  0  0  0  0  0  0  0  0  0  0  # atno 2515 bound_to 2510
   -3.3314  -16.5790   13.6232 H   0  0  0  0  0  0  0  0  0  0  0  0  # atno 3721 bound_to 3712
   -3.9219  -22.8836   11.3072 H   0  0  0  0  0  0  0  0  0  0  0  0  # atno 3767 bound_to 3762
    2.8660  -19.9435    8.3729 H   0  0  0  0  0  0  0  0  0  0  0  0  # atno 3841 bound_to 3832
    3.3366   -9.6750    3.9357 LP  0  0  0  0  0  0  0  0  0  0  0  0  # atno 4297 bound_to 1298
    4.4213   -8.4902    4.2296 LP  0  0  0  0  0  0  0  0  0  0  0  0  # atno 4298 bound_to 1298
    0.5909   -9.1829    8.0670 LP  0  0  0  0  0  0  0  0  0  0  0  0  # atno 4299 bound_to 2456
    2.1271   -8.6294    8.0503 LP  0  0  0  0  0  0  0  0  0  0  0  0  # atno 4300 bound_to 2456
    2.8059   -9.0096    4.6851 LP  0  0  0  0  0  0  0  0  0  0  0  0  # atno 4301 bound_to 2510
    2.1131   -8.5408    6.0876 LP  0  0  0  0  0  0  0  0  0  0  0  0  # atno 4302 bound_to 2510
   -2.7650  -18.0450   13.2945 LP  0  0  0  0  0  0  0  0  0  0  0  0  # atno 4306 bound_to 3712
   -2.9166  -17.5406   14.8403 LP  0  0  0  0  0  0  0  0  0  0  0  0  # atno 4307 bound_to 3712
    2.5163  -21.1566    9.3639 LP  0  0  0  0  0  0  0  0  0  0  0  0  # atno 4314 bound_to 3832
    1.4023  -20.0109    9.0279 LP  0  0  0  0  0  0  0  0  0  0  0  0  # atno 4315 bound_to 3832
   -4.9674  -23.0688   10.0664 LP  0  0  0  0  0  0  0  0  0  0  0  0  # atno 4318 bound_to 3762
   -5.2378  -21.9227   11.1977 LP  0  0  0  0  0  0  0  0  0  0  0  0  # atno 4319 bound_to 3762
   -4.4576   -5.4370    9.4307 LP  0  0  0  0  0  0  0  0  0  0  0  0  # atno 4320 bound_to 2467
   -5.4356   -5.0902    8.1699 LP  0  0  0  0  0  0  0  0  0  0  0  0  # atno 4321 bound_to 2467

> <Gold.Score>
     Score     S(PLP)   S(hbond)     S(cho)   S(metal)  DE(clash)   DE(tors)     intcor
     33.75     -31.17       1.00       0.00       0.00       0.00       0.21       0.00

> <Gold.PLP.Fitness>
33.7520

> <Gold.PLP.PLP>
-31.1723

> <Gold.PLP.part.hbond>
-0.8769

> <Gold.PLP.part.metal>
0.0000

> <Gold.PLP.part.buried>
-3.6855

> <Gold.PLP.part.nonpolar>
-27.8505

> <Gold.PLP.part.repulsive>
0.0000

> <Gold.PLP.ligand.clash>
0.0000

> <Gold.PLP.ligand.torsion>
0.2104

> <Gold.PLP.Chemscore.Hbond>
1.0000

> <Gold.PLP.Chemscore.CHOScore>
0.0000

> <Gold.PLP.Chemscore.Metal>
0.0000

> <Gold.Chemscore.Hbonds>
donor molecule, donor type, donor heavy atom, donor atom, acceptor molecule, acceptor atom, score
      L1  H     1    15       P1  2456  1.00

> <Gold.PLP.Chemscore.Internal.Correction>
0.0005

