#       Name:                EN300-222203_i001
#       Creating user name   fsindt
#       Creation time:       Wed Mar  1 07:31:03 2023


#       File generated by GOLD software.
#

@<TRIPOS>MOLECULE
EN300-222203_i001|amine_1|mol2|8817|dock9
    17    16     1
SMALL
USER_CHARGES


@<TRIPOS>ATOM
      1 N1           0.6651 -10.8005   9.1909 N.3            1 <1>                0.0000
      2 C2          -0.3315 -11.6475   8.5219 C.3            1 <1>                0.0000
      3 C3          -1.5050 -11.9006   9.4705 C.3            1 <1>                0.0000
      4 C4          -2.0507 -10.5632   9.9748 C.3            1 <1>                0.0000
      5 O5          -1.0757  -9.9351  10.8095 O.3            1 <1>                0.0000
      6 C6           0.3097 -12.9820   8.1364 C.3            1 <1>                0.0000
      7 F7           0.7685 -13.6291   9.2888 F              1 <1>                0.0000
      8 F8          -0.6383 -13.7870   7.4957 F              1 <1>                0.0000
      9 F9           1.3851 -12.7503   7.2722 F              1 <1>                0.0000
     10 H10         -0.6917 -11.1447   7.6244 H              1 <1>                0.0000
     11 H11         -2.2915 -12.4373   8.9401 H              1 <1>                0.0000
     12 H12         -1.1655 -12.4969  10.3173 H              1 <1>                0.0000
     13 H13         -2.2718  -9.9173   9.1250 H              1 <1>                0.0000
     14 H14         -2.9623 -10.7353  10.5472 H              1 <1>                0.0000
     15 H15          1.5316 -11.2994   9.3256 H              1 <1>                0.0000
     16 H16          0.8163  -9.9454   8.6771 H              1 <1>                0.0000
     17 H17         -0.2934  -9.6229  10.3344 H              1 <1>                0.0000
@<TRIPOS>BOND
    1    1    2 1     
    2    1   15 1     
    3    1   16 1     
    4    2    3 1     
    5    2    6 1     
    6    2   10 1     
    7    3    4 1     
    8    3   11 1     
    9    3   12 1     
   10    4    5 1     
   11    4   13 1     
   12    4   14 1     
   13    5   17 1     
   14    6    7 1     
   15    6    8 1     
   16    6    9 1     
@<TRIPOS>SUBSTRUCTURE
      1 ****           1
@<TRIPOS>SET
DONOR_HYDROGENS      STATIC     ATOMS    <user>   **** ""
3 15 16 17
ATOM$RED        STATIC     ATOMS    COLORGROUP SYSTEM
3 15 16 17
@<TRIPOS>COMMENT
> <Gold.Version>
2022.2.0

> <Gold.Id.Protein>
3pbl|protein|mol2

> <Gold.Protein.RotatedTorsions>
[ 1303 1298 1297 1294 ] final -179.67 input  179.99 | X-H torsion
[ 2461 2456 2455 2452 ] final   64.82 input   30.03 | X-H torsion
[ 2515 2510 2509 2506 ] final -134.13 input  -89.99 | X-H torsion
[ 3721 3712 3711 3710 ] final    5.42 input -179.91 | X-H torsion
[ 3841 3832 3831 3830 ] final  178.50 input -179.91 | X-H torsion
[ 3767 3762 3761 3758 ] final  -13.79 input  -89.99 | X-H torsion
[ 2472 2467 2466 2463 ] final -111.09 input  -89.97 | X-H torsion

> <Gold.Protein.ActiveResidues>
 VAL82   VAL86   LEU89   PHE106  VAL107  ASP110  VAL111  MET112  CYS114  THR115 
 CYS181  SER182  ILE183  PHE188  VAL189  ILE190  SER192  SER193  SER196  TRP342 
 PHE345  PHE346  HIS349  VAL350  TYR365  THR369  GLY372  TYR373 

> <Gold.Protein.RotatedAtoms>
    4.8532   -8.8706    4.6781 H   0  0  0  0  0  0  0  0  0  0  0  0  # atno 1303 bound_to 1298
    1.9663   -8.0652    7.4305 H   0  0  0  0  0  0  0  0  0  0  0  0  # atno 2461 bound_to 2456
   -4.3575   -5.4219    9.4171 H   0  0  0  0  0  0  0  0  0  0  0  0  # atno 2472 bound_to 2467
    2.6357   -9.2532    5.2134 H   0  0  0  0  0  0  0  0  0  0  0  0  # atno 2515 bound_to 2510
   -2.4774  -17.9851   14.1662 H   0  0  0  0  0  0  0  0  0  0  0  0  # atno 3721 bound_to 3712
   -5.4284  -22.5461   10.2524 H   0  0  0  0  0  0  0  0  0  0  0  0  # atno 3767 bound_to 3762
    2.9706  -20.0673    8.4189 H   0  0  0  0  0  0  0  0  0  0  0  0  # atno 3841 bound_to 3832
    4.0127  -10.2699    4.6363 LP  0  0  0  0  0  0  0  0  0  0  0  0  # atno 4297 bound_to 1298
    3.4959   -8.9810    3.7771 LP  0  0  0  0  0  0  0  0  0  0  0  0  # atno 4298 bound_to 1298
    0.3966   -8.5023    7.3193 LP  0  0  0  0  0  0  0  0  0  0  0  0  # atno 4299 bound_to 2456
    1.3751   -9.2405    8.3983 LP  0  0  0  0  0  0  0  0  0  0  0  0  # atno 4300 bound_to 2456
    2.0285   -7.9491    5.9857 LP  0  0  0  0  0  0  0  0  0  0  0  0  # atno 4301 bound_to 2510
    2.6324   -7.7964    4.4762 LP  0  0  0  0  0  0  0  0  0  0  0  0  # atno 4302 bound_to 2510
   -3.4097  -16.7286   14.5267 LP  0  0  0  0  0  0  0  0  0  0  0  0  # atno 4306 bound_to 3712
   -3.2578  -17.2336   12.9812 LP  0  0  0  0  0  0  0  0  0  0  0  0  # atno 4307 bound_to 3712
    2.3507  -21.1336    9.4459 LP  0  0  0  0  0  0  0  0  0  0  0  0  # atno 4314 bound_to 3832
    1.4472  -19.8909    8.8926 LP  0  0  0  0  0  0  0  0  0  0  0  0  # atno 4315 bound_to 3832
   -4.6568  -22.0529   11.6045 LP  0  0  0  0  0  0  0  0  0  0  0  0  # atno 4318 bound_to 3762
   -4.0424  -23.2761   10.7139 LP  0  0  0  0  0  0  0  0  0  0  0  0  # atno 4319 bound_to 3762
   -5.4703   -5.1262    8.2593 LP  0  0  0  0  0  0  0  0  0  0  0  0  # atno 4320 bound_to 2467
   -3.8891   -4.8455    7.9629 LP  0  0  0  0  0  0  0  0  0  0  0  0  # atno 4321 bound_to 2467

> <Gold.Score>
     Score     S(PLP)   S(hbond)     S(cho)   S(metal)  DE(clash)   DE(tors)     intcor
     33.80     -30.87       1.00       0.00       0.00       0.00       0.03       0.00

> <Gold.PLP.Fitness>
33.8043

> <Gold.PLP.PLP>
-30.8681

> <Gold.PLP.part.hbond>
-1.0000

> <Gold.PLP.part.metal>
0.0000

> <Gold.PLP.part.buried>
-3.5162

> <Gold.PLP.part.nonpolar>
-26.3823

> <Gold.PLP.part.repulsive>
0.0000

> <Gold.PLP.ligand.clash>
0.0000

> <Gold.PLP.ligand.torsion>
0.0322

> <Gold.PLP.Chemscore.Hbond>
1.0000

> <Gold.PLP.Chemscore.CHOScore>
0.0000

> <Gold.PLP.Chemscore.Metal>
0.0000

> <Gold.Chemscore.Hbonds>
donor molecule, donor type, donor heavy atom, donor atom, acceptor molecule, acceptor atom, score
      L1  H     1    16       P1  2456  1.00

> <Gold.PLP.Chemscore.Internal.Correction>
0.0005

