#       Name:                EN300-222203_i001
#       Creating user name   fsindt
#       Creation time:       Wed Mar  1 07:31:01 2023


#       File generated by GOLD software.
#

@<TRIPOS>MOLECULE
EN300-222203_i001|amine_1|mol2|8817|dock7
    17    16     1
SMALL
USER_CHARGES


@<TRIPOS>ATOM
      1 N1          -1.9725  -9.1122   9.4448 N.3            1 <1>                0.0000
      2 C2          -2.2471 -10.4944   9.8598 C.3            1 <1>                0.0000
      3 C3          -3.4689 -10.5173  10.7805 C.3            1 <1>                0.0000
      4 C4          -4.6901  -9.9961  10.0203 C.3            1 <1>                0.0000
      5 O5          -5.4970 -11.0987   9.6018 O.3            1 <1>                0.0000
      6 C6          -1.0346 -11.0529  10.6073 C.3            1 <1>                0.0000
      7 F7          -0.7028 -10.1969  11.6630 F              1 <1>                0.0000
      8 F8          -1.3421 -12.3203  11.1136 F              1 <1>                0.0000
      9 F9           0.0497 -11.1521   9.7289 F              1 <1>                0.0000
     10 H10         -2.4443 -11.1057   8.9791 H              1 <1>                0.0000
     11 H11         -3.6555 -11.5391  11.1110 H              1 <1>                0.0000
     12 H12         -3.2826  -9.8833  11.6472 H              1 <1>                0.0000
     13 H13         -5.2734  -9.3457  10.6721 H              1 <1>                0.0000
     14 H14         -4.3613  -9.4341   9.1462 H              1 <1>                0.0000
     15 H15         -2.3627  -8.9239   8.5336 H              1 <1>                0.0000
     16 H16         -2.3164  -8.4544  10.1283 H              1 <1>                0.0000
     17 H17         -6.3641 -10.8436   9.2580 H              1 <1>                0.0000
@<TRIPOS>BOND
    1    1    2 1     
    2    1   15 1     
    3    1   16 1     
    4    2    3 1     
    5    2    6 1     
    6    2   10 1     
    7    3    4 1     
    8    3   11 1     
    9    3   12 1     
   10    4    5 1     
   11    4   13 1     
   12    4   14 1     
   13    5   17 1     
   14    6    7 1     
   15    6    8 1     
   16    6    9 1     
@<TRIPOS>SUBSTRUCTURE
      1 ****           1
@<TRIPOS>SET
DONOR_HYDROGENS      STATIC     ATOMS    <user>   **** ""
3 15 16 17
ATOM$RED        STATIC     ATOMS    COLORGROUP SYSTEM
3 15 16 17
@<TRIPOS>COMMENT
> <Gold.Version>
2022.2.0

> <Gold.Id.Protein>
3pbl|protein|mol2

> <Gold.Protein.RotatedTorsions>
[ 1303 1298 1297 1294 ] final  141.73 input  179.99 | X-H torsion
[ 2461 2456 2455 2452 ] final  102.51 input   30.03 | X-H torsion
[ 2515 2510 2509 2506 ] final  168.46 input  -89.99 | X-H torsion
[ 3721 3712 3711 3710 ] final -126.97 input -179.91 | X-H torsion
[ 3841 3832 3831 3830 ] final   30.12 input -179.91 | X-H torsion
[ 3767 3762 3761 3758 ] final  -99.59 input  -89.99 | X-H torsion
[ 2472 2467 2466 2463 ] final  -70.88 input  -89.97 | X-H torsion

> <Gold.Protein.ActiveResidues>
 VAL82   VAL86   LEU89   PHE106  VAL107  ASP110  VAL111  MET112  CYS114  THR115 
 CYS181  SER182  ILE183  PHE188  VAL189  ILE190  SER192  SER193  SER196  TRP342 
 PHE345  PHE346  HIS349  VAL350  TYR365  THR369  GLY372  TYR373 

> <Gold.Protein.RotatedAtoms>
    4.8793   -9.4445    4.9189 H   0  0  0  0  0  0  0  0  0  0  0  0  # atno 1303 bound_to 1298
    2.1615   -8.4380    7.8711 H   0  0  0  0  0  0  0  0  0  0  0  0  # atno 2461 bound_to 2456
   -3.8189   -5.2487    9.1009 H   0  0  0  0  0  0  0  0  0  0  0  0  # atno 2472 bound_to 2467
    2.2482   -8.9028    5.9529 H   0  0  0  0  0  0  0  0  0  0  0  0  # atno 2515 bound_to 2510
   -3.2517  -16.6104   14.3169 H   0  0  0  0  0  0  0  0  0  0  0  0  # atno 3721 bound_to 3712
   -5.1153  -21.9145   11.3254 H   0  0  0  0  0  0  0  0  0  0  0  0  # atno 3767 bound_to 3762
    2.0677  -20.7851    9.6207 H   0  0  0  0  0  0  0  0  0  0  0  0  # atno 3841 bound_to 3832
    3.5474  -10.1139    4.2524 LP  0  0  0  0  0  0  0  0  0  0  0  0  # atno 4297 bound_to 1298
    3.9352   -8.5629    3.9201 LP  0  0  0  0  0  0  0  0  0  0  0  0  # atno 4298 bound_to 1298
    0.7825   -8.1084    7.0605 LP  0  0  0  0  0  0  0  0  0  0  0  0  # atno 4299 bound_to 2456
    0.7941   -9.2617    8.2166 LP  0  0  0  0  0  0  0  0  0  0  0  0  # atno 4300 bound_to 2456
    2.2133   -7.4174    5.2760 LP  0  0  0  0  0  0  0  0  0  0  0  0  # atno 4301 bound_to 2510
    2.8354   -8.6786    4.4460 LP  0  0  0  0  0  0  0  0  0  0  0  0  # atno 4302 bound_to 2510
   -3.1328  -17.4554   12.9569 LP  0  0  0  0  0  0  0  0  0  0  0  0  # atno 4306 bound_to 3712
   -2.6407  -18.0939   14.3770 LP  0  0  0  0  0  0  0  0  0  0  0  0  # atno 4307 bound_to 3712
    1.7275  -19.6681    8.5195 LP  0  0  0  0  0  0  0  0  0  0  0  0  # atno 4314 bound_to 3832
    3.1133  -20.5273    8.4307 LP  0  0  0  0  0  0  0  0  0  0  0  0  # atno 4315 bound_to 3832
   -3.9072  -23.0032   11.1774 LP  0  0  0  0  0  0  0  0  0  0  0  0  # atno 4318 bound_to 3762
   -5.1050  -22.9570   10.0685 LP  0  0  0  0  0  0  0  0  0  0  0  0  # atno 4319 bound_to 3762
   -5.4326   -5.3419    8.8693 LP  0  0  0  0  0  0  0  0  0  0  0  0  # atno 4320 bound_to 2467
   -4.4653   -4.8030    7.6691 LP  0  0  0  0  0  0  0  0  0  0  0  0  # atno 4321 bound_to 2467

> <Gold.Score>
     Score     S(PLP)   S(hbond)     S(cho)   S(metal)  DE(clash)   DE(tors)     intcor
     43.66     -38.34       2.00       0.00       0.00       0.00       0.34       0.00

> <Gold.PLP.Fitness>
43.6565

> <Gold.PLP.PLP>
-38.3422

> <Gold.PLP.part.hbond>
-3.0000

> <Gold.PLP.part.metal>
0.0000

> <Gold.PLP.part.buried>
-2.6496

> <Gold.PLP.part.nonpolar>
-33.4659

> <Gold.PLP.part.repulsive>
0.0000

> <Gold.PLP.ligand.clash>
0.0000

> <Gold.PLP.ligand.torsion>
0.3431

> <Gold.PLP.Chemscore.Hbond>
2.0000

> <Gold.PLP.Chemscore.CHOScore>
0.0000

> <Gold.PLP.Chemscore.Metal>
0.0000

> <Gold.Chemscore.Hbonds>
donor molecule, donor type, donor heavy atom, donor atom, acceptor molecule, acceptor atom, score
      L1  H     1    16       P1  2398  1.00
      L1  H     5    17       P1  3417  1.00

> <Gold.PLP.Chemscore.Internal.Correction>
0.0005

