#       Name:                EN300-222203_i001
#       Creating user name   fsindt
#       Creation time:       Wed Mar  1 07:30:57 2023


#       File generated by GOLD software.
#

@<TRIPOS>MOLECULE
EN300-222203_i001|amine_1|mol2|8817|dock3
    17    16     1
SMALL
USER_CHARGES


@<TRIPOS>ATOM
      1 N1           0.5724 -11.0986   8.4451 N.3            1 <1>                0.0000
      2 C2           0.2358 -11.9466   9.5965 C.3            1 <1>                0.0000
      3 C3          -0.1376 -13.3471   9.1065 C.3            1 <1>                0.0000
      4 C4           1.0801 -13.9987   8.4483 C.3            1 <1>                0.0000
      5 O5           1.8384 -14.6984   9.4368 O.3            1 <1>                0.0000
      6 C6          -0.9481 -11.3372  10.3499 C.3            1 <1>                0.0000
      7 F7          -0.5908 -10.0758  10.8381 F              1 <1>                0.0000
      8 F8          -2.0377 -11.2098   9.4817 F              1 <1>                0.0000
      9 F9          -1.2985 -12.1688  11.4189 F              1 <1>                0.0000
     10 H10          1.0958 -12.0122  10.2630 H              1 <1>                0.0000
     11 H11         -0.4615 -13.9535   9.9523 H              1 <1>                0.0000
     12 H12         -0.9474 -13.2740   8.3805 H              1 <1>                0.0000
     13 H13          0.7477 -14.6992   7.6821 H              1 <1>                0.0000
     14 H14          1.7017 -13.2286   7.9913 H              1 <1>                0.0000
     15 H15          0.0073 -11.3360   7.6437 H              1 <1>                0.0000
     16 H16          0.4791 -10.1209   8.6766 H              1 <1>                0.0000
     17 H17          2.0411 -15.6143   9.2018 H              1 <1>                0.0000
@<TRIPOS>BOND
    1    1    2 1     
    2    1   15 1     
    3    1   16 1     
    4    2    3 1     
    5    2    6 1     
    6    2   10 1     
    7    3    4 1     
    8    3   11 1     
    9    3   12 1     
   10    4    5 1     
   11    4   13 1     
   12    4   14 1     
   13    5   17 1     
   14    6    7 1     
   15    6    8 1     
   16    6    9 1     
@<TRIPOS>SUBSTRUCTURE
      1 ****           1
@<TRIPOS>SET
DONOR_HYDROGENS      STATIC     ATOMS    <user>   **** ""
3 15 16 17
ATOM$RED        STATIC     ATOMS    COLORGROUP SYSTEM
3 15 16 17
@<TRIPOS>COMMENT
> <Gold.Version>
2022.2.0

> <Gold.Id.Protein>
3pbl|protein|mol2

> <Gold.Protein.RotatedTorsions>
[ 1303 1298 1297 1294 ] final -120.54 input  179.99 | X-H torsion
[ 2461 2456 2455 2452 ] final   73.41 input   30.03 | X-H torsion
[ 2515 2510 2509 2506 ] final    1.29 input  -89.99 | X-H torsion
[ 3721 3712 3711 3710 ] final  115.72 input -179.91 | X-H torsion
[ 3841 3832 3831 3830 ] final -170.50 input -179.91 | X-H torsion
[ 3767 3762 3761 3758 ] final  110.94 input  -89.99 | X-H torsion
[ 2472 2467 2466 2463 ] final  -59.01 input  -89.97 | X-H torsion

> <Gold.Protein.ActiveResidues>
 VAL82   VAL86   LEU89   PHE106  VAL107  ASP110  VAL111  MET112  CYS114  THR115 
 CYS181  SER182  ILE183  PHE188  VAL189  ILE190  SER192  SER193  SER196  TRP342 
 PHE345  PHE346  HIS349  VAL350  TYR365  THR369  GLY372  TYR373 

> <Gold.Protein.RotatedAtoms>
    4.2404   -8.4770    4.0994 H   0  0  0  0  0  0  0  0  0  0  0  0  # atno 1303 bound_to 1298
    2.0426   -8.1348    7.5268 H   0  0  0  0  0  0  0  0  0  0  0  0  # atno 2461 bound_to 2456
   -3.7201   -5.1821    8.9464 H   0  0  0  0  0  0  0  0  0  0  0  0  # atno 2472 bound_to 2467
    2.5322   -7.6158    4.6219 H   0  0  0  0  0  0  0  0  0  0  0  0  # atno 2515 bound_to 2510
   -2.9770  -17.2893   13.0314 H   0  0  0  0  0  0  0  0  0  0  0  0  # atno 3721 bound_to 3712
   -4.0074  -23.2500   10.7784 H   0  0  0  0  0  0  0  0  0  0  0  0  # atno 3767 bound_to 3762
    2.8678  -19.9453    8.3734 H   0  0  0  0  0  0  0  0  0  0  0  0  # atno 3841 bound_to 3832
    4.7382   -9.7789    4.9500 LP  0  0  0  0  0  0  0  0  0  0  0  0  # atno 4297 bound_to 1298
    3.3835   -9.8658    4.0423 LP  0  0  0  0  0  0  0  0  0  0  0  0  # atno 4298 bound_to 1298
    0.4571   -8.4022    7.2403 LP  0  0  0  0  0  0  0  0  0  0  0  0  # atno 4299 bound_to 2456
    1.2384   -9.2710    8.3810 LP  0  0  0  0  0  0  0  0  0  0  0  0  # atno 4300 bound_to 2456
    2.7210   -9.1971    4.9821 LP  0  0  0  0  0  0  0  0  0  0  0  0  # atno 4301 bound_to 2510
    2.0435   -8.1866    6.0715 LP  0  0  0  0  0  0  0  0  0  0  0  0  # atno 4302 bound_to 2510
   -2.6416  -18.0918   14.3810 LP  0  0  0  0  0  0  0  0  0  0  0  0  # atno 4306 bound_to 3712
   -3.4492  -16.6736   14.4370 LP  0  0  0  0  0  0  0  0  0  0  0  0  # atno 4307 bound_to 3712
    2.5139  -21.1565    9.3653 LP  0  0  0  0  0  0  0  0  0  0  0  0  # atno 4314 bound_to 3832
    1.4027  -20.0090    9.0259 LP  0  0  0  0  0  0  0  0  0  0  0  0  # atno 4315 bound_to 3832
   -5.3970  -22.6051   10.2126 LP  0  0  0  0  0  0  0  0  0  0  0  0  # atno 4318 bound_to 3762
   -4.7227  -22.0202   11.5801 LP  0  0  0  0  0  0  0  0  0  0  0  0  # atno 4319 bound_to 3762
   -5.3374   -5.3903    9.0325 LP  0  0  0  0  0  0  0  0  0  0  0  0  # atno 4320 bound_to 2467
   -4.6593   -4.8211    7.6603 LP  0  0  0  0  0  0  0  0  0  0  0  0  # atno 4321 bound_to 2467

> <Gold.Score>
     Score     S(PLP)   S(hbond)     S(cho)   S(metal)  DE(clash)   DE(tors)     intcor
     36.81     -31.99       1.74       0.00       0.00       0.00       0.19       0.00

> <Gold.PLP.Fitness>
36.8143

> <Gold.PLP.PLP>
-31.9936

> <Gold.PLP.part.hbond>
-2.0000

> <Gold.PLP.part.metal>
0.0000

> <Gold.PLP.part.buried>
-3.4929

> <Gold.PLP.part.nonpolar>
-26.9142

> <Gold.PLP.part.repulsive>
0.0000

> <Gold.PLP.ligand.clash>
0.0000

> <Gold.PLP.ligand.torsion>
0.1939

> <Gold.PLP.Chemscore.Hbond>
1.7360

> <Gold.PLP.Chemscore.CHOScore>
0.0000

> <Gold.PLP.Chemscore.Metal>
0.0000

> <Gold.Chemscore.Hbonds>
donor molecule, donor type, donor heavy atom, donor atom, acceptor molecule, acceptor atom, score
      L1  H     1    16       P1  2456  0.74
      L1  H     5    17       P1  1227  1.00

> <Gold.PLP.Chemscore.Internal.Correction>
0.0005

