#       Name:                EN300-222203_i001
#       Creating user name   fsindt
#       Creation time:       Wed Mar  1 07:31:00 2023


#       File generated by GOLD software.
#

@<TRIPOS>MOLECULE
EN300-222203_i001|amine_1|mol2|8817|dock6
    17    16     1
SMALL
USER_CHARGES


@<TRIPOS>ATOM
      1 N1           1.7980 -15.2509   7.9340 N.3            1 <1>                0.0000
      2 C2           1.1758 -14.0943   8.5920 C.3            1 <1>                0.0000
      3 C3           0.1592 -14.5819   9.6263 C.3            1 <1>                0.0000
      4 C4           0.8203 -14.6363  11.0050 C.3            1 <1>                0.0000
      5 O5           2.0622 -15.3369  10.9104 O.3            1 <1>                0.0000
      6 C6           0.4657 -13.2332   7.5456 C.3            1 <1>                0.0000
      7 F7           1.4051 -12.7351   6.6363 F              1 <1>                0.0000
      8 F8          -0.4768 -14.0104   6.8637 F              1 <1>                0.0000
      9 F9          -0.1804 -12.1667   8.1797 F              1 <1>                0.0000
     10 H10          1.9443 -13.5023   9.0890 H              1 <1>                0.0000
     11 H11         -0.6868 -13.8953   9.6558 H              1 <1>                0.0000
     12 H12         -0.1900 -15.5771   9.3514 H              1 <1>                0.0000
     13 H13          1.0015 -13.6222  11.3613 H              1 <1>                0.0000
     14 H14          0.1630 -15.1547  11.7030 H              1 <1>                0.0000
     15 H15          2.5954 -14.9684   7.3842 H              1 <1>                0.0000
     16 H16          2.0555 -15.9555   8.6088 H              1 <1>                0.0000
     17 H17          2.0826 -16.0093  10.2157 H              1 <1>                0.0000
@<TRIPOS>BOND
    1    1    2 1     
    2    1   15 1     
    3    1   16 1     
    4    2    3 1     
    5    2    6 1     
    6    2   10 1     
    7    3    4 1     
    8    3   11 1     
    9    3   12 1     
   10    4    5 1     
   11    4   13 1     
   12    4   14 1     
   13    5   17 1     
   14    6    7 1     
   15    6    8 1     
   16    6    9 1     
@<TRIPOS>SUBSTRUCTURE
      1 ****           1
@<TRIPOS>SET
DONOR_HYDROGENS      STATIC     ATOMS    <user>   **** ""
3 15 16 17
ATOM$RED        STATIC     ATOMS    COLORGROUP SYSTEM
3 15 16 17
@<TRIPOS>COMMENT
> <Gold.Version>
2022.2.0

> <Gold.Id.Protein>
3pbl|protein|mol2

> <Gold.Protein.RotatedTorsions>
[ 1303 1298 1297 1294 ] final  -43.69 input  179.99 | X-H torsion
[ 2461 2456 2455 2452 ] final   -0.26 input   30.03 | X-H torsion
[ 2515 2510 2509 2506 ] final  165.73 input  -89.99 | X-H torsion
[ 3721 3712 3711 3710 ] final   83.91 input -179.91 | X-H torsion
[ 3841 3832 3831 3830 ] final  -78.03 input -179.91 | X-H torsion
[ 3767 3762 3761 3758 ] final -139.82 input  -89.99 | X-H torsion
[ 2472 2467 2466 2463 ] final  136.09 input  -89.97 | X-H torsion

> <Gold.Protein.ActiveResidues>
 VAL82   VAL86   LEU89   PHE106  VAL107  ASP110  VAL111  MET112  CYS114  THR115 
 CYS181  SER182  ILE183  PHE188  VAL189  ILE190  SER192  SER193  SER196  TRP342 
 PHE345  PHE346  HIS349  VAL350  TYR365  THR369  GLY372  TYR373 

> <Gold.Protein.RotatedAtoms>
    3.3864   -9.2185    3.7937 H   0  0  0  0  0  0  0  0  0  0  0  0  # atno 1303 bound_to 1298
    1.0369   -7.9896    7.0306 H   0  0  0  0  0  0  0  0  0  0  0  0  # atno 2461 bound_to 2456
   -5.4970   -5.1685    8.3661 H   0  0  0  0  0  0  0  0  0  0  0  0  # atno 2472 bound_to 2467
    2.2313   -8.8676    5.9748 H   0  0  0  0  0  0  0  0  0  0  0  0  # atno 2515 bound_to 2510
   -2.7402  -17.6848   13.1454 H   0  0  0  0  0  0  0  0  0  0  0  0  # atno 3721 bound_to 3712
   -4.5725  -22.0997   11.6281 H   0  0  0  0  0  0  0  0  0  0  0  0  # atno 3767 bound_to 3762
    1.7363  -19.6746    8.8316 H   0  0  0  0  0  0  0  0  0  0  0  0  # atno 3841 bound_to 3832
    4.7433   -8.6852    4.5291 LP  0  0  0  0  0  0  0  0  0  0  0  0  # atno 4297 bound_to 1298
    4.2328  -10.2177    4.7690 LP  0  0  0  0  0  0  0  0  0  0  0  0  # atno 4298 bound_to 1298
    0.5786   -9.1757    8.0555 LP  0  0  0  0  0  0  0  0  0  0  0  0  # atno 4299 bound_to 2456
    2.1221   -8.6426    8.0618 LP  0  0  0  0  0  0  0  0  0  0  0  0  # atno 4300 bound_to 2456
    2.2296   -7.4123    5.2347 LP  0  0  0  0  0  0  0  0  0  0  0  0  # atno 4301 bound_to 2510
    2.8359   -8.7190    4.4654 LP  0  0  0  0  0  0  0  0  0  0  0  0  # atno 4302 bound_to 2510
   -2.8028  -17.7534   14.7483 LP  0  0  0  0  0  0  0  0  0  0  0  0  # atno 4306 bound_to 3712
   -3.5612  -16.5555   13.9381 LP  0  0  0  0  0  0  0  0  0  0  0  0  # atno 4307 bound_to 3712
    3.0783  -20.4098    8.3472 LP  0  0  0  0  0  0  0  0  0  0  0  0  # atno 4314 bound_to 3832
    2.1453  -21.0683    9.5145 LP  0  0  0  0  0  0  0  0  0  0  0  0  # atno 4315 bound_to 3832
   -4.0929  -23.3024   10.6329 LP  0  0  0  0  0  0  0  0  0  0  0  0  # atno 4318 bound_to 3762
   -5.4620  -22.4728   10.3104 LP  0  0  0  0  0  0  0  0  0  0  0  0  # atno 4319 bound_to 3762
   -3.9749   -4.8264    7.8838 LP  0  0  0  0  0  0  0  0  0  0  0  0  # atno 4320 bound_to 2467
   -4.2452   -5.3987    9.3892 LP  0  0  0  0  0  0  0  0  0  0  0  0  # atno 4321 bound_to 2467

> <Gold.Score>
     Score     S(PLP)   S(hbond)     S(cho)   S(metal)  DE(clash)   DE(tors)     intcor
     36.73     -29.53       2.74       0.00       0.00       0.00       0.51       0.00

> <Gold.PLP.Fitness>
36.7303

> <Gold.PLP.PLP>
-29.5301

> <Gold.PLP.part.hbond>
-3.0000

> <Gold.PLP.part.metal>
0.0000

> <Gold.PLP.part.buried>
-2.9870

> <Gold.PLP.part.nonpolar>
-24.4645

> <Gold.PLP.part.repulsive>
0.0000

> <Gold.PLP.ligand.clash>
0.0000

> <Gold.PLP.ligand.torsion>
0.5150

> <Gold.PLP.Chemscore.Hbond>
2.7432

> <Gold.PLP.Chemscore.CHOScore>
0.0000

> <Gold.PLP.Chemscore.Metal>
0.0000

> <Gold.Chemscore.Hbonds>
donor molecule, donor type, donor heavy atom, donor atom, acceptor molecule, acceptor atom, score
      L1  H     1    15       P1  1223  0.74
      L1  H     1    16       P1  1227  1.00
      L1  H     5    17       P1  1227  1.00

> <Gold.PLP.Chemscore.Internal.Correction>
0.0005

