#       Name:                EN300-222203_i001
#       Creating user name   fsindt
#       Creation time:       Wed Mar  1 07:31:10 2023


#       File generated by GOLD software.
#

@<TRIPOS>MOLECULE
EN300-222203_i001|amine_1|mol2|8817|dock16
    17    16     1
SMALL
USER_CHARGES


@<TRIPOS>ATOM
      1 N1           1.7918 -18.7042  12.1354 N.3            1 <1>                0.0000
      2 C2           0.7038 -17.9397  12.7598 C.3            1 <1>                0.0000
      3 C3          -0.2563 -17.4421  11.6774 C.3            1 <1>                0.0000
      4 C4          -0.6173 -18.5998  10.7446 C.3            1 <1>                0.0000
      5 O5           0.4957 -18.8941   9.8980 O.3            1 <1>                0.0000
      6 C6           1.2883 -16.7428  13.5126 C.3            1 <1>                0.0000
      7 F7           1.9991 -15.9328  12.6205 F              1 <1>                0.0000
      8 F8           0.2506 -16.0026  14.0892 F              1 <1>                0.0000
      9 F9           2.1496 -17.1985  14.5163 F              1 <1>                0.0000
     10 H10          0.1642 -18.5797  13.4578 H              1 <1>                0.0000
     11 H11         -1.1621 -17.0561  12.1449 H              1 <1>                0.0000
     12 H12          0.2227 -16.6489  11.1036 H              1 <1>                0.0000
     13 H13         -0.8658 -19.4801  11.3373 H              1 <1>                0.0000
     14 H14         -1.4749 -18.3197  10.1329 H              1 <1>                0.0000
     15 H15          2.1230 -18.2455  11.3001 H              1 <1>                0.0000
     16 H16          2.5465 -18.8573  12.7874 H              1 <1>                0.0000
     17 H17          1.0414 -18.1250   9.6839 H              1 <1>                0.0000
@<TRIPOS>BOND
    1    1    2 1     
    2    1   15 1     
    3    1   16 1     
    4    2    3 1     
    5    2    6 1     
    6    2   10 1     
    7    3    4 1     
    8    3   11 1     
    9    3   12 1     
   10    4    5 1     
   11    4   13 1     
   12    4   14 1     
   13    5   17 1     
   14    6    7 1     
   15    6    8 1     
   16    6    9 1     
@<TRIPOS>SUBSTRUCTURE
      1 ****           1
@<TRIPOS>SET
DONOR_HYDROGENS      STATIC     ATOMS    <user>   **** ""
3 15 16 17
ATOM$RED        STATIC     ATOMS    COLORGROUP SYSTEM
3 15 16 17
@<TRIPOS>COMMENT
> <Gold.Version>
2022.2.0

> <Gold.Id.Protein>
3pbl|protein|mol2

> <Gold.Protein.RotatedTorsions>
[ 1303 1298 1297 1294 ] final  130.34 input  179.99 | X-H torsion
[ 2461 2456 2455 2452 ] final  -24.15 input   30.03 | X-H torsion
[ 2515 2510 2509 2506 ] final  169.33 input  -89.99 | X-H torsion
[ 3721 3712 3711 3710 ] final  -71.44 input -179.91 | X-H torsion
[ 3841 3832 3831 3830 ] final  -26.36 input -179.91 | X-H torsion
[ 3767 3762 3761 3758 ] final  100.23 input  -89.99 | X-H torsion
[ 2472 2467 2466 2463 ] final  -53.23 input  -89.97 | X-H torsion

> <Gold.Protein.ActiveResidues>
 VAL82   VAL86   LEU89   PHE106  VAL107  ASP110  VAL111  MET112  CYS114  THR115 
 CYS181  SER182  ILE183  PHE188  VAL189  ILE190  SER192  SER193  SER196  TRP342 
 PHE345  PHE346  HIS349  VAL350  TYR365  THR369  GLY372  TYR373 

> <Gold.Protein.RotatedAtoms>
    4.8201   -9.6201    4.9459 H   0  0  0  0  0  0  0  0  0  0  0  0  # atno 1303 bound_to 1298
    0.6938   -8.1668    7.0879 H   0  0  0  0  0  0  0  0  0  0  0  0  # atno 2461 bound_to 2456
   -3.6850   -5.1488    8.8647 H   0  0  0  0  0  0  0  0  0  0  0  0  # atno 2472 bound_to 2467
    2.2537   -8.9139    5.9455 H   0  0  0  0  0  0  0  0  0  0  0  0  # atno 2515 bound_to 2510
   -2.8857  -17.1812   14.7546 H   0  0  0  0  0  0  0  0  0  0  0  0  # atno 3721 bound_to 3712
   -4.0919  -23.3018   10.6331 H   0  0  0  0  0  0  0  0  0  0  0  0  # atno 3767 bound_to 3762
    1.5804  -20.1740    9.3753 H   0  0  0  0  0  0  0  0  0  0  0  0  # atno 3841 bound_to 3832
    3.4509   -9.9987    4.1407 LP  0  0  0  0  0  0  0  0  0  0  0  0  # atno 4297 bound_to 1298
    4.0909   -8.5025    4.0048 LP  0  0  0  0  0  0  0  0  0  0  0  0  # atno 4298 bound_to 1298
    0.8895   -9.2793    8.2675 LP  0  0  0  0  0  0  0  0  0  0  0  0  # atno 4299 bound_to 2456
    2.1542   -8.3619    7.7925 LP  0  0  0  0  0  0  0  0  0  0  0  0  # atno 4300 bound_to 2456
    2.2081   -7.4195    5.2894 LP  0  0  0  0  0  0  0  0  0  0  0  0  # atno 4301 bound_to 2510
    2.8350   -8.6654    4.4401 LP  0  0  0  0  0  0  0  0  0  0  0  0  # atno 4302 bound_to 2510
   -3.5072  -16.7425   13.3407 LP  0  0  0  0  0  0  0  0  0  0  0  0  # atno 4306 bound_to 3712
   -2.6889  -18.1479   13.4879 LP  0  0  0  0  0  0  0  0  0  0  0  0  # atno 4307 bound_to 3712
    2.5391  -19.8071    8.1415 LP  0  0  0  0  0  0  0  0  0  0  0  0  # atno 4314 bound_to 3832
    2.8646  -21.0942    9.0923 LP  0  0  0  0  0  0  0  0  0  0  0  0  # atno 4315 bound_to 3832
   -5.4617  -22.4736   10.3097 LP  0  0  0  0  0  0  0  0  0  0  0  0  # atno 4318 bound_to 3762
   -4.5736  -22.0999   11.6282 LP  0  0  0  0  0  0  0  0  0  0  0  0  # atno 4319 bound_to 3762
   -5.2790   -5.4099    9.1047 LP  0  0  0  0  0  0  0  0  0  0  0  0  # atno 4320 bound_to 2467
   -4.7527   -4.8348    7.6698 LP  0  0  0  0  0  0  0  0  0  0  0  0  # atno 4321 bound_to 2467

> <Gold.Score>
     Score     S(PLP)   S(hbond)     S(cho)   S(metal)  DE(clash)   DE(tors)     intcor
     35.54     -27.25       2.84       0.00       0.00       0.00       0.12       0.00

> <Gold.PLP.Fitness>
35.5379

> <Gold.PLP.PLP>
-27.2497

> <Gold.PLP.part.hbond>
-3.0000

> <Gold.PLP.part.metal>
0.0000

> <Gold.PLP.part.buried>
-3.1016

> <Gold.PLP.part.nonpolar>
-22.0602

> <Gold.PLP.part.repulsive>
0.0000

> <Gold.PLP.ligand.clash>
0.0000

> <Gold.PLP.ligand.torsion>
0.1161

> <Gold.PLP.Chemscore.Hbond>
2.8400

> <Gold.PLP.Chemscore.CHOScore>
0.0000

> <Gold.PLP.Chemscore.Metal>
0.0000

> <Gold.Chemscore.Hbonds>
donor molecule, donor type, donor heavy atom, donor atom, acceptor molecule, acceptor atom, score
      L1  H     1    15       P1  1227  1.00
      L1  H     5    17       P1  1227  0.88
      P1  H  3832  3841       L1     5  0.96

> <Gold.PLP.Chemscore.Internal.Correction>
0.0005

