#       Name:                EN300-222203_i001
#       Creating user name   fsindt
#       Creation time:       Wed Mar  1 07:31:08 2023


#       File generated by GOLD software.
#

@<TRIPOS>MOLECULE
EN300-222203_i001|amine_1|mol2|8817|dock14
    17    16     1
SMALL
USER_CHARGES


@<TRIPOS>ATOM
      1 N1           0.5923 -10.6040   9.9164 N.3            1 <1>                0.0000
      2 C2          -0.5414 -11.5142   9.7058 C.3            1 <1>                0.0000
      3 C3          -0.5703 -11.9629   8.2433 C.3            1 <1>                0.0000
      4 C4           0.7478 -12.6583   7.8971 C.3            1 <1>                0.0000
      5 O5           0.8864 -13.8386   8.6907 O.3            1 <1>                0.0000
      6 C6          -1.8462 -10.7900  10.0430 C.3            1 <1>                0.0000
      7 F7          -1.8776 -10.4984  11.4110 F              1 <1>                0.0000
      8 F8          -1.9221  -9.6004   9.3108 F              1 <1>                0.0000
      9 F9          -2.9321 -11.6091   9.7159 F              1 <1>                0.0000
     10 H10         -0.4322 -12.3857  10.3511 H              1 <1>                0.0000
     11 H11         -1.3976 -12.6562   8.0924 H              1 <1>                0.0000
     12 H12         -0.7026 -11.0936   7.5992 H              1 <1>                0.0000
     13 H13          0.7498 -12.9282   6.8410 H              1 <1>                0.0000
     14 H14          1.5792 -11.9836   8.1012 H              1 <1>                0.0000
     15 H15          0.8296 -10.1187   9.0643 H              1 <1>                0.0000
     16 H16          0.3990  -9.9521  10.6620 H              1 <1>                0.0000
     17 H17          0.0557 -14.3093   8.8440 H              1 <1>                0.0000
@<TRIPOS>BOND
    1    1    2 1     
    2    1   15 1     
    3    1   16 1     
    4    2    3 1     
    5    2    6 1     
    6    2   10 1     
    7    3    4 1     
    8    3   11 1     
    9    3   12 1     
   10    4    5 1     
   11    4   13 1     
   12    4   14 1     
   13    5   17 1     
   14    6    7 1     
   15    6    8 1     
   16    6    9 1     
@<TRIPOS>SUBSTRUCTURE
      1 ****           1
@<TRIPOS>SET
DONOR_HYDROGENS      STATIC     ATOMS    <user>   **** ""
3 15 16 17
ATOM$RED        STATIC     ATOMS    COLORGROUP SYSTEM
3 15 16 17
@<TRIPOS>COMMENT
> <Gold.Version>
2022.2.0

> <Gold.Id.Protein>
3pbl|protein|mol2

> <Gold.Protein.RotatedTorsions>
[ 1303 1298 1297 1294 ] final   24.83 input  179.99 | X-H torsion
[ 2461 2456 2455 2452 ] final   74.68 input   30.03 | X-H torsion
[ 2515 2510 2509 2506 ] final -125.36 input  -89.99 | X-H torsion
[ 3721 3712 3711 3710 ] final  -34.57 input -179.91 | X-H torsion
[ 3841 3832 3831 3830 ] final  -53.74 input -179.91 | X-H torsion
[ 3767 3762 3761 3758 ] final  -84.71 input  -89.99 | X-H torsion
[ 2472 2467 2466 2463 ] final  177.56 input  -89.97 | X-H torsion

> <Gold.Protein.ActiveResidues>
 VAL82   VAL86   LEU89   PHE106  VAL107  ASP110  VAL111  MET112  CYS114  THR115 
 CYS181  SER182  ILE183  PHE188  VAL189  ILE190  SER192  SER193  SER196  TRP342 
 PHE345  PHE346  HIS349  VAL350  TYR365  THR369  GLY372  TYR373 

> <Gold.Protein.RotatedAtoms>
    3.5775  -10.1400    4.2841 H   0  0  0  0  0  0  0  0  0  0  0  0  # atno 1303 bound_to 1298
    2.0524   -8.1461    7.5415 H   0  0  0  0  0  0  0  0  0  0  0  0  # atno 2461 bound_to 2456
   -5.3685   -5.3781    8.9869 H   0  0  0  0  0  0  0  0  0  0  0  0  # atno 2472 bound_to 2467
    2.6865   -9.2290    5.0807 H   0  0  0  0  0  0  0  0  0  0  0  0  # atno 2515 bound_to 2510
   -2.6290  -17.6487   14.6294 H   0  0  0  0  0  0  0  0  0  0  0  0  # atno 3721 bound_to 3712
   -5.2793  -21.9315   11.1452 H   0  0  0  0  0  0  0  0  0  0  0  0  # atno 3767 bound_to 3762
    1.5870  -19.8708    9.0998 H   0  0  0  0  0  0  0  0  0  0  0  0  # atno 3841 bound_to 3832
    3.8941   -8.5848    3.9000 LP  0  0  0  0  0  0  0  0  0  0  0  0  # atno 4297 bound_to 1298
    4.8908   -9.3962    4.9075 LP  0  0  0  0  0  0  0  0  0  0  0  0  # atno 4298 bound_to 1298
    0.4676   -8.3876    7.2294 LP  0  0  0  0  0  0  0  0  0  0  0  0  # atno 4299 bound_to 2456
    1.2180   -9.2743    8.3772 LP  0  0  0  0  0  0  0  0  0  0  0  0  # atno 4300 bound_to 2456
    2.0335   -8.0818    6.0417 LP  0  0  0  0  0  0  0  0  0  0  0  0  # atno 4301 bound_to 2510
    2.5766   -7.6879    4.5529 LP  0  0  0  0  0  0  0  0  0  0  0  0  # atno 4302 bound_to 2510
   -3.5630  -16.5561   13.9141 LP  0  0  0  0  0  0  0  0  0  0  0  0  # atno 4306 bound_to 3712
   -2.9294  -17.7946   13.0590 LP  0  0  0  0  0  0  0  0  0  0  0  0  # atno 4307 bound_to 3712
    2.8862  -20.0953    8.1845 LP  0  0  0  0  0  0  0  0  0  0  0  0  # atno 4314 bound_to 3832
    2.5100  -21.1563    9.3675 LP  0  0  0  0  0  0  0  0  0  0  0  0  # atno 4315 bound_to 3832
   -3.9357  -22.8360   11.3531 LP  0  0  0  0  0  0  0  0  0  0  0  0  # atno 4318 bound_to 3762
   -4.9125  -23.1073   10.0729 LP  0  0  0  0  0  0  0  0  0  0  0  0  # atno 4319 bound_to 3762
   -4.6034   -4.8145    7.6589 LP  0  0  0  0  0  0  0  0  0  0  0  0  # atno 4320 bound_to 2467
   -3.7452   -5.2010    8.9934 LP  0  0  0  0  0  0  0  0  0  0  0  0  # atno 4321 bound_to 2467

> <Gold.Score>
     Score     S(PLP)   S(hbond)     S(cho)   S(metal)  DE(clash)   DE(tors)     intcor
     32.91     -30.03       1.00       0.00       0.00       0.00       0.06       0.00

> <Gold.PLP.Fitness>
32.9122

> <Gold.PLP.PLP>
-30.0251

> <Gold.PLP.part.hbond>
-1.0000

> <Gold.PLP.part.metal>
0.0000

> <Gold.PLP.part.buried>
-2.9012

> <Gold.PLP.part.nonpolar>
-26.8352

> <Gold.PLP.part.repulsive>
0.0000

> <Gold.PLP.ligand.clash>
0.0000

> <Gold.PLP.ligand.torsion>
0.0567

> <Gold.PLP.Chemscore.Hbond>
1.0000

> <Gold.PLP.Chemscore.CHOScore>
0.0000

> <Gold.PLP.Chemscore.Metal>
0.0000

> <Gold.Chemscore.Hbonds>
donor molecule, donor type, donor heavy atom, donor atom, acceptor molecule, acceptor atom, score
      L1  H     1    15       P1  2456  1.00

> <Gold.PLP.Chemscore.Internal.Correction>
0.0005

