#       Name:                EN300-222203_i001
#       Creating user name   fsindt
#       Creation time:       Wed Mar  1 07:31:06 2023


#       File generated by GOLD software.
#

@<TRIPOS>MOLECULE
EN300-222203_i001|amine_1|mol2|8817|dock12
    17    16     1
SMALL
USER_CHARGES


@<TRIPOS>ATOM
      1 N1          -1.2682 -12.8469  11.9841 N.3            1 <1>                0.0000
      2 C2          -1.2439 -12.5306  10.5497 C.3            1 <1>                0.0000
      3 C3           0.1325 -12.8724   9.9753 C.3            1 <1>                0.0000
      4 C4           0.3164 -14.3912   9.9612 C.3            1 <1>                0.0000
      5 O5           1.6318 -14.7074   9.5010 O.3            1 <1>                0.0000
      6 C6          -1.5234 -11.0396  10.3513 C.3            1 <1>                0.0000
      7 F7          -2.8522 -10.7649  10.6923 F              1 <1>                0.0000
      8 F8          -0.6683 -10.2921  11.1682 F              1 <1>                0.0000
      9 F9          -1.3055 -10.6983   9.0123 F              1 <1>                0.0000
     10 H10         -2.0073 -13.1149  10.0359 H              1 <1>                0.0000
     11 H11          0.2072 -12.4878   8.9582 H              1 <1>                0.0000
     12 H12          0.9069 -12.4183  10.5933 H              1 <1>                0.0000
     13 H13          0.1801 -14.7831  10.9692 H              1 <1>                0.0000
     14 H14         -0.4196 -14.8401   9.2942 H              1 <1>                0.0000
     15 H15         -1.0194 -12.0401  12.5365 H              1 <1>                0.0000
     16 H16         -2.1686 -13.2097  12.2591 H              1 <1>                0.0000
     17 H17          1.8024 -15.6557   9.4187 H              1 <1>                0.0000
@<TRIPOS>BOND
    1    1    2 1     
    2    1   15 1     
    3    1   16 1     
    4    2    3 1     
    5    2    6 1     
    6    2   10 1     
    7    3    4 1     
    8    3   11 1     
    9    3   12 1     
   10    4    5 1     
   11    4   13 1     
   12    4   14 1     
   13    5   17 1     
   14    6    7 1     
   15    6    8 1     
   16    6    9 1     
@<TRIPOS>SUBSTRUCTURE
      1 ****           1
@<TRIPOS>SET
DONOR_HYDROGENS      STATIC     ATOMS    <user>   **** ""
3 15 16 17
ATOM$RED        STATIC     ATOMS    COLORGROUP SYSTEM
3 15 16 17
@<TRIPOS>COMMENT
> <Gold.Version>
2022.2.0

> <Gold.Id.Protein>
3pbl|protein|mol2

> <Gold.Protein.RotatedTorsions>
[ 1303 1298 1297 1294 ] final  -97.52 input  179.99 | X-H torsion
[ 2461 2456 2455 2452 ] final  125.20 input   30.03 | X-H torsion
[ 2515 2510 2509 2506 ] final   78.35 input  -89.99 | X-H torsion
[ 3721 3712 3711 3710 ] final   72.05 input -179.91 | X-H torsion
[ 3841 3832 3831 3830 ] final  131.84 input -179.91 | X-H torsion
[ 3767 3762 3761 3758 ] final  106.29 input  -89.99 | X-H torsion
[ 2472 2467 2466 2463 ] final  -85.02 input  -89.97 | X-H torsion

> <Gold.Protein.ActiveResidues>
 VAL82   VAL86   LEU89   PHE106  VAL107  ASP110  VAL111  MET112  CYS114  THR115 
 CYS181  SER182  ILE183  PHE188  VAL189  ILE190  SER192  SER193  SER196  TRP342 
 PHE345  PHE346  HIS349  VAL350  TYR365  THR369  GLY372  TYR373 

> <Gold.Protein.RotatedAtoms>
    3.9251   -8.5680    3.9156 H   0  0  0  0  0  0  0  0  0  0  0  0  # atno 1303 bound_to 1298
    2.0932   -8.7077    8.1167 H   0  0  0  0  0  0  0  0  0  0  0  0  # atno 2461 bound_to 2456
   -3.9781   -5.3211    9.2533 H   0  0  0  0  0  0  0  0  0  0  0  0  # atno 2472 bound_to 2467
    2.0736   -7.6041    5.7029 H   0  0  0  0  0  0  0  0  0  0  0  0  # atno 2515 bound_to 2510
   -2.6611  -17.8068   13.2497 H   0  0  0  0  0  0  0  0  0  0  0  0  # atno 3721 bound_to 3712
   -4.0413  -23.2753   10.7146 H   0  0  0  0  0  0  0  0  0  0  0  0  # atno 3767 bound_to 3762
    3.1234  -20.6094    8.8097 H   0  0  0  0  0  0  0  0  0  0  0  0  # atno 3841 bound_to 3832
    4.8826   -9.4331    4.9161 LP  0  0  0  0  0  0  0  0  0  0  0  0  # atno 4297 bound_to 1298
    3.5546  -10.1205    4.2600 LP  0  0  0  0  0  0  0  0  0  0  0  0  # atno 4298 bound_to 1298
    1.1228   -7.9633    7.0343 LP  0  0  0  0  0  0  0  0  0  0  0  0  # atno 4299 bound_to 2456
    0.5220   -9.1372    7.9973 LP  0  0  0  0  0  0  0  0  0  0  0  0  # atno 4300 bound_to 2456
    2.7717   -8.2052    4.3548 LP  0  0  0  0  0  0  0  0  0  0  0  0  # atno 4301 bound_to 2510
    2.4515   -9.1902    5.6173 LP  0  0  0  0  0  0  0  0  0  0  0  0  # atno 4302 bound_to 2510
   -2.8884  -17.5922   14.8246 LP  0  0  0  0  0  0  0  0  0  0  0  0  # atno 4306 bound_to 3712
   -3.5671  -16.5759   13.7415 LP  0  0  0  0  0  0  0  0  0  0  0  0  # atno 4307 bound_to 3712
    1.6932  -20.7636    9.5217 LP  0  0  0  0  0  0  0  0  0  0  0  0  # atno 4314 bound_to 3832
    1.9282  -19.6347    8.3654 LP  0  0  0  0  0  0  0  0  0  0  0  0  # atno 4315 bound_to 3832
   -5.4282  -22.5476   10.2522 LP  0  0  0  0  0  0  0  0  0  0  0  0  # atno 4318 bound_to 3762
   -4.6577  -22.0524   11.6042 LP  0  0  0  0  0  0  0  0  0  0  0  0  # atno 4319 bound_to 3762
   -5.4977   -5.2728    8.6576 LP  0  0  0  0  0  0  0  0  0  0  0  0  # atno 4320 bound_to 2467
   -4.2410   -4.7997    7.7284 LP  0  0  0  0  0  0  0  0  0  0  0  0  # atno 4321 bound_to 2467

> <Gold.Score>
     Score     S(PLP)   S(hbond)     S(cho)   S(metal)  DE(clash)   DE(tors)     intcor
     32.95     -30.30       0.99       0.00       0.00       0.00       0.16       0.00

> <Gold.PLP.Fitness>
32.9472

> <Gold.PLP.PLP>
-30.3006

> <Gold.PLP.part.hbond>
-2.0000

> <Gold.PLP.part.metal>
0.0000

> <Gold.PLP.part.buried>
-2.0563

> <Gold.PLP.part.nonpolar>
-26.2299

> <Gold.PLP.part.repulsive>
0.0000

> <Gold.PLP.ligand.clash>
0.0000

> <Gold.PLP.ligand.torsion>
0.1638

> <Gold.PLP.Chemscore.Hbond>
0.9913

> <Gold.PLP.Chemscore.CHOScore>
0.0000

> <Gold.PLP.Chemscore.Metal>
0.0000

> <Gold.Chemscore.Hbonds>
donor molecule, donor type, donor heavy atom, donor atom, acceptor molecule, acceptor atom, score
      L1  H     5    17       P1  1227  0.99

> <Gold.PLP.Chemscore.Internal.Correction>
0.0005

