#       Name:                EN300-222203_i001
#       Creating user name   fsindt
#       Creation time:       Wed Mar  1 07:31:12 2023


#       File generated by GOLD software.
#

@<TRIPOS>MOLECULE
EN300-222203_i001|amine_1|mol2|8817|dock18
    17    16     1
SMALL
USER_CHARGES


@<TRIPOS>ATOM
      1 N1          -0.9060 -10.1323  10.8998 N.3            1 <1>                0.0000
      2 C2          -1.6918 -11.1692  10.2175 C.3            1 <1>                0.0000
      3 C3          -1.1353 -11.3866   8.8089 C.3            1 <1>                0.0000
      4 C4           0.3252 -11.8329   8.9008 C.3            1 <1>                0.0000
      5 O5           1.0931 -10.8188   9.5520 O.3            1 <1>                0.0000
      6 C6          -3.1527 -10.7243  10.1258 C.3            1 <1>                0.0000
      7 F7          -3.9232 -11.7613   9.5890 F              1 <1>                0.0000
      8 F8          -3.6245 -10.4062  11.4039 F              1 <1>                0.0000
      9 F9          -3.2464  -9.5985   9.3006 F              1 <1>                0.0000
     10 H10         -1.6302 -12.1007  10.7802 H              1 <1>                0.0000
     11 H11         -1.7190 -12.1553   8.3025 H              1 <1>                0.0000
     12 H12         -1.1958 -10.4549   8.2467 H              1 <1>                0.0000
     13 H13          0.3869 -12.7589   9.4726 H              1 <1>                0.0000
     14 H14          0.7184 -11.9985   7.8977 H              1 <1>                0.0000
     15 H15         -1.4366  -9.2793  10.9930 H              1 <1>                0.0000
     16 H16         -0.5823 -10.4568  11.7987 H              1 <1>                0.0000
     17 H17          1.1910 -10.9506  10.5050 H              1 <1>                0.0000
@<TRIPOS>BOND
    1    1    2 1     
    2    1   15 1     
    3    1   16 1     
    4    2    3 1     
    5    2    6 1     
    6    2   10 1     
    7    3    4 1     
    8    3   11 1     
    9    3   12 1     
   10    4    5 1     
   11    4   13 1     
   12    4   14 1     
   13    5   17 1     
   14    6    7 1     
   15    6    8 1     
   16    6    9 1     
@<TRIPOS>SUBSTRUCTURE
      1 ****           1
@<TRIPOS>SET
DONOR_HYDROGENS      STATIC     ATOMS    <user>   **** ""
3 15 16 17
ATOM$RED        STATIC     ATOMS    COLORGROUP SYSTEM
3 15 16 17
@<TRIPOS>COMMENT
> <Gold.Version>
2022.2.0

> <Gold.Id.Protein>
3pbl|protein|mol2

> <Gold.Protein.RotatedTorsions>
[ 1303 1298 1297 1294 ] final  177.79 input  179.99 | X-H torsion
[ 2461 2456 2455 2452 ] final -158.33 input   30.03 | X-H torsion
[ 2515 2510 2509 2506 ] final -104.77 input  -89.99 | X-H torsion
[ 3721 3712 3711 3710 ] final -117.02 input -179.91 | X-H torsion
[ 3841 3832 3831 3830 ] final -160.71 input -179.91 | X-H torsion
[ 3767 3762 3761 3758 ] final -127.38 input  -89.99 | X-H torsion
[ 2472 2467 2466 2463 ] final   56.78 input  -89.97 | X-H torsion

> <Gold.Protein.ActiveResidues>
 VAL82   VAL86   LEU89   PHE106  VAL107  ASP110  VAL111  MET112  CYS114  THR115 
 CYS181  SER182  ILE183  PHE188  VAL189  ILE190  SER192  SER193  SER196  TRP342 
 PHE345  PHE346  HIS349  VAL350  TYR365  THR369  GLY372  TYR373 

> <Gold.Protein.RotatedAtoms>
    4.8657   -8.9040    4.6997 H   0  0  0  0  0  0  0  0  0  0  0  0  # atno 1303 bound_to 1298
    1.1069   -9.2864    8.3506 H   0  0  0  0  0  0  0  0  0  0  0  0  # atno 2461 bound_to 2456
   -4.5904   -4.8138    7.6588 H   0  0  0  0  0  0  0  0  0  0  0  0  # atno 2472 bound_to 2467
    2.7805   -9.0918    4.7878 H   0  0  0  0  0  0  0  0  0  0  0  0  # atno 2515 bound_to 2510
   -3.2014  -16.6790   14.4407 H   0  0  0  0  0  0  0  0  0  0  0  0  # atno 3721 bound_to 3712
   -4.7460  -22.0088   11.5699 H   0  0  0  0  0  0  0  0  0  0  0  0  # atno 3767 bound_to 3762
    2.7600  -19.8465    8.3517 H   0  0  0  0  0  0  0  0  0  0  0  0  # atno 3841 bound_to 3832
    3.9782  -10.2718    4.6131 LP  0  0  0  0  0  0  0  0  0  0  0  0  # atno 4297 bound_to 1298
    3.5180   -8.9457    3.7787 LP  0  0  0  0  0  0  0  0  0  0  0  0  # atno 4298 bound_to 1298
    2.0989   -8.2119    7.6234 LP  0  0  0  0  0  0  0  0  0  0  0  0  # atno 4299 bound_to 2456
    0.5319   -8.3100    7.1744 LP  0  0  0  0  0  0  0  0  0  0  0  0  # atno 4300 bound_to 2456
    2.0813   -8.4109    6.0967 LP  0  0  0  0  0  0  0  0  0  0  0  0  # atno 4301 bound_to 2510
    2.4348   -7.4961    4.7910 LP  0  0  0  0  0  0  0  0  0  0  0  0  # atno 4302 bound_to 2510
   -3.2147  -17.3113   12.9649 LP  0  0  0  0  0  0  0  0  0  0  0  0  # atno 4306 bound_to 3712
   -2.6169  -18.1589   14.2262 LP  0  0  0  0  0  0  0  0  0  0  0  0  # atno 4307 bound_to 3712
    2.6515  -21.1533    9.2772 LP  0  0  0  0  0  0  0  0  0  0  0  0  # atno 4314 bound_to 3832
    1.3896  -20.1262    9.1390 LP  0  0  0  0  0  0  0  0  0  0  0  0  # atno 4315 bound_to 3832
   -3.9968  -23.2401   10.8021 LP  0  0  0  0  0  0  0  0  0  0  0  0  # atno 4318 bound_to 3762
   -5.3846  -22.6259   10.1993 LP  0  0  0  0  0  0  0  0  0  0  0  0  # atno 4319 bound_to 3762
   -3.7513   -5.2054    9.0037 LP  0  0  0  0  0  0  0  0  0  0  0  0  # atno 4320 bound_to 2467
   -5.3753   -5.3743    8.9765 LP  0  0  0  0  0  0  0  0  0  0  0  0  # atno 4321 bound_to 2467

> <Gold.Score>
     Score     S(PLP)   S(hbond)     S(cho)   S(metal)  DE(clash)   DE(tors)     intcor
     33.01     -30.10       1.00       0.00       0.00       0.00       0.04       0.00

> <Gold.PLP.Fitness>
33.0124

> <Gold.PLP.PLP>
-30.1015

> <Gold.PLP.part.hbond>
-1.0000

> <Gold.PLP.part.metal>
0.0000

> <Gold.PLP.part.buried>
-4.1230

> <Gold.PLP.part.nonpolar>
-25.6724

> <Gold.PLP.part.repulsive>
0.0000

> <Gold.PLP.ligand.clash>
0.0000

> <Gold.PLP.ligand.torsion>
0.0448

> <Gold.PLP.Chemscore.Hbond>
1.0000

> <Gold.PLP.Chemscore.CHOScore>
0.0000

> <Gold.PLP.Chemscore.Metal>
0.0000

> <Gold.Chemscore.Hbonds>
donor molecule, donor type, donor heavy atom, donor atom, acceptor molecule, acceptor atom, score
      P1  H  2456  2461       L1     5  1.00

> <Gold.PLP.Chemscore.Internal.Correction>
0.0005

