#       Name:                EN300-222203_i001
#       Creating user name   fsindt
#       Creation time:       Wed Mar  1 07:30:56 2023


#       File generated by GOLD software.
#

@<TRIPOS>MOLECULE
EN300-222203_i001|amine_1|mol2|8817|dock1
    17    16     1
SMALL
USER_CHARGES


@<TRIPOS>ATOM
      1 N1          -0.3610 -10.5902   8.2335 N.3            1 <1>                0.0000
      2 C2          -0.2560 -11.3742   9.4715 C.3            1 <1>                0.0000
      3 C3          -0.4143 -12.8613   9.1483 C.3            1 <1>                0.0000
      4 C4           0.5941 -13.2587   8.0684 C.3            1 <1>                0.0000
      5 O5           0.4222 -14.6390   7.7410 O.3            1 <1>                0.0000
      6 C6          -1.3567 -10.9434  10.4428 C.3            1 <1>                0.0000
      7 F7          -1.1690  -9.6026  10.7954 F              1 <1>                0.0000
      8 F8          -2.6051 -11.0939   9.8295 F              1 <1>                0.0000
      9 F9          -1.3027 -11.7396  11.5918 F              1 <1>                0.0000
     10 H10          0.7189 -11.2034   9.9281 H              1 <1>                0.0000
     11 H11         -0.2341 -13.4497  10.0479 H              1 <1>                0.0000
     12 H12         -1.4256 -13.0491   8.7878 H              1 <1>                0.0000
     13 H13          0.4315 -12.6510   7.1782 H              1 <1>                0.0000
     14 H14          1.6062 -13.0966   8.4391 H              1 <1>                0.0000
     15 H15          0.1163  -9.7060   8.3240 H              1 <1>                0.0000
     16 H16         -0.0096 -11.1117   7.4444 H              1 <1>                0.0000
     17 H17          0.0737 -14.7920   6.8520 H              1 <1>                0.0000
@<TRIPOS>BOND
    1    1    2 1     
    2    1   15 1     
    3    1   16 1     
    4    2    3 1     
    5    2    6 1     
    6    2   10 1     
    7    3    4 1     
    8    3   11 1     
    9    3   12 1     
   10    4    5 1     
   11    4   13 1     
   12    4   14 1     
   13    5   17 1     
   14    6    7 1     
   15    6    8 1     
   16    6    9 1     
@<TRIPOS>SUBSTRUCTURE
      1 ****           1
@<TRIPOS>SET
DONOR_HYDROGENS      STATIC     ATOMS    <user>   **** ""
3 15 16 17
ATOM$RED        STATIC     ATOMS    COLORGROUP SYSTEM
3 15 16 17
@<TRIPOS>COMMENT
> <Gold.Version>
2022.2.0

> <Gold.Id.Protein>
3pbl|protein|mol2

> <Gold.Protein.RotatedTorsions>
[ 1303 1298 1297 1294 ] final  142.31 input  179.99 | X-H torsion
[ 2461 2456 2455 2452 ] final   45.39 input   30.03 | X-H torsion
[ 2515 2510 2509 2506 ] final   95.12 input  -89.99 | X-H torsion
[ 3721 3712 3711 3710 ] final -148.06 input -179.91 | X-H torsion
[ 3841 3832 3831 3830 ] final -109.96 input -179.91 | X-H torsion
[ 3767 3762 3761 3758 ] final   47.37 input  -89.99 | X-H torsion
[ 2472 2467 2466 2463 ] final  109.22 input  -89.97 | X-H torsion

> <Gold.Protein.ActiveResidues>
 VAL82   VAL86   LEU89   PHE106  VAL107  ASP110  VAL111  MET112  CYS114  THR115 
 CYS181  SER182  ILE183  PHE188  VAL189  ILE190  SER192  SER193  SER196  TRP342 
 PHE345  PHE346  HIS349  VAL350  TYR365  THR369  GLY372  TYR373 

> <Gold.Protein.RotatedAtoms>
    4.8815   -9.4355    4.9169 H   0  0  0  0  0  0  0  0  0  0  0  0  # atno 1303 bound_to 1298
    1.7372   -7.9539    7.2395 H   0  0  0  0  0  0  0  0  0  0  0  0  # atno 2461 bound_to 2456
   -5.3266   -5.0152    7.9928 H   0  0  0  0  0  0  0  0  0  0  0  0  # atno 2472 bound_to 2467
    2.0356   -7.7991    5.8927 H   0  0  0  0  0  0  0  0  0  0  0  0  # atno 2515 bound_to 2510
   -3.3224  -16.5335   14.0175 H   0  0  0  0  0  0  0  0  0  0  0  0  # atno 3721 bound_to 3712
   -4.7452  -23.2055   10.1148 H   0  0  0  0  0  0  0  0  0  0  0  0  # atno 3767 bound_to 3762
    2.0903  -19.5798    8.5276 H   0  0  0  0  0  0  0  0  0  0  0  0  # atno 3841 bound_to 3832
    3.5529  -10.1190    4.2582 LP  0  0  0  0  0  0  0  0  0  0  0  0  # atno 4297 bound_to 1298
    3.9275   -8.5668    3.9162 LP  0  0  0  0  0  0  0  0  0  0  0  0  # atno 4298 bound_to 1298
    0.3315   -8.7338    7.5277 LP  0  0  0  0  0  0  0  0  0  0  0  0  # atno 4299 bound_to 2456
    1.6692   -9.1202    8.3808 LP  0  0  0  0  0  0  0  0  0  0  0  0  # atno 4300 bound_to 2456
    2.6943   -7.9464    4.4061 LP  0  0  0  0  0  0  0  0  0  0  0  0  # atno 4301 bound_to 2510
    2.5670   -9.2539    5.3761 LP  0  0  0  0  0  0  0  0  0  0  0  0  # atno 4302 bound_to 2510
   -2.9577  -17.7491   13.0340 LP  0  0  0  0  0  0  0  0  0  0  0  0  # atno 4306 bound_to 3712
   -2.7342  -17.8890   14.6456 LP  0  0  0  0  0  0  0  0  0  0  0  0  # atno 4307 bound_to 3712
    3.1080  -20.8105    8.6876 LP  0  0  0  0  0  0  0  0  0  0  0  0  # atno 4314 bound_to 3832
    1.7067  -20.7771    9.5254 LP  0  0  0  0  0  0  0  0  0  0  0  0  # atno 4315 bound_to 3832
   -5.3850  -21.9803   10.9844 LP  0  0  0  0  0  0  0  0  0  0  0  0  # atno 4318 bound_to 3762
   -3.9971  -22.6895   11.4716 LP  0  0  0  0  0  0  0  0  0  0  0  0  # atno 4319 bound_to 3762
   -3.7127   -4.9195    8.2221 LP  0  0  0  0  0  0  0  0  0  0  0  0  # atno 4320 bound_to 2467
   -4.6777   -5.4588    9.4241 LP  0  0  0  0  0  0  0  0  0  0  0  0  # atno 4321 bound_to 2467

> <Gold.Score>
     Score     S(PLP)   S(hbond)     S(cho)   S(metal)  DE(clash)   DE(tors)     intcor
     35.40     -32.47       1.00       0.00       0.00       0.00       0.04       0.00

> <Gold.PLP.Fitness>
35.3979

> <Gold.PLP.PLP>
-32.4675

> <Gold.PLP.part.hbond>
-1.0000

> <Gold.PLP.part.metal>
0.0000

> <Gold.PLP.part.buried>
-3.1675

> <Gold.PLP.part.nonpolar>
-28.6679

> <Gold.PLP.part.repulsive>
0.0000

> <Gold.PLP.ligand.clash>
0.0000

> <Gold.PLP.ligand.torsion>
0.0351

> <Gold.PLP.Chemscore.Hbond>
1.0000

> <Gold.PLP.Chemscore.CHOScore>
0.0000

> <Gold.PLP.Chemscore.Metal>
0.0000

> <Gold.Chemscore.Hbonds>
donor molecule, donor type, donor heavy atom, donor atom, acceptor molecule, acceptor atom, score
      L1  H     1    15       P1  2456  1.00

> <Gold.PLP.Chemscore.Internal.Correction>
0.0005

