#       Name:                EN300-222203_i001
#       Creating user name   fsindt
#       Creation time:       Wed Mar  1 07:31:02 2023


#       File generated by GOLD software.
#

@<TRIPOS>MOLECULE
EN300-222203_i001|amine_1|mol2|8817|dock8
    17    16     1
SMALL
USER_CHARGES


@<TRIPOS>ATOM
      1 N1           1.2268 -10.5413   9.7084 N.3            1 <1>                0.0000
      2 C2           0.1672 -11.5423   9.8905 C.3            1 <1>                0.0000
      3 C3          -0.2016 -12.1471   8.5343 C.3            1 <1>                0.0000
      4 C4           1.0162 -12.8634   7.9472 C.3            1 <1>                0.0000
      5 O5           0.5831 -13.8351   6.9931 O.3            1 <1>                0.0000
      6 C6          -1.0654 -10.8746  10.5033 C.3            1 <1>                0.0000
      7 F7          -2.0246 -11.8489  10.8000 F              1 <1>                0.0000
      8 F8          -0.6993 -10.2079  11.6775 F              1 <1>                0.0000
      9 F9          -1.5995  -9.9564   9.5930 F              1 <1>                0.0000
     10 H10          0.5219 -12.3300  10.5551 H              1 <1>                0.0000
     11 H11         -1.0154 -12.8605   8.6639 H              1 <1>                0.0000
     12 H12         -0.5181 -11.3540   7.8569 H              1 <1>                0.0000
     13 H13          1.6640 -12.1366   7.4572 H              1 <1>                0.0000
     14 H14          1.5663 -13.3595   8.7469 H              1 <1>                0.0000
     15 H15          1.0602  -9.9842   8.8838 H              1 <1>                0.0000
     16 H16          1.3175  -9.9578  10.5266 H              1 <1>                0.0000
     17 H17          0.8553 -14.7393   7.2012 H              1 <1>                0.0000
@<TRIPOS>BOND
    1    1    2 1     
    2    1   15 1     
    3    1   16 1     
    4    2    3 1     
    5    2    6 1     
    6    2   10 1     
    7    3    4 1     
    8    3   11 1     
    9    3   12 1     
   10    4    5 1     
   11    4   13 1     
   12    4   14 1     
   13    5   17 1     
   14    6    7 1     
   15    6    8 1     
   16    6    9 1     
@<TRIPOS>SUBSTRUCTURE
      1 ****           1
@<TRIPOS>SET
DONOR_HYDROGENS      STATIC     ATOMS    <user>   **** ""
3 15 16 17
ATOM$RED        STATIC     ATOMS    COLORGROUP SYSTEM
3 15 16 17
@<TRIPOS>COMMENT
> <Gold.Version>
2022.2.0

> <Gold.Id.Protein>
3pbl|protein|mol2

> <Gold.Protein.RotatedTorsions>
[ 1303 1298 1297 1294 ] final -160.55 input  179.99 | X-H torsion
[ 2461 2456 2455 2452 ] final  -49.87 input   30.03 | X-H torsion
[ 2515 2510 2509 2506 ] final  141.57 input  -89.99 | X-H torsion
[ 3721 3712 3711 3710 ] final  154.16 input -179.91 | X-H torsion
[ 3841 3832 3831 3830 ] final   82.32 input -179.91 | X-H torsion
[ 3767 3762 3761 3758 ] final   88.29 input  -89.99 | X-H torsion
[ 2472 2467 2466 2463 ] final   81.68 input  -89.97 | X-H torsion

> <Gold.Protein.ActiveResidues>
 VAL82   VAL86   LEU89   PHE106  VAL107  ASP110  VAL111  MET112  CYS114  THR115 
 CYS181  SER182  ILE183  PHE188  VAL189  ILE190  SER192  SER193  SER196  TRP342 
 PHE345  PHE346  HIS349  VAL350  TYR365  THR369  GLY372  TYR373 

> <Gold.Protein.RotatedAtoms>
    4.7151   -8.6546    4.4982 H   0  0  0  0  0  0  0  0  0  0  0  0  # atno 1303 bound_to 1298
    0.4316   -8.4399    7.2691 H   0  0  0  0  0  0  0  0  0  0  0  0  # atno 2461 bound_to 2456
   -4.9834   -4.8844    7.7346 H   0  0  0  0  0  0  0  0  0  0  0  0  # atno 2472 bound_to 2467
    2.1057   -8.5120    6.0909 H   0  0  0  0  0  0  0  0  0  0  0  0  # atno 2515 bound_to 2510
   -3.2275  -16.8201   13.2369 H   0  0  0  0  0  0  0  0  0  0  0  0  # atno 3721 bound_to 3712
   -4.2114  -23.3318   10.4804 H   0  0  0  0  0  0  0  0  0  0  0  0  # atno 3767 bound_to 3762
    2.7563  -20.9450    9.3375 H   0  0  0  0  0  0  0  0  0  0  0  0  # atno 3841 bound_to 3832
    4.2755  -10.1996    4.7917 LP  0  0  0  0  0  0  0  0  0  0  0  0  # atno 4297 bound_to 1298
    3.3714   -9.2674    3.8016 LP  0  0  0  0  0  0  0  0  0  0  0  0  # atno 4298 bound_to 1298
    1.2907   -9.2611    8.3894 LP  0  0  0  0  0  0  0  0  0  0  0  0  # atno 4299 bound_to 2456
    2.0153   -8.1071    7.4895 LP  0  0  0  0  0  0  0  0  0  0  0  0  # atno 4300 bound_to 2456
    2.3903   -7.4578    4.8770 LP  0  0  0  0  0  0  0  0  0  0  0  0  # atno 4301 bound_to 2510
    2.8009   -9.0292    4.7070 LP  0  0  0  0  0  0  0  0  0  0  0  0  # atno 4302 bound_to 2510
   -2.6270  -18.2132   13.7627 LP  0  0  0  0  0  0  0  0  0  0  0  0  # atno 4306 bound_to 3712
   -3.1745  -17.0939   14.8181 LP  0  0  0  0  0  0  0  0  0  0  0  0  # atno 4307 bound_to 3712
    1.3896  -20.1271    9.1397 LP  0  0  0  0  0  0  0  0  0  0  0  0  # atno 4314 bound_to 3832
    2.6558  -19.8836    8.1377 LP  0  0  0  0  0  0  0  0  0  0  0  0  # atno 4315 bound_to 3832
   -5.5029  -22.3332   10.4404 LP  0  0  0  0  0  0  0  0  0  0  0  0  # atno 4318 bound_to 3762
   -4.4130  -22.2103   11.6502 LP  0  0  0  0  0  0  0  0  0  0  0  0  # atno 4319 bound_to 3762
   -3.6369   -5.0621    8.6410 LP  0  0  0  0  0  0  0  0  0  0  0  0  # atno 4320 bound_to 2467
   -5.0967   -5.4470    9.2634 LP  0  0  0  0  0  0  0  0  0  0  0  0  # atno 4321 bound_to 2467

> <Gold.Score>
     Score     S(PLP)   S(hbond)     S(cho)   S(metal)  DE(clash)   DE(tors)     intcor
     34.44     -31.78       1.00       0.00       0.00       0.00       0.17       0.00

> <Gold.PLP.Fitness>
34.4410

> <Gold.PLP.PLP>
-31.7763

> <Gold.PLP.part.hbond>
-1.0000

> <Gold.PLP.part.metal>
0.0000

> <Gold.PLP.part.buried>
-3.1654

> <Gold.PLP.part.nonpolar>
-28.3444

> <Gold.PLP.part.repulsive>
0.0000

> <Gold.PLP.ligand.clash>
0.0000

> <Gold.PLP.ligand.torsion>
0.1679

> <Gold.PLP.Chemscore.Hbond>
1.0000

> <Gold.PLP.Chemscore.CHOScore>
0.0000

> <Gold.PLP.Chemscore.Metal>
0.0000

> <Gold.Chemscore.Hbonds>
donor molecule, donor type, donor heavy atom, donor atom, acceptor molecule, acceptor atom, score
      L1  H     1    15       P1  2456  1.00

> <Gold.PLP.Chemscore.Internal.Correction>
0.0005

