#       Name:                EN300-222203_i001
#       Creating user name   fsindt
#       Creation time:       Wed Mar  1 07:31:05 2023


#       File generated by GOLD software.
#

@<TRIPOS>MOLECULE
EN300-222203_i001|amine_1|mol2|8817|dock11
    17    16     1
SMALL
USER_CHARGES


@<TRIPOS>ATOM
      1 N1           0.5070 -11.0421   7.3334 N.3            1 <1>                0.0000
      2 C2           0.5937 -12.2142   8.2147 C.3            1 <1>                0.0000
      3 C3           0.1277 -13.4584   7.4558 C.3            1 <1>                0.0000
      4 C4           1.1561 -14.5775   7.6310 C.3            1 <1>                0.0000
      5 O5           0.7447 -15.4405   8.6931 O.3            1 <1>                0.0000
      6 C6          -0.2988 -11.9992   9.4386 C.3            1 <1>                0.0000
      7 F7           0.2011 -10.9369  10.1994 F              1 <1>                0.0000
      8 F8          -1.6002 -11.7012   9.0203 F              1 <1>                0.0000
      9 F9          -0.3136 -13.1626  10.2152 F              1 <1>                0.0000
     10 H10          1.6259 -12.3507   8.5371 H              1 <1>                0.0000
     11 H11         -0.8349 -13.7846   7.8495 H              1 <1>                0.0000
     12 H12          0.0258 -13.2211   6.3969 H              1 <1>                0.0000
     13 H13          1.2315 -15.1498   6.7064 H              1 <1>                0.0000
     14 H14          2.1273 -14.1443   7.8703 H              1 <1>                0.0000
     15 H15          0.9341 -10.2348   7.7623 H              1 <1>                0.0000
     16 H16          0.9208 -11.2349   6.4336 H              1 <1>                0.0000
     17 H17          1.4518 -16.0010   9.0409 H              1 <1>                0.0000
@<TRIPOS>BOND
    1    1    2 1     
    2    1   15 1     
    3    1   16 1     
    4    2    3 1     
    5    2    6 1     
    6    2   10 1     
    7    3    4 1     
    8    3   11 1     
    9    3   12 1     
   10    4    5 1     
   11    4   13 1     
   12    4   14 1     
   13    5   17 1     
   14    6    7 1     
   15    6    8 1     
   16    6    9 1     
@<TRIPOS>SUBSTRUCTURE
      1 ****           1
@<TRIPOS>SET
DONOR_HYDROGENS      STATIC     ATOMS    <user>   **** ""
3 15 16 17
ATOM$RED        STATIC     ATOMS    COLORGROUP SYSTEM
3 15 16 17
@<TRIPOS>COMMENT
> <Gold.Version>
2022.2.0

> <Gold.Id.Protein>
3pbl|protein|mol2

> <Gold.Protein.RotatedTorsions>
[ 1303 1298 1297 1294 ] final   16.53 input  179.99 | X-H torsion
[ 2461 2456 2455 2452 ] final   62.46 input   30.03 | X-H torsion
[ 2515 2510 2509 2506 ] final  -33.04 input  -89.99 | X-H torsion
[ 3721 3712 3711 3710 ] final   33.19 input -179.91 | X-H torsion
[ 3841 3832 3831 3830 ] final -159.30 input -179.91 | X-H torsion
[ 3767 3762 3761 3758 ] final -128.52 input  -89.99 | X-H torsion
[ 2472 2467 2466 2463 ] final -148.98 input  -89.97 | X-H torsion

> <Gold.Protein.ActiveResidues>
 VAL82   VAL86   LEU89   PHE106  VAL107  ASP110  VAL111  MET112  CYS114  THR115 
 CYS181  SER182  ILE183  PHE188  VAL189  ILE190  SER192  SER193  SER196  TRP342 
 PHE345  PHE346  HIS349  VAL350  TYR365  THR369  GLY372  TYR373 

> <Gold.Protein.RotatedAtoms>
    3.5002  -10.0644    4.2010 H   0  0  0  0  0  0  0  0  0  0  0  0  # atno 1303 bound_to 1298
    1.9424   -8.0481    7.4051 H   0  0  0  0  0  0  0  0  0  0  0  0  # atno 2461 bound_to 2456
   -4.9633   -5.4603    9.3387 H   0  0  0  0  0  0  0  0  0  0  0  0  # atno 2472 bound_to 2467
    2.7353   -8.0696    4.3724 H   0  0  0  0  0  0  0  0  0  0  0  0  # atno 2515 bound_to 2510
   -2.4890  -18.0289   13.7529 H   0  0  0  0  0  0  0  0  0  0  0  0  # atno 3721 bound_to 3712
   -4.7300  -22.0160   11.5767 H   0  0  0  0  0  0  0  0  0  0  0  0  # atno 3767 bound_to 3762
    2.7434  -19.8332    8.3501 H   0  0  0  0  0  0  0  0  0  0  0  0  # atno 3841 bound_to 3832
    4.0059   -8.5311    3.9569 LP  0  0  0  0  0  0  0  0  0  0  0  0  # atno 4297 bound_to 1298
    4.8563   -9.5256    4.9338 LP  0  0  0  0  0  0  0  0  0  0  0  0  # atno 4298 bound_to 1298
    0.3833   -8.5303    7.3426 LP  0  0  0  0  0  0  0  0  0  0  0  0  # atno 4299 bound_to 2456
    1.4123   -9.2296    8.4003 LP  0  0  0  0  0  0  0  0  0  0  0  0  # atno 4300 bound_to 2456
    2.5116   -9.2325    5.4965 LP  0  0  0  0  0  0  0  0  0  0  0  0  # atno 4301 bound_to 2510
    2.0497   -7.6972    5.8067 LP  0  0  0  0  0  0  0  0  0  0  0  0  # atno 4302 bound_to 2510
   -3.2067  -17.0411   14.7956 LP  0  0  0  0  0  0  0  0  0  0  0  0  # atno 4306 bound_to 3712
   -3.4473  -16.8705   13.1895 LP  0  0  0  0  0  0  0  0  0  0  0  0  # atno 4307 bound_to 3712
    2.6705  -21.1511    9.2634 LP  0  0  0  0  0  0  0  0  0  0  0  0  # atno 4314 bound_to 3832
    1.3898  -20.1439    9.1547 LP  0  0  0  0  0  0  0  0  0  0  0  0  # atno 4315 bound_to 3832
   -4.0043  -23.2471   10.7864 LP  0  0  0  0  0  0  0  0  0  0  0  0  # atno 4318 bound_to 3762
   -5.3931  -22.6117   10.2083 LP  0  0  0  0  0  0  0  0  0  0  0  0  # atno 4319 bound_to 3762
   -5.1150   -4.9231    7.8041 LP  0  0  0  0  0  0  0  0  0  0  0  0  # atno 4320 bound_to 2467
   -3.6387   -5.0102    8.4965 LP  0  0  0  0  0  0  0  0  0  0  0  0  # atno 4321 bound_to 2467

> <Gold.Score>
     Score     S(PLP)   S(hbond)     S(cho)   S(metal)  DE(clash)   DE(tors)     intcor
     33.85     -29.82       2.00       0.00       0.00       0.00       0.99       0.00

> <Gold.PLP.Fitness>
33.8494

> <Gold.PLP.PLP>
-29.8212

> <Gold.PLP.part.hbond>
-2.0000

> <Gold.PLP.part.metal>
0.0000

> <Gold.PLP.part.buried>
-2.9914

> <Gold.PLP.part.nonpolar>
-25.0921

> <Gold.PLP.part.repulsive>
0.0000

> <Gold.PLP.ligand.clash>
0.0000

> <Gold.PLP.ligand.torsion>
0.9862

> <Gold.PLP.Chemscore.Hbond>
2.0000

> <Gold.PLP.Chemscore.CHOScore>
0.0000

> <Gold.PLP.Chemscore.Metal>
0.0000

> <Gold.Chemscore.Hbonds>
donor molecule, donor type, donor heavy atom, donor atom, acceptor molecule, acceptor atom, score
      L1  H     1    15       P1  2456  1.00
      L1  H     5    17       P1  1227  1.00

> <Gold.PLP.Chemscore.Internal.Correction>
0.0005

