#       Name:                EN300-222203_i001
#       Creating user name   fsindt
#       Creation time:       Wed Mar  1 07:31:07 2023


#       File generated by GOLD software.
#

@<TRIPOS>MOLECULE
EN300-222203_i001|amine_1|mol2|8817|dock13
    17    16     1
SMALL
USER_CHARGES


@<TRIPOS>ATOM
      1 N1          -1.2639 -12.9157  11.1669 N.3            1 <1>                0.0000
      2 C2          -1.3394 -12.0965   9.9497 C.3            1 <1>                0.0000
      3 C3           0.0741 -11.8135   9.4370 C.3            1 <1>                0.0000
      4 C4           0.1405 -12.1057   7.9367 C.3            1 <1>                0.0000
      5 O5           1.0760 -11.2191   7.3197 O.3            1 <1>                0.0000
      6 C6          -2.0410 -10.7745  10.2674 C.3            1 <1>                0.0000
      7 F7          -3.3998 -11.0120  10.5006 F              1 <1>                0.0000
      8 F8          -1.4651 -10.2031  11.4072 F              1 <1>                0.0000
      9 F9          -1.8996  -9.8997   9.1850 F              1 <1>                0.0000
     10 H10         -1.9025 -12.6323   9.1856 H              1 <1>                0.0000
     11 H11          0.3223 -10.7672   9.6148 H              1 <1>                0.0000
     12 H12          0.7856 -12.4501   9.9629 H              1 <1>                0.0000
     13 H13          0.4593 -13.1363   7.7809 H              1 <1>                0.0000
     14 H14         -0.8449 -11.9595   7.4941 H              1 <1>                0.0000
     15 H15         -2.1710 -13.0045  11.5997 H              1 <1>                0.0000
     16 H16         -0.8675 -13.8221  10.9686 H              1 <1>                0.0000
     17 H17          1.2339 -10.4052   7.8174 H              1 <1>                0.0000
@<TRIPOS>BOND
    1    1    2 1     
    2    1   15 1     
    3    1   16 1     
    4    2    3 1     
    5    2    6 1     
    6    2   10 1     
    7    3    4 1     
    8    3   11 1     
    9    3   12 1     
   10    4    5 1     
   11    4   13 1     
   12    4   14 1     
   13    5   17 1     
   14    6    7 1     
   15    6    8 1     
   16    6    9 1     
@<TRIPOS>SUBSTRUCTURE
      1 ****           1
@<TRIPOS>SET
DONOR_HYDROGENS      STATIC     ATOMS    <user>   **** ""
3 15 16 17
ATOM$RED        STATIC     ATOMS    COLORGROUP SYSTEM
3 15 16 17
@<TRIPOS>COMMENT
> <Gold.Version>
2022.2.0

> <Gold.Id.Protein>
3pbl|protein|mol2

> <Gold.Protein.RotatedTorsions>
[ 1303 1298 1297 1294 ] final  -69.55 input  179.99 | X-H torsion
[ 2461 2456 2455 2452 ] final   -2.31 input   30.03 | X-H torsion
[ 2515 2510 2509 2506 ] final   92.25 input  -89.99 | X-H torsion
[ 3721 3712 3711 3710 ] final   55.04 input -179.91 | X-H torsion
[ 3841 3832 3831 3830 ] final -141.50 input -179.91 | X-H torsion
[ 3767 3762 3761 3758 ] final  -29.32 input  -89.99 | X-H torsion
[ 2472 2467 2466 2463 ] final    4.78 input  -89.97 | X-H torsion

> <Gold.Protein.ActiveResidues>
 VAL82   VAL86   LEU89   PHE106  VAL107  ASP110  VAL111  MET112  CYS114  THR115 
 CYS181  SER182  ILE183  PHE188  VAL189  ILE190  SER192  SER193  SER196  TRP342 
 PHE345  PHE346  HIS349  VAL350  TYR365  THR369  GLY372  TYR373 

> <Gold.Protein.RotatedAtoms>
    3.5883   -8.8482    3.7904 H   0  0  0  0  0  0  0  0  0  0  0  0  # atno 1303 bound_to 1298
    1.0053   -8.0010    7.0309 H   0  0  0  0  0  0  0  0  0  0  0  0  # atno 2461 bound_to 2456
   -3.8446   -4.8591    8.0122 H   0  0  0  0  0  0  0  0  0  0  0  0  # atno 2472 bound_to 2467
    2.0397   -7.7620    5.8639 H   0  0  0  0  0  0  0  0  0  0  0  0  # atno 2515 bound_to 2510
   -2.5664  -17.9416   13.4461 H   0  0  0  0  0  0  0  0  0  0  0  0  # atno 3721 bound_to 3712
   -5.4972  -22.3598   10.4122 H   0  0  0  0  0  0  0  0  0  0  0  0  # atno 3767 bound_to 3762
    2.5169  -19.6909    8.3629 H   0  0  0  0  0  0  0  0  0  0  0  0  # atno 3841 bound_to 3832
    4.8940   -9.0057    4.7582 LP  0  0  0  0  0  0  0  0  0  0  0  0  # atno 4297 bound_to 1298
    3.8800  -10.2676    4.5432 LP  0  0  0  0  0  0  0  0  0  0  0  0  # atno 4298 bound_to 1298
    0.6014   -9.1888    8.0765 LP  0  0  0  0  0  0  0  0  0  0  0  0  # atno 4299 bound_to 2456
    2.1310   -8.6182    8.0404 LP  0  0  0  0  0  0  0  0  0  0  0  0  # atno 4300 bound_to 2456
    2.7094   -7.9889    4.3922 LP  0  0  0  0  0  0  0  0  0  0  0  0  # atno 4301 bound_to 2510
    2.5478   -9.2485    5.4189 LP  0  0  0  0  0  0  0  0  0  0  0  0  # atno 4302 bound_to 2510
   -3.0250  -17.3474   14.8654 LP  0  0  0  0  0  0  0  0  0  0  0  0  # atno 4306 bound_to 3712
   -3.5397  -16.6650   13.4740 LP  0  0  0  0  0  0  0  0  0  0  0  0  # atno 4307 bound_to 3712
    2.8849  -21.0837    9.0704 LP  0  0  0  0  0  0  0  0  0  0  0  0  # atno 4314 bound_to 3832
    1.4370  -20.3757    9.3329 LP  0  0  0  0  0  0  0  0  0  0  0  0  # atno 4315 bound_to 3832
   -4.4443  -22.1866   11.6485 LP  0  0  0  0  0  0  0  0  0  0  0  0  # atno 4318 bound_to 3762
   -4.1862  -23.3286   10.5102 LP  0  0  0  0  0  0  0  0  0  0  0  0  # atno 4319 bound_to 3762
   -4.4237   -5.4321    9.4274 LP  0  0  0  0  0  0  0  0  0  0  0  0  # atno 4320 bound_to 2467
   -5.4484   -5.1023    8.1995 LP  0  0  0  0  0  0  0  0  0  0  0  0  # atno 4321 bound_to 2467

> <Gold.Score>
     Score     S(PLP)   S(hbond)     S(cho)   S(metal)  DE(clash)   DE(tors)     intcor
     34.65     -33.77       1.00       0.00       0.00       0.00       1.06       0.00

> <Gold.PLP.Fitness>
34.6468

> <Gold.PLP.PLP>
-33.7678

> <Gold.PLP.part.hbond>
-1.0000

> <Gold.PLP.part.metal>
0.0000

> <Gold.PLP.part.buried>
-4.0698

> <Gold.PLP.part.nonpolar>
-29.0362

> <Gold.PLP.part.repulsive>
0.0000

> <Gold.PLP.ligand.clash>
0.0000

> <Gold.PLP.ligand.torsion>
1.0607

> <Gold.PLP.Chemscore.Hbond>
1.0000

> <Gold.PLP.Chemscore.CHOScore>
0.0000

> <Gold.PLP.Chemscore.Metal>
0.0000

> <Gold.Chemscore.Hbonds>
donor molecule, donor type, donor heavy atom, donor atom, acceptor molecule, acceptor atom, score
      L1  H     5    17       P1  2456  1.00

> <Gold.PLP.Chemscore.Internal.Correction>
0.0005

