#       Name:                EN300-222203_i001
#       Creating user name   fsindt
#       Creation time:       Wed Mar  1 07:31:04 2023


#       File generated by GOLD software.
#

@<TRIPOS>MOLECULE
EN300-222203_i001|amine_1|mol2|8817|dock10
    17    16     1
SMALL
USER_CHARGES


@<TRIPOS>ATOM
      1 N1          -0.0845 -10.7870   7.9443 N.3            1 <1>                0.0000
      2 C2          -1.0830 -11.1648   8.9534 C.3            1 <1>                0.0000
      3 C3          -1.9398  -9.9466   9.3041 C.3            1 <1>                0.0000
      4 C4          -3.3559 -10.4043   9.6591 C.3            1 <1>                0.0000
      5 O5          -4.0930  -9.3023  10.1923 O.3            1 <1>                0.0000
      6 C6          -0.3719 -11.6674  10.2113 C.3            1 <1>                0.0000
      7 F7          -1.3219 -12.0999  11.1428 F              1 <1>                0.0000
      8 F8           0.4712 -12.7325   9.8764 F              1 <1>                0.0000
      9 F9           0.3853 -10.6297  10.7651 F              1 <1>                0.0000
     10 H10         -1.7202 -11.9549   8.5560 H              1 <1>                0.0000
     11 H11         -1.5014  -9.4274  10.1562 H              1 <1>                0.0000
     12 H12         -1.9797  -9.2722   8.4488 H              1 <1>                0.0000
     13 H13         -3.8535 -10.7747   8.7629 H              1 <1>                0.0000
     14 H14         -3.3049 -11.2006  10.4018 H              1 <1>                0.0000
     15 H15          0.0989  -9.7952   7.9707 H              1 <1>                0.0000
     16 H16          0.7669 -11.3155   8.0625 H              1 <1>                0.0000
     17 H17         -3.5717  -8.4947  10.2982 H              1 <1>                0.0000
@<TRIPOS>BOND
    1    1    2 1     
    2    1   15 1     
    3    1   16 1     
    4    2    3 1     
    5    2    6 1     
    6    2   10 1     
    7    3    4 1     
    8    3   11 1     
    9    3   12 1     
   10    4    5 1     
   11    4   13 1     
   12    4   14 1     
   13    5   17 1     
   14    6    7 1     
   15    6    8 1     
   16    6    9 1     
@<TRIPOS>SUBSTRUCTURE
      1 ****           1
@<TRIPOS>SET
DONOR_HYDROGENS      STATIC     ATOMS    <user>   **** ""
3 15 16 17
ATOM$RED        STATIC     ATOMS    COLORGROUP SYSTEM
3 15 16 17
@<TRIPOS>COMMENT
> <Gold.Version>
2022.2.0

> <Gold.Id.Protein>
3pbl|protein|mol2

> <Gold.Protein.RotatedTorsions>
[ 1303 1298 1297 1294 ] final -144.11 input  179.99 | X-H torsion
[ 2461 2456 2455 2452 ] final   68.75 input   30.03 | X-H torsion
[ 2515 2510 2509 2506 ] final  166.19 input  -89.99 | X-H torsion
[ 3721 3712 3711 3710 ] final -177.47 input -179.91 | X-H torsion
[ 3841 3832 3831 3830 ] final  -66.59 input -179.91 | X-H torsion
[ 3767 3762 3761 3758 ] final  -48.03 input  -89.99 | X-H torsion
[ 2472 2467 2466 2463 ] final  -20.50 input  -89.97 | X-H torsion

> <Gold.Protein.ActiveResidues>
 VAL82   VAL86   LEU89   PHE106  VAL107  ASP110  VAL111  MET112  CYS114  THR115 
 CYS181  SER182  ILE183  PHE188  VAL189  ILE190  SER192  SER193  SER196  TRP342 
 PHE345  PHE346  HIS349  VAL350  TYR365  THR369  GLY372  TYR373 

> <Gold.Protein.RotatedAtoms>
    4.5430   -8.5317    4.3310 H   0  0  0  0  0  0  0  0  0  0  0  0  # atno 1303 bound_to 1298
    2.0033   -8.0956    7.4739 H   0  0  0  0  0  0  0  0  0  0  0  0  # atno 2461 bound_to 2456
   -3.6616   -4.9666    8.3662 H   0  0  0  0  0  0  0  0  0  0  0  0  # atno 2472 bound_to 2467
    2.2341   -8.8736    5.9713 H   0  0  0  0  0  0  0  0  0  0  0  0  # atno 2515 bound_to 2510
   -3.3267  -16.5935   13.5819 H   0  0  0  0  0  0  0  0  0  0  0  0  # atno 3721 bound_to 3712
   -5.5033  -22.1622   10.6466 H   0  0  0  0  0  0  0  0  0  0  0  0  # atno 3767 bound_to 3762
    1.6504  -19.7556    8.9574 H   0  0  0  0  0  0  0  0  0  0  0  0  # atno 3841 bound_to 3832
    4.4888  -10.0657    4.8880 LP  0  0  0  0  0  0  0  0  0  0  0  0  # atno 4297 bound_to 1298
    3.3301   -9.5242    3.8726 LP  0  0  0  0  0  0  0  0  0  0  0  0  # atno 4298 bound_to 1298
    0.4219   -8.4561    7.2819 LP  0  0  0  0  0  0  0  0  0  0  0  0  # atno 4299 bound_to 2456
    1.3128   -9.2563    8.3923 LP  0  0  0  0  0  0  0  0  0  0  0  0  # atno 4300 bound_to 2456
    2.2268   -7.4130    5.2416 LP  0  0  0  0  0  0  0  0  0  0  0  0  # atno 4301 bound_to 2510
    2.8359   -8.7123    4.4621 LP  0  0  0  0  0  0  0  0  0  0  0  0  # atno 4302 bound_to 2510
   -2.7473  -18.0700   13.3324 LP  0  0  0  0  0  0  0  0  0  0  0  0  # atno 4306 bound_to 3712
   -2.9396  -17.4988   14.8501 LP  0  0  0  0  0  0  0  0  0  0  0  0  # atno 4307 bound_to 3712
    3.0044  -20.2585    8.2575 LP  0  0  0  0  0  0  0  0  0  0  0  0  # atno 4314 bound_to 3832
    2.3185  -21.1261    9.4590 LP  0  0  0  0  0  0  0  0  0  0  0  0  # atno 4315 bound_to 3832
   -4.2155  -22.3891   11.6248 LP  0  0  0  0  0  0  0  0  0  0  0  0  # atno 4318 bound_to 3762
   -4.4089  -23.3236   10.2997 LP  0  0  0  0  0  0  0  0  0  0  0  0  # atno 4319 bound_to 3762
   -4.8334   -5.4634    9.3891 LP  0  0  0  0  0  0  0  0  0  0  0  0  # atno 4320 bound_to 2467
   -5.2217   -4.9636    7.8838 LP  0  0  0  0  0  0  0  0  0  0  0  0  # atno 4321 bound_to 2467

> <Gold.Score>
     Score     S(PLP)   S(hbond)     S(cho)   S(metal)  DE(clash)   DE(tors)     intcor
     34.92     -29.82       2.00       0.00       0.00       0.00       0.45       0.00

> <Gold.PLP.Fitness>
34.9156

> <Gold.PLP.PLP>
-29.8228

> <Gold.PLP.part.hbond>
-2.0000

> <Gold.PLP.part.metal>
0.0000

> <Gold.PLP.part.buried>
-2.4807

> <Gold.PLP.part.nonpolar>
-26.2820

> <Gold.PLP.part.repulsive>
0.0000

> <Gold.PLP.ligand.clash>
0.0000

> <Gold.PLP.ligand.torsion>
0.4538

> <Gold.PLP.Chemscore.Hbond>
2.0000

> <Gold.PLP.Chemscore.CHOScore>
0.0000

> <Gold.PLP.Chemscore.Metal>
0.0000

> <Gold.Chemscore.Hbonds>
donor molecule, donor type, donor heavy atom, donor atom, acceptor molecule, acceptor atom, score
      L1  H     1    15       P1  2456  1.00
      L1  H     5    17       P1  2398  1.00

> <Gold.PLP.Chemscore.Internal.Correction>
0.0005

