#       Name:                EN300-222203_i001
#       Creating user name   fsindt
#       Creation time:       Wed Mar  1 07:31:13 2023


#       File generated by GOLD software.
#

@<TRIPOS>MOLECULE
EN300-222203_i001|amine_1|mol2|8817|dock19
    17    16     1
SMALL
USER_CHARGES


@<TRIPOS>ATOM
      1 N1           2.2988 -14.6923   9.3067 N.3            1 <1>                0.0000
      2 C2           0.9016 -14.3390   9.0214 C.3            1 <1>                0.0000
      3 C3          -0.0285 -15.3362   9.7154 C.3            1 <1>                0.0000
      4 C4           0.2303 -15.3109  11.2230 C.3            1 <1>                0.0000
      5 O5           1.5632 -15.7544  11.4850 O.3            1 <1>                0.0000
      6 C6           0.6624 -14.3842   7.5110 C.3            1 <1>                0.0000
      7 F7           1.0680 -15.6266   7.0116 F              1 <1>                0.0000
      8 F8          -0.6992 -14.1983   7.2487 F              1 <1>                0.0000
      9 F9           1.3994 -13.3694   6.8915 F              1 <1>                0.0000
     10 H10          0.6982 -13.3342   9.3916 H              1 <1>                0.0000
     11 H11         -1.0652 -15.0624   9.5200 H              1 <1>                0.0000
     12 H12          0.1614 -16.3382   9.3309 H              1 <1>                0.0000
     13 H13          0.1057 -14.2943  11.5961 H              1 <1>                0.0000
     14 H14         -0.4774 -15.9712  11.7243 H              1 <1>                0.0000
     15 H15          2.6071 -14.2770  10.1730 H              1 <1>                0.0000
     16 H16          2.4227 -15.6935   9.3214 H              1 <1>                0.0000
     17 H17          2.0284 -16.0853  10.7045 H              1 <1>                0.0000
@<TRIPOS>BOND
    1    1    2 1     
    2    1   15 1     
    3    1   16 1     
    4    2    3 1     
    5    2    6 1     
    6    2   10 1     
    7    3    4 1     
    8    3   11 1     
    9    3   12 1     
   10    4    5 1     
   11    4   13 1     
   12    4   14 1     
   13    5   17 1     
   14    6    7 1     
   15    6    8 1     
   16    6    9 1     
@<TRIPOS>SUBSTRUCTURE
      1 ****           1
@<TRIPOS>SET
DONOR_HYDROGENS      STATIC     ATOMS    <user>   **** ""
3 15 16 17
ATOM$RED        STATIC     ATOMS    COLORGROUP SYSTEM
3 15 16 17
@<TRIPOS>COMMENT
> <Gold.Version>
2022.2.0

> <Gold.Id.Protein>
3pbl|protein|mol2

> <Gold.Protein.RotatedTorsions>
[ 1303 1298 1297 1294 ] final  -44.48 input  179.99 | X-H torsion
[ 2461 2456 2455 2452 ] final  164.83 input   30.03 | X-H torsion
[ 2515 2510 2509 2506 ] final  170.02 input  -89.99 | X-H torsion
[ 3721 3712 3711 3710 ] final -175.80 input -179.91 | X-H torsion
[ 3841 3832 3831 3830 ] final -171.08 input -179.91 | X-H torsion
[ 3767 3762 3761 3758 ] final -109.84 input  -89.99 | X-H torsion
[ 2472 2467 2466 2463 ] final  138.31 input  -89.97 | X-H torsion

> <Gold.Protein.ActiveResidues>
 VAL82   VAL86   LEU89   PHE106  VAL107  ASP110  VAL111  MET112  CYS114  THR115 
 CYS181  SER182  ILE183  PHE188  VAL189  ILE190  SER192  SER193  SER196  TRP342 
 PHE345  PHE346  HIS349  VAL350  TYR365  THR369  GLY372  TYR373 

> <Gold.Protein.RotatedAtoms>
    3.3905   -9.2063    3.7918 H   0  0  0  0  0  0  0  0  0  0  0  0  # atno 1303 bound_to 1298
    1.6772   -9.1159    8.3793 H   0  0  0  0  0  0  0  0  0  0  0  0  # atno 2461 bound_to 2456
   -5.5023   -5.1813    8.4000 H   0  0  0  0  0  0  0  0  0  0  0  0  # atno 2472 bound_to 2467
    2.2581   -8.9225    5.9395 H   0  0  0  0  0  0  0  0  0  0  0  0  # atno 2515 bound_to 2510
   -3.3295  -16.5850   13.6055 H   0  0  0  0  0  0  0  0  0  0  0  0  # atno 3721 bound_to 3712
   -4.9858  -21.9306   11.4318 H   0  0  0  0  0  0  0  0  0  0  0  0  # atno 3767 bound_to 3762
    2.8737  -19.9514    8.3752 H   0  0  0  0  0  0  0  0  0  0  0  0  # atno 3841 bound_to 3832
    4.7499   -8.6932    4.5368 LP  0  0  0  0  0  0  0  0  0  0  0  0  # atno 4297 bound_to 1298
    4.2220  -10.2219    4.7631 LP  0  0  0  0  0  0  0  0  0  0  0  0  # atno 4298 bound_to 1298
    1.7295   -7.9520    7.2348 LP  0  0  0  0  0  0  0  0  0  0  0  0  # atno 4299 bound_to 2456
    0.3311   -8.7403    7.5342 LP  0  0  0  0  0  0  0  0  0  0  0  0  # atno 4300 bound_to 2456
    2.2041   -7.4213    5.2998 LP  0  0  0  0  0  0  0  0  0  0  0  0  # atno 4301 bound_to 2510
    2.8347   -8.6550    4.4356 LP  0  0  0  0  0  0  0  0  0  0  0  0  # atno 4302 bound_to 2510
   -2.7574  -18.0558   13.3105 LP  0  0  0  0  0  0  0  0  0  0  0  0  # atno 4306 bound_to 3712
   -2.9263  -17.5228   14.8448 LP  0  0  0  0  0  0  0  0  0  0  0  0  # atno 4307 bound_to 3712
    2.5055  -21.1560    9.3700 LP  0  0  0  0  0  0  0  0  0  0  0  0  # atno 4314 bound_to 3832
    1.4043  -20.0024    9.0190 LP  0  0  0  0  0  0  0  0  0  0  0  0  # atno 4315 bound_to 3832
   -3.9189  -23.1042   11.0432 LP  0  0  0  0  0  0  0  0  0  0  0  0  # atno 4318 bound_to 3762
   -5.2228  -22.8400   10.0963 LP  0  0  0  0  0  0  0  0  0  0  0  0  # atno 4319 bound_to 3762
   -4.0034   -4.8215    7.8614 LP  0  0  0  0  0  0  0  0  0  0  0  0  # atno 4320 bound_to 2467
   -4.2114   -5.3908    9.3777 LP  0  0  0  0  0  0  0  0  0  0  0  0  # atno 4321 bound_to 2467

> <Gold.Score>
     Score     S(PLP)   S(hbond)     S(cho)   S(metal)  DE(clash)   DE(tors)     intcor
     35.04     -29.18       2.00       0.00       0.00       0.00       0.07       0.00

> <Gold.PLP.Fitness>
35.0390

> <Gold.PLP.PLP>
-29.1844

> <Gold.PLP.part.hbond>
-2.0866

> <Gold.PLP.part.metal>
0.0000

> <Gold.PLP.part.buried>
-2.6989

> <Gold.PLP.part.nonpolar>
-24.5834

> <Gold.PLP.part.repulsive>
0.0000

> <Gold.PLP.ligand.clash>
0.0000

> <Gold.PLP.ligand.torsion>
0.0729

> <Gold.PLP.Chemscore.Hbond>
2.0000

> <Gold.PLP.Chemscore.CHOScore>
0.0000

> <Gold.PLP.Chemscore.Metal>
0.0000

> <Gold.Chemscore.Hbonds>
donor molecule, donor type, donor heavy atom, donor atom, acceptor molecule, acceptor atom, score
      L1  H     1    16       P1  1227  1.00
      L1  H     5    17       P1  1227  1.00

> <Gold.PLP.Chemscore.Internal.Correction>
0.0005

