#       Name:                EN300-222203_i001
#       Creating user name   fsindt
#       Creation time:       Wed Mar  1 07:31:09 2023


#       File generated by GOLD software.
#

@<TRIPOS>MOLECULE
EN300-222203_i001|amine_1|mol2|8817|dock15
    17    16     1
SMALL
USER_CHARGES


@<TRIPOS>ATOM
      1 N1           0.4932 -15.9609   8.7433 N.3            1 <1>                0.0000
      2 C2           0.8885 -14.6055   9.1490 C.3            1 <1>                0.0000
      3 C3           0.0973 -14.1942  10.3924 C.3            1 <1>                0.0000
      4 C4           0.2419 -15.2722  11.4685 C.3            1 <1>                0.0000
      5 O5           1.6234 -15.5985  11.6332 O.3            1 <1>                0.0000
      6 C6           0.5948 -13.6264   8.0107 C.3            1 <1>                0.0000
      7 F7           0.8685 -12.3218   8.4354 F              1 <1>                0.0000
      8 F8           1.3997 -13.9367   6.9093 F              1 <1>                0.0000
      9 F9          -0.7523 -13.7252   7.6464 F              1 <1>                0.0000
     10 H10          1.9546 -14.5905   9.3753 H              1 <1>                0.0000
     11 H11          0.4831 -13.2480  10.7718 H              1 <1>                0.0000
     12 H12         -0.9548 -14.0796  10.1321 H              1 <1>                0.0000
     13 H13         -0.1585 -14.9002  12.4116 H              1 <1>                0.0000
     14 H14         -0.3084 -16.1633  11.1664 H              1 <1>                0.0000
     15 H15          1.2329 -16.6227   8.9243 H              1 <1>                0.0000
     16 H16         -0.3618 -16.2403   9.2005 H              1 <1>                0.0000
     17 H17          1.9358 -16.2970  11.0419 H              1 <1>                0.0000
@<TRIPOS>BOND
    1    1    2 1     
    2    1   15 1     
    3    1   16 1     
    4    2    3 1     
    5    2    6 1     
    6    2   10 1     
    7    3    4 1     
    8    3   11 1     
    9    3   12 1     
   10    4    5 1     
   11    4   13 1     
   12    4   14 1     
   13    5   17 1     
   14    6    7 1     
   15    6    8 1     
   16    6    9 1     
@<TRIPOS>SUBSTRUCTURE
      1 ****           1
@<TRIPOS>SET
DONOR_HYDROGENS      STATIC     ATOMS    <user>   **** ""
3 15 16 17
ATOM$RED        STATIC     ATOMS    COLORGROUP SYSTEM
3 15 16 17
@<TRIPOS>COMMENT
> <Gold.Version>
2022.2.0

> <Gold.Id.Protein>
3pbl|protein|mol2

> <Gold.Protein.RotatedTorsions>
[ 1303 1298 1297 1294 ] final  -69.51 input  179.99 | X-H torsion
[ 2461 2456 2455 2452 ] final  -15.08 input   30.03 | X-H torsion
[ 2515 2510 2509 2506 ] final  115.55 input  -89.99 | X-H torsion
[ 3721 3712 3711 3710 ] final  -17.74 input -179.91 | X-H torsion
[ 3841 3832 3831 3830 ] final  120.94 input -179.91 | X-H torsion
[ 3767 3762 3761 3758 ] final -144.24 input  -89.99 | X-H torsion
[ 2472 2467 2466 2463 ] final  179.31 input  -89.97 | X-H torsion

> <Gold.Protein.ActiveResidues>
 VAL82   VAL86   LEU89   PHE106  VAL107  ASP110  VAL111  MET112  CYS114  THR115 
 CYS181  SER182  ILE183  PHE188  VAL189  ILE190  SER192  SER193  SER196  TRP342 
 PHE345  PHE346  HIS349  VAL350  TYR365  THR369  GLY372  TYR373 

> <Gold.Protein.RotatedAtoms>
    3.5880   -8.8487    3.7903 H   0  0  0  0  0  0  0  0  0  0  0  0  # atno 1303 bound_to 1298
    0.8159   -8.0887    7.0525 H   0  0  0  0  0  0  0  0  0  0  0  0  # atno 2461 bound_to 2456
   -5.3530   -5.3848    9.0102 H   0  0  0  0  0  0  0  0  0  0  0  0  # atno 2472 bound_to 2467
    2.0349   -8.0960    6.0461 H   0  0  0  0  0  0  0  0  0  0  0  0  # atno 2515 bound_to 2510
   -2.5435  -17.8231   14.4666 H   0  0  0  0  0  0  0  0  0  0  0  0  # atno 3721 bound_to 3712
   -4.5119  -22.1382   11.6402 H   0  0  0  0  0  0  0  0  0  0  0  0  # atno 3767 bound_to 3762
    3.0858  -20.7164    8.9288 H   0  0  0  0  0  0  0  0  0  0  0  0  # atno 3841 bound_to 3832
    4.8939   -9.0052    4.7579 LP  0  0  0  0  0  0  0  0  0  0  0  0  # atno 4297 bound_to 1298
    3.8805  -10.2676    4.5435 LP  0  0  0  0  0  0  0  0  0  0  0  0  # atno 4298 bound_to 1298
    0.7610   -9.2531    8.1964 LP  0  0  0  0  0  0  0  0  0  0  0  0  # atno 4299 bound_to 2456
    2.1607   -8.4662    7.8990 LP  0  0  0  0  0  0  0  0  0  0  0  0  # atno 4300 bound_to 2456
    2.5707   -7.6775    4.5617 LP  0  0  0  0  0  0  0  0  0  0  0  0  # atno 4301 bound_to 2510
    2.6913   -9.2257    5.0670 LP  0  0  0  0  0  0  0  0  0  0  0  0  # atno 4302 bound_to 2510
   -3.5237  -16.5819   14.1903 LP  0  0  0  0  0  0  0  0  0  0  0  0  # atno 4306 bound_to 3712
   -3.0675  -17.5673   12.9707 LP  0  0  0  0  0  0  0  0  0  0  0  0  # atno 4307 bound_to 3712
    1.5786  -20.6308    9.4737 LP  0  0  0  0  0  0  0  0  0  0  0  0  # atno 4314 bound_to 3832
    2.0862  -19.6439    8.2758 LP  0  0  0  0  0  0  0  0  0  0  0  0  # atno 4315 bound_to 3832
   -4.1343  -23.3169   10.5749 LP  0  0  0  0  0  0  0  0  0  0  0  0  # atno 4318 bound_to 3762
   -5.4811  -22.4197   10.3563 LP  0  0  0  0  0  0  0  0  0  0  0  0  # atno 4319 bound_to 3762
   -4.6320   -4.8178    7.6592 LP  0  0  0  0  0  0  0  0  0  0  0  0  # atno 4320 bound_to 2467
   -3.7321   -5.1911    8.9697 LP  0  0  0  0  0  0  0  0  0  0  0  0  # atno 4321 bound_to 2467

> <Gold.Score>
     Score     S(PLP)   S(hbond)     S(cho)   S(metal)  DE(clash)   DE(tors)     intcor
     33.69     -27.88       2.00       0.00       0.00       0.00       0.09       0.00

> <Gold.PLP.Fitness>
33.6893

> <Gold.PLP.PLP>
-27.8784

> <Gold.PLP.part.hbond>
-2.0000

> <Gold.PLP.part.metal>
0.0000

> <Gold.PLP.part.buried>
-3.1873

> <Gold.PLP.part.nonpolar>
-22.8334

> <Gold.PLP.part.repulsive>
0.0000

> <Gold.PLP.ligand.clash>
0.0000

> <Gold.PLP.ligand.torsion>
0.0948

> <Gold.PLP.Chemscore.Hbond>
2.0000

> <Gold.PLP.Chemscore.CHOScore>
0.0000

> <Gold.PLP.Chemscore.Metal>
0.0000

> <Gold.Chemscore.Hbonds>
donor molecule, donor type, donor heavy atom, donor atom, acceptor molecule, acceptor atom, score
      L1  H     1    15       P1  1227  1.00
      L1  H     5    17       P1  1227  1.00

> <Gold.PLP.Chemscore.Internal.Correction>
0.0005

