#       Name:                EN300-222203_i001
#       Creating user name   fsindt
#       Creation time:       Wed Mar  1 07:30:56 2023


#       File generated by GOLD software.
#

@<TRIPOS>MOLECULE
EN300-222203_i001|amine_1|mol2|8817|dock2
    17    16     1
SMALL
USER_CHARGES


@<TRIPOS>ATOM
      1 N1          -0.7554 -10.2086   8.9151 N.3            1 <1>                0.0000
      2 C2          -0.4273 -11.4219   9.6755 C.3            1 <1>                0.0000
      3 C3          -0.3824 -12.6216   8.7269 C.3            1 <1>                0.0000
      4 C4           0.7855 -12.4577   7.7523 C.3            1 <1>                0.0000
      5 O5           0.6893 -11.1886   7.1027 O.3            1 <1>                0.0000
      6 C6          -1.4950 -11.6575  10.7456 C.3            1 <1>                0.0000
      7 F7          -1.2723 -12.8933  11.3624 F              1 <1>                0.0000
      8 F8          -1.4281 -10.6397  11.7032 F              1 <1>                0.0000
      9 F9          -2.7608 -11.6549  10.1500 F              1 <1>                0.0000
     10 H10          0.5449 -11.2996  10.1529 H              1 <1>                0.0000
     11 H11         -0.2482 -13.5363   9.3043 H              1 <1>                0.0000
     12 H12         -1.3166 -12.6783   8.1683 H              1 <1>                0.0000
     13 H13          1.7264 -12.5154   8.2996 H              1 <1>                0.0000
     14 H14          0.7501 -13.2515   7.0060 H              1 <1>                0.0000
     15 H15          0.0635  -9.8348   8.4595 H              1 <1>                0.0000
     16 H16         -1.4904 -10.3879   8.2475 H              1 <1>                0.0000
     17 H17          0.9226 -10.4390   7.6673 H              1 <1>                0.0000
@<TRIPOS>BOND
    1    1    2 1     
    2    1   15 1     
    3    1   16 1     
    4    2    3 1     
    5    2    6 1     
    6    2   10 1     
    7    3    4 1     
    8    3   11 1     
    9    3   12 1     
   10    4    5 1     
   11    4   13 1     
   12    4   14 1     
   13    5   17 1     
   14    6    7 1     
   15    6    8 1     
   16    6    9 1     
@<TRIPOS>SUBSTRUCTURE
      1 ****           1
@<TRIPOS>SET
DONOR_HYDROGENS      STATIC     ATOMS    <user>   **** ""
3 15 16 17
ATOM$RED        STATIC     ATOMS    COLORGROUP SYSTEM
3 15 16 17
@<TRIPOS>COMMENT
> <Gold.Version>
2022.2.0

> <Gold.Id.Protein>
3pbl|protein|mol2

> <Gold.Protein.RotatedTorsions>
[ 1303 1298 1297 1294 ] final  115.15 input  179.99 | X-H torsion
[ 2461 2456 2455 2452 ] final   45.78 input   30.03 | X-H torsion
[ 2515 2510 2509 2506 ] final    5.88 input  -89.99 | X-H torsion
[ 3721 3712 3711 3710 ] final    7.54 input -179.91 | X-H torsion
[ 3841 3832 3831 3830 ] final    7.72 input -179.91 | X-H torsion
[ 3767 3762 3761 3758 ] final  -19.28 input  -89.99 | X-H torsion
[ 2472 2467 2466 2463 ] final  -73.58 input  -89.97 | X-H torsion

> <Gold.Protein.ActiveResidues>
 VAL82   VAL86   LEU89   PHE106  VAL107  ASP110  VAL111  MET112  CYS114  THR115 
 CYS181  SER182  ILE183  PHE188  VAL189  ILE190  SER192  SER193  SER196  TRP342 
 PHE345  PHE346  HIS349  VAL350  TYR365  THR369  GLY372  TYR373 

> <Gold.Protein.RotatedAtoms>
    4.6989   -9.8377    4.9461 H   0  0  0  0  0  0  0  0  0  0  0  0  # atno 1303 bound_to 1298
    1.7425   -7.9555    7.2429 H   0  0  0  0  0  0  0  0  0  0  0  0  # atno 2461 bound_to 2456
   -3.8460   -5.2632    9.1329 H   0  0  0  0  0  0  0  0  0  0  0  0  # atno 2472 bound_to 2467
    2.5005   -7.5714    4.6742 H   0  0  0  0  0  0  0  0  0  0  0  0  # atno 2515 bound_to 2510
   -2.4747  -17.9945   14.1356 H   0  0  0  0  0  0  0  0  0  0  0  0  # atno 3721 bound_to 3712
   -5.4591  -22.4789   10.3044 H   0  0  0  0  0  0  0  0  0  0  0  0  # atno 3767 bound_to 3762
    1.8088  -20.5725    9.5907 H   0  0  0  0  0  0  0  0  0  0  0  0  # atno 3841 bound_to 3832
    3.3640   -9.8078    4.0062 LP  0  0  0  0  0  0  0  0  0  0  0  0  # atno 4297 bound_to 1298
    4.2991   -8.4757    4.1391 LP  0  0  0  0  0  0  0  0  0  0  0  0  # atno 4298 bound_to 1298
    0.3318   -8.7292    7.5232 LP  0  0  0  0  0  0  0  0  0  0  0  0  # atno 4299 bound_to 2456
    1.6637   -9.1233    8.3819 LP  0  0  0  0  0  0  0  0  0  0  0  0  # atno 4300 bound_to 2456
    2.7427   -9.1679    4.9158 LP  0  0  0  0  0  0  0  0  0  0  0  0  # atno 4301 bound_to 2510
    2.0535   -8.2602    6.0854 LP  0  0  0  0  0  0  0  0  0  0  0  0  # atno 4302 bound_to 2510
   -3.3962  -16.7479   14.5534 LP  0  0  0  0  0  0  0  0  0  0  0  0  # atno 4306 bound_to 3712
   -3.2743  -17.2034   12.9899 LP  0  0  0  0  0  0  0  0  0  0  0  0  # atno 4307 bound_to 3712
    2.0299  -19.6376    8.3050 LP  0  0  0  0  0  0  0  0  0  0  0  0  # atno 4314 bound_to 3832
    3.1101  -20.8034    8.6800 LP  0  0  0  0  0  0  0  0  0  0  0  0  # atno 4315 bound_to 3832
   -4.5804  -22.0958   11.6265 LP  0  0  0  0  0  0  0  0  0  0  0  0  # atno 4318 bound_to 3762
   -4.0881  -23.3003   10.6400 LP  0  0  0  0  0  0  0  0  0  0  0  0  # atno 4319 bound_to 3762
   -5.4492   -5.3296    8.8300 LP  0  0  0  0  0  0  0  0  0  0  0  0  # atno 4320 bound_to 2467
   -4.4215   -4.8008    7.6764 LP  0  0  0  0  0  0  0  0  0  0  0  0  # atno 4321 bound_to 2467

> <Gold.Score>
     Score     S(PLP)   S(hbond)     S(cho)   S(metal)  DE(clash)   DE(tors)     intcor
     36.78     -30.99       2.00       0.00       0.00       0.00       0.11       0.00

> <Gold.PLP.Fitness>
36.7754

> <Gold.PLP.PLP>
-30.9873

> <Gold.PLP.part.hbond>
-2.0000

> <Gold.PLP.part.metal>
0.0000

> <Gold.PLP.part.buried>
-2.3133

> <Gold.PLP.part.nonpolar>
-27.0972

> <Gold.PLP.part.repulsive>
0.0000

> <Gold.PLP.ligand.clash>
0.0000

> <Gold.PLP.ligand.torsion>
0.1062

> <Gold.PLP.Chemscore.Hbond>
2.0000

> <Gold.PLP.Chemscore.CHOScore>
0.0000

> <Gold.PLP.Chemscore.Metal>
0.0000

> <Gold.Chemscore.Hbonds>
donor molecule, donor type, donor heavy atom, donor atom, acceptor molecule, acceptor atom, score
      L1  H     1    15       P1  2456  1.00
      L1  H     5    17       P1  2456  1.00

> <Gold.PLP.Chemscore.Internal.Correction>
0.0005

