#       Name:                EN300-222203_i001
#       Creating user name   fsindt
#       Creation time:       Wed Mar  1 07:30:58 2023


#       File generated by GOLD software.
#

@<TRIPOS>MOLECULE
EN300-222203_i001|amine_1|mol2|8817|dock4
    17    16     1
SMALL
USER_CHARGES


@<TRIPOS>ATOM
      1 N1           0.9247 -10.9828   8.8878 N.3            1 <1>                0.0000
      2 C2          -0.1125 -11.9063   8.4087 C.3            1 <1>                0.0000
      3 C3          -0.9232 -12.4243   9.5985 C.3            1 <1>                0.0000
      4 C4          -1.6060 -11.2490  10.3008 C.3            1 <1>                0.0000
      5 O5          -2.8267 -10.9357   9.6272 O.3            1 <1>                0.0000
      6 C6           0.5467 -13.0845   7.6889 C.3            1 <1>                0.0000
      7 F7           1.4010 -13.7522   8.5730 F              1 <1>                0.0000
      8 F8          -0.4408 -13.9673   7.2385 F              1 <1>                0.0000
      9 F9           1.2824 -12.6115   6.5972 F              1 <1>                0.0000
     10 H10         -0.7741 -11.3829   7.7185 H              1 <1>                0.0000
     11 H11         -1.6792 -13.1254   9.2452 H              1 <1>                0.0000
     12 H12         -0.2581 -12.9294  10.2989 H              1 <1>                0.0000
     13 H13         -1.8204 -11.5185  11.3349 H              1 <1>                0.0000
     14 H14         -0.9468 -10.3811  10.2807 H              1 <1>                0.0000
     15 H15          1.8454 -11.3754   8.7600 H              1 <1>                0.0000
     16 H16          0.8479 -10.0855   8.4330 H              1 <1>                0.0000
     17 H17         -2.9923  -9.9875   9.5337 H              1 <1>                0.0000
@<TRIPOS>BOND
    1    1    2 1     
    2    1   15 1     
    3    1   16 1     
    4    2    3 1     
    5    2    6 1     
    6    2   10 1     
    7    3    4 1     
    8    3   11 1     
    9    3   12 1     
   10    4    5 1     
   11    4   13 1     
   12    4   14 1     
   13    5   17 1     
   14    6    7 1     
   15    6    8 1     
   16    6    9 1     
@<TRIPOS>SUBSTRUCTURE
      1 ****           1
@<TRIPOS>SET
DONOR_HYDROGENS      STATIC     ATOMS    <user>   **** ""
3 15 16 17
ATOM$RED        STATIC     ATOMS    COLORGROUP SYSTEM
3 15 16 17
@<TRIPOS>COMMENT
> <Gold.Version>
2022.2.0

> <Gold.Id.Protein>
3pbl|protein|mol2

> <Gold.Protein.RotatedTorsions>
[ 1303 1298 1297 1294 ] final   64.97 input  179.99 | X-H torsion
[ 2461 2456 2455 2452 ] final  -33.74 input   30.03 | X-H torsion
[ 2515 2510 2509 2506 ] final -176.33 input  -89.99 | X-H torsion
[ 3721 3712 3711 3710 ] final -146.89 input -179.91 | X-H torsion
[ 3841 3832 3831 3830 ] final  -71.38 input -179.91 | X-H torsion
[ 3767 3762 3761 3758 ] final  -29.65 input  -89.99 | X-H torsion
[ 2472 2467 2466 2463 ] final  111.56 input  -89.97 | X-H torsion

> <Gold.Protein.ActiveResidues>
 VAL82   VAL86   LEU89   PHE106  VAL107  ASP110  VAL111  MET112  CYS114  THR115 
 CYS181  SER182  ILE183  PHE188  VAL189  ILE190  SER192  SER193  SER196  TRP342 
 PHE345  PHE346  HIS349  VAL350  TYR365  THR369  GLY372  TYR373 

> <Gold.Protein.RotatedAtoms>
    4.0764  -10.2614    4.6779 H   0  0  0  0  0  0  0  0  0  0  0  0  # atno 1303 bound_to 1298
    0.5798   -8.2612    7.1424 H   0  0  0  0  0  0  0  0  0  0  0  0  # atno 2461 bound_to 2456
   -5.3487   -5.0280    8.0216 H   0  0  0  0  0  0  0  0  0  0  0  0  # atno 2472 bound_to 2467
    2.3488   -9.0738    5.8017 H   0  0  0  0  0  0  0  0  0  0  0  0  # atno 2515 bound_to 2510
   -3.3199  -16.5352   14.0349 H   0  0  0  0  0  0  0  0  0  0  0  0  # atno 3721 bound_to 3712
   -5.4980  -22.3560   10.4160 H   0  0  0  0  0  0  0  0  0  0  0  0  # atno 3767 bound_to 3762
    1.6831  -19.7190    8.9043 H   0  0  0  0  0  0  0  0  0  0  0  0  # atno 3841 bound_to 3832
    3.4587   -9.0476    3.7771 LP  0  0  0  0  0  0  0  0  0  0  0  0  # atno 4297 bound_to 1298
    4.8271   -8.8119    4.6365 LP  0  0  0  0  0  0  0  0  0  0  0  0  # atno 4298 bound_to 1298
    1.0350   -9.2886    8.3276 LP  0  0  0  0  0  0  0  0  0  0  0  0  # atno 4299 bound_to 2456
    2.1227   -8.2583    7.6780 LP  0  0  0  0  0  0  0  0  0  0  0  0  # atno 4300 bound_to 2456
    2.1319   -7.4835    5.5025 LP  0  0  0  0  0  0  0  0  0  0  0  0  # atno 4301 bound_to 2510
    2.8160   -8.4415    4.3707 LP  0  0  0  0  0  0  0  0  0  0  0  0  # atno 4302 bound_to 2510
   -2.9672  -17.7337   13.0265 LP  0  0  0  0  0  0  0  0  0  0  0  0  # atno 4306 bound_to 3712
   -2.7277  -17.9024   14.6330 LP  0  0  0  0  0  0  0  0  0  0  0  0  # atno 4307 bound_to 3712
    3.0391  -20.3215    8.2924 LP  0  0  0  0  0  0  0  0  0  0  0  0  # atno 4314 bound_to 3832
    2.2459  -21.1053    9.4854 LP  0  0  0  0  0  0  0  0  0  0  0  0  # atno 4315 bound_to 3832
   -4.4400  -22.1898   11.6488 LP  0  0  0  0  0  0  0  0  0  0  0  0  # atno 4318 bound_to 3762
   -4.1897  -23.3292   10.5061 LP  0  0  0  0  0  0  0  0  0  0  0  0  # atno 4319 bound_to 3762
   -3.7287   -4.9092    8.1887 LP  0  0  0  0  0  0  0  0  0  0  0  0  # atno 4320 bound_to 2467
   -4.6396   -5.4563    9.4287 LP  0  0  0  0  0  0  0  0  0  0  0  0  # atno 4321 bound_to 2467

> <Gold.Score>
     Score     S(PLP)   S(hbond)     S(cho)   S(metal)  DE(clash)   DE(tors)     intcor
     35.68     -32.93       1.00       0.00       0.00       0.00       0.13       0.00

> <Gold.PLP.Fitness>
35.6755

> <Gold.PLP.PLP>
-32.9263

> <Gold.PLP.part.hbond>
-1.0000

> <Gold.PLP.part.metal>
0.0000

> <Gold.PLP.part.buried>
-4.1145

> <Gold.PLP.part.nonpolar>
-28.4724

> <Gold.PLP.part.repulsive>
0.0000

> <Gold.PLP.ligand.clash>
0.0000

> <Gold.PLP.ligand.torsion>
0.1257

> <Gold.PLP.Chemscore.Hbond>
1.0000

> <Gold.PLP.Chemscore.CHOScore>
0.0000

> <Gold.PLP.Chemscore.Metal>
0.0000

> <Gold.Chemscore.Hbonds>
donor molecule, donor type, donor heavy atom, donor atom, acceptor molecule, acceptor atom, score
      L1  H     1    16       P1  2456  1.00

> <Gold.PLP.Chemscore.Internal.Correction>
0.0005

