#       Name:                EN300-222203_i001
#       Creating user name   fsindt
#       Creation time:       Wed Mar  1 07:30:59 2023


#       File generated by GOLD software.
#

@<TRIPOS>MOLECULE
EN300-222203_i001|amine_1|mol2|8817|dock5
    17    16     1
SMALL
USER_CHARGES


@<TRIPOS>ATOM
      1 N1           1.0928 -11.2137   8.8170 N.3            1 <1>                0.0000
      2 C2           0.0529 -12.2275   8.5960 C.3            1 <1>                0.0000
      3 C3          -0.4018 -12.7937   9.9427 C.3            1 <1>                0.0000
      4 C4          -1.2510 -11.7518  10.6734 C.3            1 <1>                0.0000
      5 O5          -0.4645 -10.5846  10.9206 O.3            1 <1>                0.0000
      6 C6           0.6173 -13.3571   7.7322 C.3            1 <1>                0.0000
      7 F7           1.5583 -14.0830   8.4703 F              1 <1>                0.0000
      8 F8          -0.4220 -14.2066   7.3379 F              1 <1>                0.0000
      9 F9           1.2318 -12.8147   6.5984 F              1 <1>                0.0000
     10 H10         -0.7968 -11.7715   8.0880 H              1 <1>                0.0000
     11 H11         -0.9938 -13.6937   9.7771 H              1 <1>                0.0000
     12 H12          0.4714 -13.0392  10.5470 H              1 <1>                0.0000
     13 H13         -2.1106 -11.4870  10.0577 H              1 <1>                0.0000
     14 H14         -1.5965 -12.1646  11.6213 H              1 <1>                0.0000
     15 H15          1.9525 -11.4709   8.3558 H              1 <1>                0.0000
     16 H16          0.7796 -10.3029   8.5162 H              1 <1>                0.0000
     17 H17          0.0592 -10.2950  10.1610 H              1 <1>                0.0000
@<TRIPOS>BOND
    1    1    2 1     
    2    1   15 1     
    3    1   16 1     
    4    2    3 1     
    5    2    6 1     
    6    2   10 1     
    7    3    4 1     
    8    3   11 1     
    9    3   12 1     
   10    4    5 1     
   11    4   13 1     
   12    4   14 1     
   13    5   17 1     
   14    6    7 1     
   15    6    8 1     
   16    6    9 1     
@<TRIPOS>SUBSTRUCTURE
      1 ****           1
@<TRIPOS>SET
DONOR_HYDROGENS      STATIC     ATOMS    <user>   **** ""
3 15 16 17
ATOM$RED        STATIC     ATOMS    COLORGROUP SYSTEM
3 15 16 17
@<TRIPOS>COMMENT
> <Gold.Version>
2022.2.0

> <Gold.Id.Protein>
3pbl|protein|mol2

> <Gold.Protein.RotatedTorsions>
[ 1303 1298 1297 1294 ] final  -27.53 input  179.99 | X-H torsion
[ 2461 2456 2455 2452 ] final   13.23 input   30.03 | X-H torsion
[ 2515 2510 2509 2506 ] final  -35.15 input  -89.99 | X-H torsion
[ 3721 3712 3711 3710 ] final  -74.52 input -179.91 | X-H torsion
[ 3841 3832 3831 3830 ] final -113.89 input -179.91 | X-H torsion
[ 3767 3762 3761 3758 ] final  -53.46 input  -89.99 | X-H torsion
[ 2472 2467 2466 2463 ] final -113.99 input  -89.97 | X-H torsion

> <Gold.Protein.ActiveResidues>
 VAL82   VAL86   LEU89   PHE106  VAL107  ASP110  VAL111  MET112  CYS114  THR115 
 CYS181  SER182  ILE183  PHE188  VAL189  ILE190  SER192  SER193  SER196  TRP342 
 PHE345  PHE346  HIS349  VAL350  TYR365  THR369  GLY372  TYR373 

> <Gold.Protein.RotatedAtoms>
    3.3334   -9.4708    3.8548 H   0  0  0  0  0  0  0  0  0  0  0  0  # atno 1303 bound_to 1298
    1.2506   -7.9347    7.0504 H   0  0  0  0  0  0  0  0  0  0  0  0  # atno 2461 bound_to 2456
   -4.4040   -5.4297    9.4247 H   0  0  0  0  0  0  0  0  0  0  0  0  # atno 2472 bound_to 2467
    2.7449   -8.1023    4.3664 H   0  0  0  0  0  0  0  0  0  0  0  0  # atno 2515 bound_to 2510
   -2.9091  -17.1412   14.7492 H   0  0  0  0  0  0  0  0  0  0  0  0  # atno 3721 bound_to 3712
   -5.4892  -22.1133   10.7199 H   0  0  0  0  0  0  0  0  0  0  0  0  # atno 3767 bound_to 3762
    2.1418  -19.5827    8.4982 H   0  0  0  0  0  0  0  0  0  0  0  0  # atno 3841 bound_to 3832
    4.5827   -8.5519    4.3657 LP  0  0  0  0  0  0  0  0  0  0  0  0  # atno 4297 bound_to 1298
    4.4464  -10.0986    4.8713 LP  0  0  0  0  0  0  0  0  0  0  0  0  # atno 4298 bound_to 1298
    0.4509   -9.0720    7.9074 LP  0  0  0  0  0  0  0  0  0  0  0  0  # atno 4299 bound_to 2456
    2.0363   -8.8012    8.1902 LP  0  0  0  0  0  0  0  0  0  0  0  0  # atno 4300 bound_to 2456
    2.4970   -9.2240    5.5268 LP  0  0  0  0  0  0  0  0  0  0  0  0  # atno 4301 bound_to 2510
    2.0547   -7.6729    5.7825 LP  0  0  0  0  0  0  0  0  0  0  0  0  # atno 4302 bound_to 2510
   -3.4941  -16.7717   13.3004 LP  0  0  0  0  0  0  0  0  0  0  0  0  # atno 4306 bound_to 3712
   -2.6750  -18.1648   13.5345 LP  0  0  0  0  0  0  0  0  0  0  0  0  # atno 4307 bound_to 3712
    3.0932  -20.8534    8.7351 LP  0  0  0  0  0  0  0  0  0  0  0  0  # atno 4314 bound_to 3832
    1.6620  -20.7310    9.5118 LP  0  0  0  0  0  0  0  0  0  0  0  0  # atno 4315 bound_to 3832
   -4.1579  -22.4535   11.6024 LP  0  0  0  0  0  0  0  0  0  0  0  0  # atno 4318 bound_to 3762
   -4.4806  -23.3081   10.2488 LP  0  0  0  0  0  0  0  0  0  0  0  0  # atno 4319 bound_to 3762
   -5.4554   -5.1094    8.2171 LP  0  0  0  0  0  0  0  0  0  0  0  0  # atno 4320 bound_to 2467
   -3.8575   -4.8545    7.9975 LP  0  0  0  0  0  0  0  0  0  0  0  0  # atno 4321 bound_to 2467

> <Gold.Score>
     Score     S(PLP)   S(hbond)     S(cho)   S(metal)  DE(clash)   DE(tors)     intcor
     34.85     -32.29       1.00       0.00       0.00       0.00       0.22       0.00

> <Gold.PLP.Fitness>
34.8461

> <Gold.PLP.PLP>
-32.2898

> <Gold.PLP.part.hbond>
-1.0000

> <Gold.PLP.part.metal>
0.0000

> <Gold.PLP.part.buried>
-3.7041

> <Gold.PLP.part.nonpolar>
-28.4550

> <Gold.PLP.part.repulsive>
0.0000

> <Gold.PLP.ligand.clash>
0.0000

> <Gold.PLP.ligand.torsion>
0.2221

> <Gold.PLP.Chemscore.Hbond>
1.0000

> <Gold.PLP.Chemscore.CHOScore>
0.0000

> <Gold.PLP.Chemscore.Metal>
0.0000

> <Gold.Chemscore.Hbonds>
donor molecule, donor type, donor heavy atom, donor atom, acceptor molecule, acceptor atom, score
      L1  H     1    16       P1  2456  1.00

> <Gold.PLP.Chemscore.Internal.Correction>
0.0005

