#       Name:                EN300-222203_i001
#       Creating user name   fsindt
#       Creation time:       Wed Mar  1 07:31:13 2023


#       File generated by GOLD software.
#

@<TRIPOS>MOLECULE
EN300-222203_i001|amine_1|mol2|8817|dock20
    17    16     1
SMALL
USER_CHARGES


@<TRIPOS>ATOM
      1 N1           0.7644 -10.8157   9.4095 N.3            1 <1>                0.0000
      2 C2          -0.2808 -11.5379   8.6718 C.3            1 <1>                0.0000
      3 C3          -1.6363 -11.2945   9.3385 C.3            1 <1>                0.0000
      4 C4          -1.8995  -9.7899   9.4244 C.3            1 <1>                0.0000
      5 O5          -3.0751  -9.5556  10.2023 O.3            1 <1>                0.0000
      6 C6           0.0307 -13.0358   8.6813 C.3            1 <1>                0.0000
      7 F7           1.3533 -13.2397   8.2734 F              1 <1>                0.0000
      8 F8          -0.1412 -13.5397   9.9751 F              1 <1>                0.0000
      9 F9          -0.8351 -13.6977   7.8042 F              1 <1>                0.0000
     10 H10         -0.3125 -11.1799   7.6428 H              1 <1>                0.0000
     11 H11         -2.4213 -11.7677   8.7486 H              1 <1>                0.0000
     12 H12         -1.6292 -11.7200  10.3419 H              1 <1>                0.0000
     13 H13         -1.0482  -9.2983   9.8953 H              1 <1>                0.0000
     14 H14         -2.0417  -9.3880   8.4211 H              1 <1>                0.0000
     15 H15          1.5625 -11.4091   9.5796 H              1 <1>                0.0000
     16 H16          1.0361  -9.9753   8.9217 H              1 <1>                0.0000
     17 H17         -3.1845  -8.6367  10.4828 H              1 <1>                0.0000
@<TRIPOS>BOND
    1    1    2 1     
    2    1   15 1     
    3    1   16 1     
    4    2    3 1     
    5    2    6 1     
    6    2   10 1     
    7    3    4 1     
    8    3   11 1     
    9    3   12 1     
   10    4    5 1     
   11    4   13 1     
   12    4   14 1     
   13    5   17 1     
   14    6    7 1     
   15    6    8 1     
   16    6    9 1     
@<TRIPOS>SUBSTRUCTURE
      1 ****           1
@<TRIPOS>SET
DONOR_HYDROGENS      STATIC     ATOMS    <user>   **** ""
3 15 16 17
ATOM$RED        STATIC     ATOMS    COLORGROUP SYSTEM
3 15 16 17
@<TRIPOS>COMMENT
> <Gold.Version>
2022.2.0

> <Gold.Id.Protein>
3pbl|protein|mol2

> <Gold.Protein.RotatedTorsions>
[ 1303 1298 1297 1294 ] final  119.02 input  179.99 | X-H torsion
[ 2461 2456 2455 2452 ] final  -47.43 input   30.03 | X-H torsion
[ 2515 2510 2509 2506 ] final   78.36 input  -89.99 | X-H torsion
[ 3721 3712 3711 3710 ] final   68.71 input -179.91 | X-H torsion
[ 3841 3832 3831 3830 ] final -169.02 input -179.91 | X-H torsion
[ 3767 3762 3761 3758 ] final -146.96 input  -89.99 | X-H torsion
[ 2472 2467 2466 2463 ] final   34.91 input  -89.97 | X-H torsion

> <Gold.Protein.ActiveResidues>
 VAL82   VAL86   LEU89   PHE106  VAL107  ASP110  VAL111  MET112  CYS114  THR115 
 CYS181  SER182  ILE183  PHE188  VAL189  ILE190  SER192  SER193  SER196  TRP342 
 PHE345  PHE346  HIS349  VAL350  TYR365  THR369  GLY372  TYR373 

> <Gold.Protein.RotatedAtoms>
    4.7340   -9.7847    4.9499 H   0  0  0  0  0  0  0  0  0  0  0  0  # atno 1303 bound_to 1298
    0.4501   -8.4117    7.2475 H   0  0  0  0  0  0  0  0  0  0  0  0  # atno 2461 bound_to 2456
   -4.2399   -4.8004    7.7285 H   0  0  0  0  0  0  0  0  0  0  0  0  # atno 2472 bound_to 2467
    2.0736   -7.6042    5.7030 H   0  0  0  0  0  0  0  0  0  0  0  0  # atno 2515 bound_to 2510
   -2.6405  -17.8373   13.2843 H   0  0  0  0  0  0  0  0  0  0  0  0  # atno 3721 bound_to 3712
   -4.4753  -22.1633   11.6453 H   0  0  0  0  0  0  0  0  0  0  0  0  # atno 3767 bound_to 3762
    2.8523  -19.9296    8.3689 H   0  0  0  0  0  0  0  0  0  0  0  0  # atno 3841 bound_to 3832
    3.3813   -9.8599    4.0384 LP  0  0  0  0  0  0  0  0  0  0  0  0  # atno 4297 bound_to 1298
    4.2466   -8.4765    4.1030 LP  0  0  0  0  0  0  0  0  0  0  0  0  # atno 4298 bound_to 1298
    1.2518   -9.2687    8.3834 LP  0  0  0  0  0  0  0  0  0  0  0  0  # atno 4299 bound_to 2456
    2.0356   -8.1277    7.5171 LP  0  0  0  0  0  0  0  0  0  0  0  0  # atno 4300 bound_to 2456
    2.7717   -8.2050    4.3549 LP  0  0  0  0  0  0  0  0  0  0  0  0  # atno 4301 bound_to 2510
    2.4516   -9.1902    5.6172 LP  0  0  0  0  0  0  0  0  0  0  0  0  # atno 4302 bound_to 2510
   -2.9142  -17.5449   14.8391 LP  0  0  0  0  0  0  0  0  0  0  0  0  # atno 4306 bound_to 3712
   -3.5650  -16.5879   13.6870 LP  0  0  0  0  0  0  0  0  0  0  0  0  # atno 4307 bound_to 3712
    2.5353  -21.1574    9.3528 LP  0  0  0  0  0  0  0  0  0  0  0  0  # atno 4314 bound_to 3832
    1.3991  -20.0261    9.0434 LP  0  0  0  0  0  0  0  0  0  0  0  0  # atno 4315 bound_to 3832
   -4.1614  -23.3238   10.5401 LP  0  0  0  0  0  0  0  0  0  0  0  0  # atno 4318 bound_to 3762
   -5.4905  -22.3878   10.3860 LP  0  0  0  0  0  0  0  0  0  0  0  0  # atno 4319 bound_to 3762
   -3.9791   -5.3207    9.2541 LP  0  0  0  0  0  0  0  0  0  0  0  0  # atno 4320 bound_to 2467
   -5.4979   -5.2724    8.6564 LP  0  0  0  0  0  0  0  0  0  0  0  0  # atno 4321 bound_to 2467

> <Gold.Score>
     Score     S(PLP)   S(hbond)     S(cho)   S(metal)  DE(clash)   DE(tors)     intcor
     33.57     -27.89       2.00       0.00       0.00       0.00       0.16       0.00

> <Gold.PLP.Fitness>
33.5712

> <Gold.PLP.PLP>
-27.8917

> <Gold.PLP.part.hbond>
-2.0000

> <Gold.PLP.part.metal>
0.0000

> <Gold.PLP.part.buried>
-3.5247

> <Gold.PLP.part.nonpolar>
-22.8906

> <Gold.PLP.part.repulsive>
0.0000

> <Gold.PLP.ligand.clash>
0.0000

> <Gold.PLP.ligand.torsion>
0.1605

> <Gold.PLP.Chemscore.Hbond>
2.0000

> <Gold.PLP.Chemscore.CHOScore>
0.0000

> <Gold.PLP.Chemscore.Metal>
0.0000

> <Gold.Chemscore.Hbonds>
donor molecule, donor type, donor heavy atom, donor atom, acceptor molecule, acceptor atom, score
      L1  H     1    16       P1  2456  1.00
      L1  H     5    17       P1  2398  1.00

> <Gold.PLP.Chemscore.Internal.Correction>
0.0005

