#       Name:                plp ligand
#       Creating user name   fsindt
#       Creation time:       Wed Mar  1 07:30:55 2023


#       File generated by GOLD software.
#

@<TRIPOS>MOLECULE
plp ligand
    17    16     1
SMALL
USER_CHARGES


@<TRIPOS>ATOM
      1 N1          -0.7436   1.5706  -0.1482 DONACC         1 <1>                0.0000
      2 C2          -0.7924   0.1922   0.3575 NONPOLAR       1 <1>                0.0000
      3 C3           0.3731  -0.6075  -0.2283 NONPOLAR       1 <1>                0.0000
      4 C4           1.6948  -0.0340   0.2864 NONPOLAR       1 <1>                0.0000
      5 O5           2.7833  -0.7809  -0.2607 DONACC         1 <1>                0.0000
      6 C6          -2.1149  -0.4563  -0.0562 NONPOLAR       1 <1>                0.0000
      7 F7          -2.2121  -0.4679  -1.4518 NONPOLAR       1 <1>                0.0000
      8 F8          -2.1614  -1.7690   0.4254 NONPOLAR       1 <1>                0.0000
      9 F9          -3.1805   0.2749   0.4794 NONPOLAR       1 <1>                0.0000
     10 H10         -0.7166   0.2013   1.4448                1 <1>                0.0000
     11 H11          0.2868  -1.6507   0.0755                1 <1>                0.0000
     12 H12          0.3479  -0.5425  -1.3160                1 <1>                0.0000
     13 H13          1.7810   1.0093  -0.0173                1 <1>                0.0000
     14 H14          1.7200  -0.0990   1.3742                1 <1>                0.0000
     15 H15          0.0914   2.0417   0.1661                1 <1>                0.0000
     16 H16         -0.8121   1.5891  -1.1547                1 <1>                0.0000
     17 H17          3.6545  -0.4721   0.0235                1 <1>                0.0000
@<TRIPOS>BOND
    1    1    2 1     
    2    1   15 1     
    3    1   16 1     
    4    2    3 1     
    5    2    6 1     
    6    2   10 1     
    7    3    4 1     
    8    3   11 1     
    9    3   12 1     
   10    4    5 1     
   11    4   13 1     
   12    4   14 1     
   13    5   17 1     
   14    6    7 1     
   15    6    8 1     
   16    6    9 1     
@<TRIPOS>SUBSTRUCTURE
      1 ****           1
@<TRIPOS>SET
DONOR_HYDROGENS      STATIC     ATOMS    <user>   **** ""
3 15 16 17
ATOM$RED        STATIC     ATOMS    COLORGROUP SYSTEM
3 15 16 17
