#       Name:                EN300-321602_i001
#       Creating user name   aseyller
#       Creation time:       Fri Apr 21 16:46:09 2023


#       File generated by GOLD software.
#

@<TRIPOS>MOLECULE
EN300-321602_i001|aminophenols|mol2|116|dock19
    14    14     1
SMALL
USER_CHARGES


@<TRIPOS>ATOM
      1 N1          32.6932  34.9641  37.3061 N.pl3          1 <1>                0.0000
      2 C2          31.6878  35.8526  37.7044 C.ar           1 <1>                0.0000
      3 C3          30.8852  35.5506  38.7956 C.ar           1 <1>                0.0000
      4 C4          29.8923  36.4293  39.1880 C.ar           1 <1>                0.0000
      5 Br5         28.8001  36.0154  40.6753 Br             1 <1>                0.0000
      6 C6          29.6962  37.6108  38.4954 C.ar           1 <1>                0.0000
      7 C7          30.4933  37.9184  37.4059 C.ar           1 <1>                0.0000
      8 F8          30.2994  39.0729  36.7315 F              1 <1>                0.0000
      9 C9          31.4944  37.0438  37.0104 C.ar           1 <1>                0.0000
     10 O10         32.2787  37.3444  35.9397 O.co2          1 <1>               -1.0000
     11 H11         31.0360  34.6291  39.3382 H              1 <1>                0.0000
     12 H12         28.9197  38.2945  38.8051 H              1 <1>                0.0000
     13 H13         32.8297  34.1362  37.7929 H              1 <1>                0.0000
     14 H14         33.2509  35.1744  36.5408 H              1 <1>                0.0000
@<TRIPOS>BOND
    1    1    2 1     
    2    1   13 1     
    3    1   14 1     
    4    2    3 ar    
    5    2    9 ar    
    6    3    4 ar    
    7    3   11 1     
    8    4    5 1     
    9    4    6 ar    
   10    6    7 ar    
   11    6   12 1     
   12    7    8 1     
   13    7    9 ar    
   14    9   10 ar    
@<TRIPOS>SUBSTRUCTURE
      1 ****           1
@<TRIPOS>SET
DONOR_HYDROGENS      STATIC     ATOMS    <user>   **** ""
2 13 14
ATOM$RED        STATIC     ATOMS    COLORGROUP SYSTEM
2 13 14
@<TRIPOS>COMMENT
> <Gold.Version>
2022.2.0

> <Gold.Id.Protein>
1qkm|1qkm_protein|mol2

> <Gold.Protein.RotatedTorsions>
[  496  491  490  487 ] final  172.76 input  -89.99 | X-H torsion

> <Gold.Protein.ActiveResidues>
 MET295  LEU298  THR299  LEU301  ALA302  GLU305  TRP335  MET336  LEU339  MET340 
 GLY342  LEU343  ARG346  PHE356  ILE373  ILE376  PHE377  LEU380  LYS471  GLY472 
 MET473  HIS475  LEU476  LEU477  ASN478  MET479  VAL484  VAL487 

> <Gold.Protein.RotatedAtoms>
   37.3176   33.3618   40.9324 H   0  0  0  0  0  0  0  0  0  0  0  0  # atno 496  bound_to 491 

> <Gold.Score>
     Score     S(PLP)   S(hbond)     S(cho)   S(metal)  DE(clash)   DE(tors)     intcor
     30.82     -30.82       0.00       0.00       0.00       0.00       0.00       0.00

> <Gold.PLP.Fitness>
30.8189

> <Gold.PLP.PLP>
-30.8189

> <Gold.PLP.part.hbond>
0.0000

> <Gold.PLP.part.metal>
0.0000

> <Gold.PLP.part.buried>
-2.4156

> <Gold.PLP.part.nonpolar>
-29.0080

> <Gold.PLP.part.repulsive>
0.0586

> <Gold.PLP.ligand.clash>
0.0000

> <Gold.PLP.ligand.torsion>
0.0000

> <Gold.PLP.Chemscore.Hbond>
0.0000

> <Gold.PLP.Chemscore.CHOScore>
0.0000

> <Gold.PLP.Chemscore.Metal>
0.0000

> <Gold.PLP.Chemscore.Internal.Correction>
0.0000

