#       Name:                EN300-321602_i001
#       Creating user name   aseyller
#       Creation time:       Fri Apr 21 16:46:09 2023


#       File generated by GOLD software.
#

@<TRIPOS>MOLECULE
EN300-321602_i001|aminophenols|mol2|116|dock18
    14    14     1
SMALL
USER_CHARGES


@<TRIPOS>ATOM
      1 N1          27.9506  35.1976  40.6902 N.pl3          1 <1>                0.0000
      2 C2          28.6329  35.8983  39.6890 C.ar           1 <1>                0.0000
      3 C3          29.9556  35.5901  39.4026 C.ar           1 <1>                0.0000
      4 C4          30.6284  36.2831  38.4131 C.ar           1 <1>                0.0000
      5 Br5         32.4304  35.8612  38.0248 Br             1 <1>                0.0000
      6 C6          29.9862  37.2842  37.7063 C.ar           1 <1>                0.0000
      7 C7          28.6669  37.5968  37.9868 C.ar           1 <1>                0.0000
      8 F8          28.0426  38.5748  37.2949 F              1 <1>                0.0000
      9 C9          27.9848  36.9019  38.9743 C.ar           1 <1>                0.0000
     10 O10         26.6881  37.2077  39.2516 O.co2          1 <1>               -1.0000
     11 H11         30.4593  34.8092  39.9527 H              1 <1>                0.0000
     12 H12         30.5152  37.8231  36.9342 H              1 <1>                0.0000
     13 H13         28.4021  34.4957  41.1848 H              1 <1>                0.0000
     14 H14         27.0275  35.4166  40.8923 H              1 <1>                0.0000
@<TRIPOS>BOND
    1    1    2 1     
    2    1   13 1     
    3    1   14 1     
    4    2    3 ar    
    5    2    9 ar    
    6    3    4 ar    
    7    3   11 1     
    8    4    5 1     
    9    4    6 ar    
   10    6    7 ar    
   11    6   12 1     
   12    7    8 1     
   13    7    9 ar    
   14    9   10 ar    
@<TRIPOS>SUBSTRUCTURE
      1 ****           1
@<TRIPOS>SET
DONOR_HYDROGENS      STATIC     ATOMS    <user>   **** ""
2 13 14
ATOM$RED        STATIC     ATOMS    COLORGROUP SYSTEM
2 13 14
@<TRIPOS>COMMENT
> <Gold.Version>
2022.2.0

> <Gold.Id.Protein>
1qkm|1qkm_protein|mol2

> <Gold.Protein.RotatedTorsions>
[  496  491  490  487 ] final  170.13 input  -89.99 | X-H torsion

> <Gold.Protein.ActiveResidues>
 MET295  LEU298  THR299  LEU301  ALA302  GLU305  TRP335  MET336  LEU339  MET340 
 GLY342  LEU343  ARG346  PHE356  ILE373  ILE376  PHE377  LEU380  LYS471  GLY472 
 MET473  HIS475  LEU476  LEU477  ASN478  MET479  VAL484  VAL487 

> <Gold.Protein.RotatedAtoms>
   37.3154   33.3273   40.9586 H   0  0  0  0  0  0  0  0  0  0  0  0  # atno 496  bound_to 491 

> <Gold.Score>
     Score     S(PLP)   S(hbond)     S(cho)   S(metal)  DE(clash)   DE(tors)     intcor
     30.09     -30.09       0.00       0.00       0.00       0.00       0.00       0.00

> <Gold.PLP.Fitness>
30.0920

> <Gold.PLP.PLP>
-30.0920

> <Gold.PLP.part.hbond>
0.0000

> <Gold.PLP.part.metal>
0.0000

> <Gold.PLP.part.buried>
-2.4540

> <Gold.PLP.part.nonpolar>
-27.6839

> <Gold.PLP.part.repulsive>
0.0766

> <Gold.PLP.ligand.clash>
0.0000

> <Gold.PLP.ligand.torsion>
0.0000

> <Gold.PLP.Chemscore.Hbond>
0.0000

> <Gold.PLP.Chemscore.CHOScore>
0.0000

> <Gold.PLP.Chemscore.Metal>
0.0000

> <Gold.PLP.Chemscore.Internal.Correction>
0.0000

