#       Name:                EN300-321602_i001
#       Creating user name   aseyller
#       Creation time:       Fri Apr 21 16:46:07 2023


#       File generated by GOLD software.
#

@<TRIPOS>MOLECULE
EN300-321602_i001|aminophenols|mol2|116|dock4
    14    14     1
SMALL
USER_CHARGES


@<TRIPOS>ATOM
      1 N1          28.9211  35.5149  41.5566 N.pl3          1 <1>                0.0000
      2 C2          28.8403  36.1077  40.2913 C.ar           1 <1>                0.0000
      3 C3          29.9964  36.3561  39.5646 C.ar           1 <1>                0.0000
      4 C4          29.9151  36.9418  38.3147 C.ar           1 <1>                0.0000
      5 Br5         31.4917  37.2791  37.3266 Br             1 <1>                0.0000
      6 C6          28.6828  37.2813  37.7851 C.ar           1 <1>                0.0000
      7 C7          27.5255  37.0363  38.5045 C.ar           1 <1>                0.0000
      8 F8          26.3237  37.3690  37.9847 F              1 <1>                0.0000
      9 C9          27.5998  36.4443  39.7565 C.ar           1 <1>                0.0000
     10 O10         26.4635  36.2028  40.4652 O.co2          1 <1>               -1.0000
     11 H11         30.9596  36.0921  39.9755 H              1 <1>                0.0000
     12 H12         28.6235  37.7385  36.8084 H              1 <1>                0.0000
     13 H13         29.7858  35.2771  41.9265 H              1 <1>                0.0000
     14 H14         28.1128  35.3455  42.0653 H              1 <1>                0.0000
@<TRIPOS>BOND
    1    1    2 1     
    2    1   13 1     
    3    1   14 1     
    4    2    3 ar    
    5    2    9 ar    
    6    3    4 ar    
    7    3   11 1     
    8    4    5 1     
    9    4    6 ar    
   10    6    7 ar    
   11    6   12 1     
   12    7    8 1     
   13    7    9 ar    
   14    9   10 ar    
@<TRIPOS>SUBSTRUCTURE
      1 ****           1
@<TRIPOS>SET
DONOR_HYDROGENS      STATIC     ATOMS    <user>   **** ""
2 13 14
ATOM$RED        STATIC     ATOMS    COLORGROUP SYSTEM
2 13 14
@<TRIPOS>COMMENT
> <Gold.Version>
2022.2.0

> <Gold.Id.Protein>
1qkm|1qkm_protein|mol2

> <Gold.Protein.RotatedTorsions>
[  496  491  490  487 ] final -160.73 input  -89.99 | X-H torsion

> <Gold.Protein.ActiveResidues>
 MET295  LEU298  THR299  LEU301  ALA302  GLU305  TRP335  MET336  LEU339  MET340 
 GLY342  LEU343  ARG346  PHE356  ILE373  ILE376  PHE377  LEU380  LYS471  GLY472 
 MET473  HIS475  LEU476  LEU477  ASN478  MET479  VAL484  VAL487 

> <Gold.Protein.RotatedAtoms>
   37.2778   33.7520   40.7498 H   0  0  0  0  0  0  0  0  0  0  0  0  # atno 496  bound_to 491 

> <Gold.Score>
     Score     S(PLP)   S(hbond)     S(cho)   S(metal)  DE(clash)   DE(tors)     intcor
     32.24     -29.27       0.99       0.00       0.00       0.00       0.00       0.00

> <Gold.PLP.Fitness>
32.2394

> <Gold.PLP.PLP>
-29.2657

> <Gold.PLP.part.hbond>
-1.0000

> <Gold.PLP.part.metal>
0.0000

> <Gold.PLP.part.buried>
-3.3027

> <Gold.PLP.part.nonpolar>
-26.8983

> <Gold.PLP.part.repulsive>
0.2105

> <Gold.PLP.ligand.clash>
0.0000

> <Gold.PLP.ligand.torsion>
0.0000

> <Gold.PLP.Chemscore.Hbond>
0.9913

> <Gold.PLP.Chemscore.CHOScore>
0.0000

> <Gold.PLP.Chemscore.Metal>
0.0000

> <Gold.Chemscore.Hbonds>
donor molecule, donor type, donor heavy atom, donor atom, acceptor molecule, acceptor atom, score
      L1  H     1    13       P1   470  0.99

> <Gold.PLP.Chemscore.Internal.Correction>
0.0000

