#       Name:                EN300-321602_i001
#       Creating user name   aseyller
#       Creation time:       Fri Apr 21 16:46:07 2023


#       File generated by GOLD software.
#

@<TRIPOS>MOLECULE
EN300-321602_i001|aminophenols|mol2|116|dock3
    14    14     1
SMALL
USER_CHARGES


@<TRIPOS>ATOM
      1 N1          28.1431  35.3084  42.1611 N.pl3          1 <1>                0.0000
      2 C2          28.0988  36.0121  40.9521 C.ar           1 <1>                0.0000
      3 C3          29.2746  36.3108  40.2779 C.ar           1 <1>                0.0000
      4 C4          29.2294  37.0059  39.0835 C.ar           1 <1>                0.0000
      5 Br5         30.8329  37.4117  38.1669 Br             1 <1>                0.0000
      6 C6          28.0137  37.4051  38.5572 C.ar           1 <1>                0.0000
      7 C7          26.8369  37.1104  39.2245 C.ar           1 <1>                0.0000
      8 F8          25.6513  37.5015  38.7080 F              1 <1>                0.0000
      9 C9          26.8749  36.4088  40.4202 C.ar           1 <1>                0.0000
     10 O10         25.7194  36.1184  41.0776 O.co2          1 <1>               -1.0000
     11 H11         30.2249  36.0005  40.6864 H              1 <1>                0.0000
     12 H12         27.9826  37.9478  37.6240 H              1 <1>                0.0000
     13 H13         28.9961  35.0290  42.5288 H              1 <1>                0.0000
     14 H14         27.3209  35.1038  42.6335 H              1 <1>                0.0000
@<TRIPOS>BOND
    1    1    2 1     
    2    1   13 1     
    3    1   14 1     
    4    2    3 ar    
    5    2    9 ar    
    6    3    4 ar    
    7    3   11 1     
    8    4    5 1     
    9    4    6 ar    
   10    6    7 ar    
   11    6   12 1     
   12    7    8 1     
   13    7    9 ar    
   14    9   10 ar    
@<TRIPOS>SUBSTRUCTURE
      1 ****           1
@<TRIPOS>SET
DONOR_HYDROGENS      STATIC     ATOMS    <user>   **** ""
2 13 14
ATOM$RED        STATIC     ATOMS    COLORGROUP SYSTEM
2 13 14
@<TRIPOS>COMMENT
> <Gold.Version>
2022.2.0

> <Gold.Id.Protein>
1qkm|1qkm_protein|mol2

> <Gold.Protein.RotatedTorsions>
[  496  491  490  487 ] final  145.28 input  -89.99 | X-H torsion

> <Gold.Protein.ActiveResidues>
 MET295  LEU298  THR299  LEU301  ALA302  GLU305  TRP335  MET336  LEU339  MET340 
 GLY342  LEU343  ARG346  PHE356  ILE373  ILE376  PHE377  LEU380  LYS471  GLY472 
 MET473  HIS475  LEU476  LEU477  ASN478  MET479  VAL484  VAL487 

> <Gold.Protein.RotatedAtoms>
   37.2416   33.0640   41.2583 H   0  0  0  0  0  0  0  0  0  0  0  0  # atno 496  bound_to 491 

> <Gold.Score>
     Score     S(PLP)   S(hbond)     S(cho)   S(metal)  DE(clash)   DE(tors)     intcor
     35.43     -32.43       1.00       0.00       0.00       0.00       0.00       0.00

> <Gold.PLP.Fitness>
35.4265

> <Gold.PLP.PLP>
-32.4265

> <Gold.PLP.part.hbond>
-1.0000

> <Gold.PLP.part.metal>
0.0000

> <Gold.PLP.part.buried>
-3.9194

> <Gold.PLP.part.nonpolar>
-28.9381

> <Gold.PLP.part.repulsive>
0.3164

> <Gold.PLP.ligand.clash>
0.0000

> <Gold.PLP.ligand.torsion>
0.0000

> <Gold.PLP.Chemscore.Hbond>
1.0000

> <Gold.PLP.Chemscore.CHOScore>
0.0000

> <Gold.PLP.Chemscore.Metal>
0.0000

> <Gold.Chemscore.Hbonds>
donor molecule, donor type, donor heavy atom, donor atom, acceptor molecule, acceptor atom, score
      L1  H     1    14       P1   582  1.00

> <Gold.PLP.Chemscore.Internal.Correction>
0.0000

