#       Name:                EN300-321602_i001
#       Creating user name   aseyller
#       Creation time:       Fri Apr 21 16:46:08 2023


#       File generated by GOLD software.
#

@<TRIPOS>MOLECULE
EN300-321602_i001|aminophenols|mol2|116|dock11
    14    14     1
SMALL
USER_CHARGES


@<TRIPOS>ATOM
      1 N1          26.2552  35.6778  41.5078 N.pl3          1 <1>                0.0000
      2 C2          27.1021  36.0281  40.4500 C.ar           1 <1>                0.0000
      3 C3          28.3386  35.4122  40.3160 C.ar           1 <1>                0.0000
      4 C4          29.1743  35.7591  39.2705 C.ar           1 <1>                0.0000
      5 Br5         30.8585  34.9183  39.0901 Br             1 <1>                0.0000
      6 C6          28.7810  36.7197  38.3557 C.ar           1 <1>                0.0000
      7 C7          27.5489  37.3382  38.4834 C.ar           1 <1>                0.0000
      8 F8          27.1677  38.2758  37.5886 F              1 <1>                0.0000
      9 C9          26.7037  36.9909  39.5268 C.ar           1 <1>                0.0000
     10 O10         25.4924  37.5977  39.6540 O.co2          1 <1>               -1.0000
     11 H11         28.6481  34.6620  41.0285 H              1 <1>                0.0000
     12 H12         29.4366  36.9879  37.5404 H              1 <1>                0.0000
     13 H13         26.5321  35.0039  42.1482 H              1 <1>                0.0000
     14 H14         25.3929  36.1119  41.6028 H              1 <1>                0.0000
@<TRIPOS>BOND
    1    1    2 1     
    2    1   13 1     
    3    1   14 1     
    4    2    3 ar    
    5    2    9 ar    
    6    3    4 ar    
    7    3   11 1     
    8    4    5 1     
    9    4    6 ar    
   10    6    7 ar    
   11    6   12 1     
   12    7    8 1     
   13    7    9 ar    
   14    9   10 ar    
@<TRIPOS>SUBSTRUCTURE
      1 ****           1
@<TRIPOS>SET
DONOR_HYDROGENS      STATIC     ATOMS    <user>   **** ""
2 13 14
ATOM$RED        STATIC     ATOMS    COLORGROUP SYSTEM
2 13 14
@<TRIPOS>COMMENT
> <Gold.Version>
2022.2.0

> <Gold.Id.Protein>
1qkm|1qkm_protein|mol2

> <Gold.Protein.RotatedTorsions>
[  496  491  490  487 ] final  111.62 input  -89.99 | X-H torsion

> <Gold.Protein.ActiveResidues>
 MET295  LEU298  THR299  LEU301  ALA302  GLU305  TRP335  MET336  LEU339  MET340 
 GLY342  LEU343  ARG346  PHE356  ILE373  ILE376  PHE377  LEU380  LYS471  GLY472 
 MET473  HIS475  LEU476  LEU477  ASN478  MET479  VAL484  VAL487 

> <Gold.Protein.RotatedAtoms>
   37.0129   32.9408   41.7389 H   0  0  0  0  0  0  0  0  0  0  0  0  # atno 496  bound_to 491 

> <Gold.Score>
     Score     S(PLP)   S(hbond)     S(cho)   S(metal)  DE(clash)   DE(tors)     intcor
     34.38     -32.17       0.74       0.00       0.00       0.00       0.00       0.00

> <Gold.PLP.Fitness>
34.3826

> <Gold.PLP.PLP>
-32.1746

> <Gold.PLP.part.hbond>
-1.0000

> <Gold.PLP.part.metal>
0.0000

> <Gold.PLP.part.buried>
-1.4192

> <Gold.PLP.part.nonpolar>
-29.0314

> <Gold.PLP.part.repulsive>
0.1277

> <Gold.PLP.ligand.clash>
0.0000

> <Gold.PLP.ligand.torsion>
0.0000

> <Gold.PLP.Chemscore.Hbond>
0.7360

> <Gold.PLP.Chemscore.CHOScore>
0.0000

> <Gold.PLP.Chemscore.Metal>
0.0000

> <Gold.Chemscore.Hbonds>
donor molecule, donor type, donor heavy atom, donor atom, acceptor molecule, acceptor atom, score
      L1  H     1    13       P1   582  0.74

> <Gold.PLP.Chemscore.Internal.Correction>
0.0000

