#       Name:                EN300-321602_i001
#       Creating user name   aseyller
#       Creation time:       Fri Apr 21 16:46:06 2023


#       File generated by GOLD software.
#

@<TRIPOS>MOLECULE
EN300-321602_i001|aminophenols|mol2|116|dock1
    14    14     1
SMALL
USER_CHARGES


@<TRIPOS>ATOM
      1 N1          29.3635  36.0792  41.6649 N.pl3          1 <1>                0.0000
      2 C2          28.7901  36.5330  40.4715 C.ar           1 <1>                0.0000
      3 C3          29.5951  36.8169  39.3771 C.ar           1 <1>                0.0000
      4 C4          29.0273  37.2650  38.1987 C.ar           1 <1>                0.0000
      5 Br5         30.1264  37.6512  36.7091 Br             1 <1>                0.0000
      6 C6          27.6569  37.4312  38.1068 C.ar           1 <1>                0.0000
      7 C7          26.8479  37.1498  39.1945 C.ar           1 <1>                0.0000
      8 F8          25.5100  37.3131  39.1016 F              1 <1>                0.0000
      9 C9          27.4106  36.6949  40.3777 C.ar           1 <1>                0.0000
     10 O10         26.6172  36.4179  41.4480 O.co2          1 <1>               -1.0000
     11 H11         30.6651  36.6881  39.4461 H              1 <1>                0.0000
     12 H12         27.2172  37.7814  37.1845 H              1 <1>                0.0000
     13 H13         30.3245  35.9629  41.7279 H              1 <1>                0.0000
     14 H14         28.8003  35.8849  42.4304 H              1 <1>                0.0000
@<TRIPOS>BOND
    1    1    2 1     
    2    1   13 1     
    3    1   14 1     
    4    2    3 ar    
    5    2    9 ar    
    6    3    4 ar    
    7    3   11 1     
    8    4    5 1     
    9    4    6 ar    
   10    6    7 ar    
   11    6   12 1     
   12    7    8 1     
   13    7    9 ar    
   14    9   10 ar    
@<TRIPOS>SUBSTRUCTURE
      1 ****           1
@<TRIPOS>SET
DONOR_HYDROGENS      STATIC     ATOMS    <user>   **** ""
2 13 14
ATOM$RED        STATIC     ATOMS    COLORGROUP SYSTEM
2 13 14
@<TRIPOS>COMMENT
> <Gold.Version>
2022.2.0

> <Gold.Id.Protein>
1qkm|1qkm_protein|mol2

> <Gold.Protein.RotatedTorsions>
[  496  491  490  487 ] final   25.40 input  -89.99 | X-H torsion

> <Gold.Protein.ActiveResidues>
 MET295  LEU298  THR299  LEU301  ALA302  GLU305  TRP335  MET336  LEU339  MET340 
 GLY342  LEU343  ARG346  PHE356  ILE373  ILE376  PHE377  LEU380  LYS471  GLY472 
 MET473  HIS475  LEU476  LEU477  ASN478  MET479  VAL484  VAL487 

> <Gold.Protein.RotatedAtoms>
   36.3244   33.8273   42.3726 H   0  0  0  0  0  0  0  0  0  0  0  0  # atno 496  bound_to 491 

> <Gold.Score>
     Score     S(PLP)   S(hbond)     S(cho)   S(metal)  DE(clash)   DE(tors)     intcor
     37.06     -34.06       1.00       0.00       0.00       0.00       0.00       0.00

> <Gold.PLP.Fitness>
37.0586

> <Gold.PLP.PLP>
-34.0586

> <Gold.PLP.part.hbond>
-1.0000

> <Gold.PLP.part.metal>
0.0000

> <Gold.PLP.part.buried>
-3.6240

> <Gold.PLP.part.nonpolar>
-30.2395

> <Gold.PLP.part.repulsive>
0.8234

> <Gold.PLP.ligand.clash>
0.0000

> <Gold.PLP.ligand.torsion>
0.0000

> <Gold.PLP.Chemscore.Hbond>
1.0000

> <Gold.PLP.Chemscore.CHOScore>
0.0000

> <Gold.PLP.Chemscore.Metal>
0.0000

> <Gold.Chemscore.Hbonds>
donor molecule, donor type, donor heavy atom, donor atom, acceptor molecule, acceptor atom, score
      L1  H     1    13       P1   470  1.00

> <Gold.PLP.Chemscore.Internal.Correction>
0.0000

