#       Name:                EN300-321602_i001
#       Creating user name   aseyller
#       Creation time:       Fri Apr 21 16:46:07 2023


#       File generated by GOLD software.
#

@<TRIPOS>MOLECULE
EN300-321602_i001|aminophenols|mol2|116|dock6
    14    14     1
SMALL
USER_CHARGES


@<TRIPOS>ATOM
      1 N1          34.2016  36.7005  34.6043 N.pl3          1 <1>                0.0000
      2 C2          33.0727  36.6132  35.4271 C.ar           1 <1>                0.0000
      3 C3          32.9930  35.6221  36.3954 C.ar           1 <1>                0.0000
      4 C4          31.8772  35.5370  37.2076 C.ar           1 <1>                0.0000
      5 Br5         31.7710  34.1857  38.5261 Br             1 <1>                0.0000
      6 C6          30.8384  36.4386  37.0581 C.ar           1 <1>                0.0000
      7 C7          30.9114  37.4298  36.0943 C.ar           1 <1>                0.0000
      8 F8          29.8954  38.3087  35.9508 F              1 <1>                0.0000
      9 C9          32.0301  37.5239  35.2800 C.ar           1 <1>                0.0000
     10 O10         32.1037  38.4974  34.3320 O.co2          1 <1>               -1.0000
     11 H11         33.8024  34.9170  36.5143 H              1 <1>                0.0000
     12 H12         29.9686  36.3688  37.6946 H              1 <1>                0.0000
     13 H13         34.9293  36.0679  34.7104 H              1 <1>                0.0000
     14 H14         34.2545  37.3911  33.9252 H              1 <1>                0.0000
@<TRIPOS>BOND
    1    1    2 1     
    2    1   13 1     
    3    1   14 1     
    4    2    3 ar    
    5    2    9 ar    
    6    3    4 ar    
    7    3   11 1     
    8    4    5 1     
    9    4    6 ar    
   10    6    7 ar    
   11    6   12 1     
   12    7    8 1     
   13    7    9 ar    
   14    9   10 ar    
@<TRIPOS>SUBSTRUCTURE
      1 ****           1
@<TRIPOS>SET
DONOR_HYDROGENS      STATIC     ATOMS    <user>   **** ""
2 13 14
ATOM$RED        STATIC     ATOMS    COLORGROUP SYSTEM
2 13 14
@<TRIPOS>COMMENT
> <Gold.Version>
2022.2.0

> <Gold.Id.Protein>
1qkm|1qkm_protein|mol2

> <Gold.Protein.RotatedTorsions>
[  496  491  490  487 ] final   61.23 input  -89.99 | X-H torsion

> <Gold.Protein.ActiveResidues>
 MET295  LEU298  THR299  LEU301  ALA302  GLU305  TRP335  MET336  LEU339  MET340 
 GLY342  LEU343  ARG346  PHE356  ILE373  ILE376  PHE377  LEU380  LYS471  GLY472 
 MET473  HIS475  LEU476  LEU477  ASN478  MET479  VAL484  VAL487 

> <Gold.Protein.RotatedAtoms>
   36.5617   33.3036   42.2953 H   0  0  0  0  0  0  0  0  0  0  0  0  # atno 496  bound_to 491 

> <Gold.Score>
     Score     S(PLP)   S(hbond)     S(cho)   S(metal)  DE(clash)   DE(tors)     intcor
     33.42     -30.64       0.93       0.00       0.00       0.00       0.00       0.00

> <Gold.PLP.Fitness>
33.4228

> <Gold.PLP.PLP>
-30.6388

> <Gold.PLP.part.hbond>
-1.0000

> <Gold.PLP.part.metal>
0.0000

> <Gold.PLP.part.buried>
-2.5230

> <Gold.PLP.part.nonpolar>
-27.0842

> <Gold.PLP.part.repulsive>
0.2089

> <Gold.PLP.ligand.clash>
0.0000

> <Gold.PLP.ligand.torsion>
0.0000

> <Gold.PLP.Chemscore.Hbond>
0.9280

> <Gold.PLP.Chemscore.CHOScore>
0.0000

> <Gold.PLP.Chemscore.Metal>
0.0000

> <Gold.Chemscore.Hbonds>
donor molecule, donor type, donor heavy atom, donor atom, acceptor molecule, acceptor atom, score
      L1  H     1    14       P1  3229  0.93

> <Gold.PLP.Chemscore.Internal.Correction>
0.0000

