#       Name:                EN300-321602_i001
#       Creating user name   aseyller
#       Creation time:       Fri Apr 21 16:46:08 2023


#       File generated by GOLD software.
#

@<TRIPOS>MOLECULE
EN300-321602_i001|aminophenols|mol2|116|dock9
    14    14     1
SMALL
USER_CHARGES


@<TRIPOS>ATOM
      1 N1          31.7077  34.6455  39.3945 N.pl3          1 <1>                0.0000
      2 C2          31.5174  35.6121  38.4003 C.ar           1 <1>                0.0000
      3 C3          32.3786  35.6707  37.3135 C.ar           1 <1>                0.0000
      4 C4          32.1894  36.6260  36.3320 C.ar           1 <1>                0.0000
      5 Br5         33.3641  36.7037  34.8522 Br             1 <1>                0.0000
      6 C6          31.1423  37.5251  36.4299 C.ar           1 <1>                0.0000
      7 C7          30.2794  37.4724  37.5113 C.ar           1 <1>                0.0000
      8 F8          29.2580  38.3516  37.6041 F              1 <1>                0.0000
      9 C9          30.4605  36.5131  38.4965 C.ar           1 <1>                0.0000
     10 O10         29.6136  36.4597  39.5603 O.co2          1 <1>               -1.0000
     11 H11         33.1967  34.9701  37.2345 H              1 <1>                0.0000
     12 H12         30.9979  38.2698  35.6611 H              1 <1>                0.0000
     13 H13         32.4421  34.0156  39.3245 H              1 <1>                0.0000
     14 H14         31.1076  34.6081  40.1557 H              1 <1>                0.0000
@<TRIPOS>BOND
    1    1    2 1     
    2    1   13 1     
    3    1   14 1     
    4    2    3 ar    
    5    2    9 ar    
    6    3    4 ar    
    7    3   11 1     
    8    4    5 1     
    9    4    6 ar    
   10    6    7 ar    
   11    6   12 1     
   12    7    8 1     
   13    7    9 ar    
   14    9   10 ar    
@<TRIPOS>SUBSTRUCTURE
      1 ****           1
@<TRIPOS>SET
DONOR_HYDROGENS      STATIC     ATOMS    <user>   **** ""
2 13 14
ATOM$RED        STATIC     ATOMS    COLORGROUP SYSTEM
2 13 14
@<TRIPOS>COMMENT
> <Gold.Version>
2022.2.0

> <Gold.Id.Protein>
1qkm|1qkm_protein|mol2

> <Gold.Protein.RotatedTorsions>
[  496  491  490  487 ] final   89.69 input  -89.99 | X-H torsion

> <Gold.Protein.ActiveResidues>
 MET295  LEU298  THR299  LEU301  ALA302  GLU305  TRP335  MET336  LEU339  MET340 
 GLY342  LEU343  ARG346  PHE356  ILE373  ILE376  PHE377  LEU380  LYS471  GLY472 
 MET473  HIS475  LEU476  LEU477  ASN478  MET479  VAL484  VAL487 

> <Gold.Protein.RotatedAtoms>
   36.8174   33.0240   42.0279 H   0  0  0  0  0  0  0  0  0  0  0  0  # atno 496  bound_to 491 

> <Gold.Score>
     Score     S(PLP)   S(hbond)     S(cho)   S(metal)  DE(clash)   DE(tors)     intcor
     32.06     -31.11       0.32       0.00       0.00       0.00       0.00       0.00

> <Gold.PLP.Fitness>
32.0626

> <Gold.PLP.PLP>
-31.1078

> <Gold.PLP.part.hbond>
-1.0000

> <Gold.PLP.part.metal>
0.0000

> <Gold.PLP.part.buried>
-0.7361

> <Gold.PLP.part.nonpolar>
-29.1440

> <Gold.PLP.part.repulsive>
0.1822

> <Gold.PLP.ligand.clash>
0.0000

> <Gold.PLP.ligand.torsion>
0.0000

> <Gold.PLP.Chemscore.Hbond>
0.3182

> <Gold.PLP.Chemscore.CHOScore>
0.0000

> <Gold.PLP.Chemscore.Metal>
0.0000

> <Gold.Chemscore.Hbonds>
donor molecule, donor type, donor heavy atom, donor atom, acceptor molecule, acceptor atom, score
      L1  H     1    14       P1   470  0.32

> <Gold.PLP.Chemscore.Internal.Correction>
0.0000

