#       Name:                EN300-321602_i001
#       Creating user name   aseyller
#       Creation time:       Fri Apr 21 16:46:09 2023


#       File generated by GOLD software.
#

@<TRIPOS>MOLECULE
EN300-321602_i001|aminophenols|mol2|116|dock16
    14    14     1
SMALL
USER_CHARGES


@<TRIPOS>ATOM
      1 N1          29.6408  35.8084  40.6474 N.pl3          1 <1>                0.0000
      2 C2          29.2926  36.5790  39.5320 C.ar           1 <1>                0.0000
      3 C3          30.2804  37.0653  38.6871 C.ar           1 <1>                0.0000
      4 C4          29.9350  37.8263  37.5855 C.ar           1 <1>                0.0000
      5 Br5         31.2828  38.4878  36.4357 Br             1 <1>                0.0000
      6 C6          28.6056  38.1047  37.3223 C.ar           1 <1>                0.0000
      7 C7          27.6151  37.6227  38.1610 C.ar           1 <1>                0.0000
      8 F8          26.3178  37.8963  37.9013 F              1 <1>                0.0000
      9 C9          27.9545  36.8543  39.2646 C.ar           1 <1>                0.0000
     10 O10         26.9823  36.3798  40.0902 O.co2          1 <1>               -1.0000
     11 H11         31.3189  36.8495  38.8901 H              1 <1>                0.0000
     12 H12         28.3399  38.6995  36.4608 H              1 <1>                0.0000
     13 H13         30.5733  35.6138  40.8305 H              1 <1>                0.0000
     14 H14         28.9499  35.4724  41.2395 H              1 <1>                0.0000
@<TRIPOS>BOND
    1    1    2 1     
    2    1   13 1     
    3    1   14 1     
    4    2    3 ar    
    5    2    9 ar    
    6    3    4 ar    
    7    3   11 1     
    8    4    5 1     
    9    4    6 ar    
   10    6    7 ar    
   11    6   12 1     
   12    7    8 1     
   13    7    9 ar    
   14    9   10 ar    
@<TRIPOS>SUBSTRUCTURE
      1 ****           1
@<TRIPOS>SET
DONOR_HYDROGENS      STATIC     ATOMS    <user>   **** ""
2 13 14
ATOM$RED        STATIC     ATOMS    COLORGROUP SYSTEM
2 13 14
@<TRIPOS>COMMENT
> <Gold.Version>
2022.2.0

> <Gold.Id.Protein>
1qkm|1qkm_protein|mol2

> <Gold.Protein.RotatedTorsions>
[  496  491  490  487 ] final  -55.89 input  -89.99 | X-H torsion

> <Gold.Protein.ActiveResidues>
 MET295  LEU298  THR299  LEU301  ALA302  GLU305  TRP335  MET336  LEU339  MET340 
 GLY342  LEU343  ARG346  PHE356  ILE373  ILE376  PHE377  LEU380  LYS471  GLY472 
 MET473  HIS475  LEU476  LEU477  ASN478  MET479  VAL484  VAL487 

> <Gold.Protein.RotatedAtoms>
   36.4661   34.7238   41.5442 H   0  0  0  0  0  0  0  0  0  0  0  0  # atno 496  bound_to 491 

> <Gold.Score>
     Score     S(PLP)   S(hbond)     S(cho)   S(metal)  DE(clash)   DE(tors)     intcor
     31.44     -28.61       0.94       0.00       0.00       0.00       0.00       0.00

> <Gold.PLP.Fitness>
31.4438

> <Gold.PLP.PLP>
-28.6118

> <Gold.PLP.part.hbond>
-1.0000

> <Gold.PLP.part.metal>
0.0000

> <Gold.PLP.part.buried>
-2.6038

> <Gold.PLP.part.nonpolar>
-25.0573

> <Gold.PLP.part.repulsive>
0.1418

> <Gold.PLP.ligand.clash>
0.0000

> <Gold.PLP.ligand.torsion>
0.0000

> <Gold.PLP.Chemscore.Hbond>
0.9440

> <Gold.PLP.Chemscore.CHOScore>
0.0000

> <Gold.PLP.Chemscore.Metal>
0.0000

> <Gold.Chemscore.Hbonds>
donor molecule, donor type, donor heavy atom, donor atom, acceptor molecule, acceptor atom, score
      L1  H     1    13       P1   470  0.94

> <Gold.PLP.Chemscore.Internal.Correction>
0.0000

