#       Name:                EN300-321602_i001
#       Creating user name   aseyller
#       Creation time:       Fri Apr 21 16:46:06 2023


#       File generated by GOLD software.
#

@<TRIPOS>MOLECULE
EN300-321602_i001
    14    14     1
SMALL
USER_CHARGES


@<TRIPOS>ATOM
      1 N1          -1.1444   2.0255  -0.0009 N.pl3          1 <1>                0.0000
      2 C2          -0.4645   0.8021  -0.0008 C.ar           1 <1>                0.0000
      3 C3           0.9232   0.7778  -0.0001 C.ar           1 <1>                0.0000
      4 C4           1.5936  -0.4315   0.0001 C.ar           1 <1>                0.0000
      5 Br5          3.4844  -0.4619   0.0011 Br             1 <1>                0.0000
      6 C6           0.8843  -1.6194  -0.0001 C.ar           1 <1>                0.0000
      7 C7          -0.5001  -1.6025  -0.0008 C.ar           1 <1>                0.0000
      8 F8          -1.1899  -2.7641  -0.0010 F              1 <1>                0.0000
      9 C9          -1.1786  -0.3929   0.0044 C.ar           1 <1>                0.0000
     10 O10         -2.5393  -0.3742   0.0036 O.co2          1 <1>               -1.0000
     11 H11          1.4794   1.7035   0.0001 H              1 <1>                0.0000
     12 H12          1.4117  -2.5619   0.0001 H              1 <1>                0.0000
     13 H13         -0.6458   2.8576  -0.0005 H              1 <1>                0.0000
     14 H14         -2.1143   2.0413  -0.0055 H              1 <1>                0.0000
@<TRIPOS>BOND
    1    1    2 1     
    2    1   13 1     
    3    1   14 1     
    4    2    3 ar    
    5    2    9 ar    
    6    3    4 ar    
    7    3   11 1     
    8    4    5 1     
    9    4    6 ar    
   10    6    7 ar    
   11    6   12 1     
   12    7    8 1     
   13    7    9 ar    
   14    9   10 ar    
@<TRIPOS>SUBSTRUCTURE
      1 ****           1
@<TRIPOS>SET
DONOR_HYDROGENS      STATIC     ATOMS    <user>   **** ""
2 13 14
ATOM$RED        STATIC     ATOMS    COLORGROUP SYSTEM
2 13 14
