#       Name:                EN300-321602_i001
#       Creating user name   aseyller
#       Creation time:       Fri Apr 21 16:46:09 2023


#       File generated by GOLD software.
#

@<TRIPOS>MOLECULE
EN300-321602_i001|aminophenols|mol2|116|dock17
    14    14     1
SMALL
USER_CHARGES


@<TRIPOS>ATOM
      1 N1          32.4547  35.8901  37.5710 N.pl3          1 <1>                0.0000
      2 C2          31.2057  36.3705  37.9812 C.ar           1 <1>                0.0000
      3 C3          30.5811  35.8230  39.0931 C.ar           1 <1>                0.0000
      4 C4          29.3473  36.2987  39.4973 C.ar           1 <1>                0.0000
      5 Br5         28.4984  35.5511  41.0128 Br             1 <1>                0.0000
      6 C6          28.7325  37.3204  38.7958 C.ar           1 <1>                0.0000
      7 C7          29.3499  37.8711  37.6857 C.ar           1 <1>                0.0000
      8 F8          28.7470  38.8687  37.0027 F              1 <1>                0.0000
      9 C9          30.5899  37.4022  37.2781 C.ar           1 <1>                0.0000
     10 O10         31.1982  37.9421  36.1872 O.co2          1 <1>               -1.0000
     11 H11         31.0588  35.0254  39.6426 H              1 <1>                0.0000
     12 H12         27.7688  37.6892  39.1148 H              1 <1>                0.0000
     13 H13         32.8847  35.1738  38.0639 H              1 <1>                0.0000
     14 H14         32.8884  36.2706  36.7912 H              1 <1>                0.0000
@<TRIPOS>BOND
    1    1    2 1     
    2    1   13 1     
    3    1   14 1     
    4    2    3 ar    
    5    2    9 ar    
    6    3    4 ar    
    7    3   11 1     
    8    4    5 1     
    9    4    6 ar    
   10    6    7 ar    
   11    6   12 1     
   12    7    8 1     
   13    7    9 ar    
   14    9   10 ar    
@<TRIPOS>SUBSTRUCTURE
      1 ****           1
@<TRIPOS>SET
DONOR_HYDROGENS      STATIC     ATOMS    <user>   **** ""
2 13 14
ATOM$RED        STATIC     ATOMS    COLORGROUP SYSTEM
2 13 14
@<TRIPOS>COMMENT
> <Gold.Version>
2022.2.0

> <Gold.Id.Protein>
1qkm|1qkm_protein|mol2

> <Gold.Protein.RotatedTorsions>
[  496  491  490  487 ] final   55.38 input  -89.99 | X-H torsion

> <Gold.Protein.ActiveResidues>
 MET295  LEU298  THR299  LEU301  ALA302  GLU305  TRP335  MET336  LEU339  MET340 
 GLY342  LEU343  ARG346  PHE356  ILE373  ILE376  PHE377  LEU380  LYS471  GLY472 
 MET473  HIS475  LEU476  LEU477  ASN478  MET479  VAL484  VAL487 

> <Gold.Protein.RotatedAtoms>
   36.5141   33.3800   42.3294 H   0  0  0  0  0  0  0  0  0  0  0  0  # atno 496  bound_to 491 

> <Gold.Score>
     Score     S(PLP)   S(hbond)     S(cho)   S(metal)  DE(clash)   DE(tors)     intcor
     30.87     -30.87       0.00       0.00       0.00       0.00       0.00       0.00

> <Gold.PLP.Fitness>
30.8713

> <Gold.PLP.PLP>
-30.8713

> <Gold.PLP.part.hbond>
0.0000

> <Gold.PLP.part.metal>
0.0000

> <Gold.PLP.part.buried>
-2.2613

> <Gold.PLP.part.nonpolar>
-28.9066

> <Gold.PLP.part.repulsive>
0.0257

> <Gold.PLP.ligand.clash>
0.0000

> <Gold.PLP.ligand.torsion>
0.0000

> <Gold.PLP.Chemscore.Hbond>
0.0000

> <Gold.PLP.Chemscore.CHOScore>
0.0000

> <Gold.PLP.Chemscore.Metal>
0.0000

> <Gold.PLP.Chemscore.Internal.Correction>
0.0000

