#       Name:                EN300-321602_i001
#       Creating user name   aseyller
#       Creation time:       Fri Apr 21 16:46:09 2023


#       File generated by GOLD software.
#

@<TRIPOS>MOLECULE
EN300-321602_i001|aminophenols|mol2|116|dock15
    14    14     1
SMALL
USER_CHARGES


@<TRIPOS>ATOM
      1 N1          32.9066  36.6912  34.4850 N.pl3          1 <1>                0.0000
      2 C2          32.2634  36.4656  35.7074 C.ar           1 <1>                0.0000
      3 C3          32.4478  35.2651  36.3790 C.ar           1 <1>                0.0000
      4 C4          31.8118  35.0436  37.5866 C.ar           1 <1>                0.0000
      5 Br5         32.0648  33.4070  38.4997 Br             1 <1>                0.0000
      6 C6          30.9910  36.0166  38.1287 C.ar           1 <1>                0.0000
      7 C7          30.8026  37.2164  37.4641 C.ar           1 <1>                0.0000
      8 F8          30.0005  38.1646  37.9959 F              1 <1>                0.0000
      9 C9          31.4418  37.4470  36.2551 C.ar           1 <1>                0.0000
     10 O10         31.2578  38.6257  35.6003 O.co2          1 <1>               -1.0000
     11 H11         33.0879  34.5039  35.9583 H              1 <1>                0.0000
     12 H12         30.4961  35.8396  39.0722 H              1 <1>                0.0000
     13 H13         33.4820  36.0083  34.1063 H              1 <1>                0.0000
     14 H14         32.7737  37.5291  34.0145 H              1 <1>                0.0000
@<TRIPOS>BOND
    1    1    2 1     
    2    1   13 1     
    3    1   14 1     
    4    2    3 ar    
    5    2    9 ar    
    6    3    4 ar    
    7    3   11 1     
    8    4    5 1     
    9    4    6 ar    
   10    6    7 ar    
   11    6   12 1     
   12    7    8 1     
   13    7    9 ar    
   14    9   10 ar    
@<TRIPOS>SUBSTRUCTURE
      1 ****           1
@<TRIPOS>SET
DONOR_HYDROGENS      STATIC     ATOMS    <user>   **** ""
2 13 14
ATOM$RED        STATIC     ATOMS    COLORGROUP SYSTEM
2 13 14
@<TRIPOS>COMMENT
> <Gold.Version>
2022.2.0

> <Gold.Id.Protein>
1qkm|1qkm_protein|mol2

> <Gold.Protein.RotatedTorsions>
[  496  491  490  487 ] final -153.79 input  -89.99 | X-H torsion

> <Gold.Protein.ActiveResidues>
 MET295  LEU298  THR299  LEU301  ALA302  GLU305  TRP335  MET336  LEU339  MET340 
 GLY342  LEU343  ARG346  PHE356  ILE373  ILE376  PHE377  LEU380  LYS471  GLY472 
 MET473  HIS475  LEU476  LEU477  ASN478  MET479  VAL484  VAL487 

> <Gold.Protein.RotatedAtoms>
   37.2496   33.8605   40.7291 H   0  0  0  0  0  0  0  0  0  0  0  0  # atno 496  bound_to 491 

> <Gold.Score>
     Score     S(PLP)   S(hbond)     S(cho)   S(metal)  DE(clash)   DE(tors)     intcor
     31.48     -31.48       0.00       0.00       0.00       0.00       0.00       0.00

> <Gold.PLP.Fitness>
31.4838

> <Gold.PLP.PLP>
-31.4838

> <Gold.PLP.part.hbond>
-0.7617

> <Gold.PLP.part.metal>
0.0000

> <Gold.PLP.part.buried>
-3.1376

> <Gold.PLP.part.nonpolar>
-27.5753

> <Gold.PLP.part.repulsive>
0.0700

> <Gold.PLP.ligand.clash>
0.0000

> <Gold.PLP.ligand.torsion>
0.0000

> <Gold.PLP.Chemscore.Hbond>
0.0000

> <Gold.PLP.Chemscore.CHOScore>
0.0000

> <Gold.PLP.Chemscore.Metal>
0.0000

> <Gold.PLP.Chemscore.Internal.Correction>
0.0000

