#       Name:                EN300-321602_i001
#       Creating user name   aseyller
#       Creation time:       Fri Apr 21 16:46:07 2023


#       File generated by GOLD software.
#

@<TRIPOS>MOLECULE
EN300-321602_i001|aminophenols|mol2|116|dock5
    14    14     1
SMALL
USER_CHARGES


@<TRIPOS>ATOM
      1 N1          25.6980  36.3899  42.0944 N.pl3          1 <1>                0.0000
      2 C2          26.4722  36.6351  40.9545 C.ar           1 <1>                0.0000
      3 C3          25.9317  37.3337  39.8839 C.ar           1 <1>                0.0000
      4 C4          26.6978  37.5754  38.7585 C.ar           1 <1>                0.0000
      5 Br5         25.9590  38.5275  37.3011 Br             1 <1>                0.0000
      6 C6          28.0036  37.1226  38.6961 C.ar           1 <1>                0.0000
      7 C7          28.5491  36.4251  39.7605 C.ar           1 <1>                0.0000
      8 F8          29.8246  35.9842  39.6966 F              1 <1>                0.0000
      9 C9          27.7879  36.1840  40.8944 C.ar           1 <1>                0.0000
     10 O10         28.3222  35.4985  41.9415 O.co2          1 <1>               -1.0000
     11 H11         24.9127  37.6884  39.9299 H              1 <1>                0.0000
     12 H12         28.5987  37.3135  37.8153 H              1 <1>                0.0000
     13 H13         24.7827  36.7082  42.1368 H              1 <1>                0.0000
     14 H14         26.0755  35.8980  42.8404 H              1 <1>                0.0000
@<TRIPOS>BOND
    1    1    2 1     
    2    1   13 1     
    3    1   14 1     
    4    2    3 ar    
    5    2    9 ar    
    6    3    4 ar    
    7    3   11 1     
    8    4    5 1     
    9    4    6 ar    
   10    6    7 ar    
   11    6   12 1     
   12    7    8 1     
   13    7    9 ar    
   14    9   10 ar    
@<TRIPOS>SUBSTRUCTURE
      1 ****           1
@<TRIPOS>SET
DONOR_HYDROGENS      STATIC     ATOMS    <user>   **** ""
2 13 14
ATOM$RED        STATIC     ATOMS    COLORGROUP SYSTEM
2 13 14
@<TRIPOS>COMMENT
> <Gold.Version>
2022.2.0

> <Gold.Id.Protein>
1qkm|1qkm_protein|mol2

> <Gold.Protein.RotatedTorsions>
[  496  491  490  487 ] final   82.22 input  -89.99 | X-H torsion

> <Gold.Protein.ActiveResidues>
 MET295  LEU298  THR299  LEU301  ALA302  GLU305  TRP335  MET336  LEU339  MET340 
 GLY342  LEU343  ARG346  PHE356  ILE373  ILE376  PHE377  LEU380  LYS471  GLY472 
 MET473  HIS475  LEU476  LEU477  ASN478  MET479  VAL484  VAL487 

> <Gold.Protein.RotatedAtoms>
   36.7483   33.0804   42.1125 H   0  0  0  0  0  0  0  0  0  0  0  0  # atno 496  bound_to 491 

> <Gold.Score>
     Score     S(PLP)   S(hbond)     S(cho)   S(metal)  DE(clash)   DE(tors)     intcor
     33.35     -30.42       0.98       0.00       0.00       0.00       0.00       0.00

> <Gold.PLP.Fitness>
33.3498

> <Gold.PLP.PLP>
-30.4218

> <Gold.PLP.part.hbond>
-0.9511

> <Gold.PLP.part.metal>
0.0000

> <Gold.PLP.part.buried>
-3.8758

> <Gold.PLP.part.nonpolar>
-26.4276

> <Gold.PLP.part.repulsive>
0.9210

> <Gold.PLP.ligand.clash>
0.0000

> <Gold.PLP.ligand.torsion>
0.0000

> <Gold.PLP.Chemscore.Hbond>
0.9760

> <Gold.PLP.Chemscore.CHOScore>
0.0000

> <Gold.PLP.Chemscore.Metal>
0.0000

> <Gold.Chemscore.Hbonds>
donor molecule, donor type, donor heavy atom, donor atom, acceptor molecule, acceptor atom, score
      L1  H     1    14       P1   582  0.98

> <Gold.PLP.Chemscore.Internal.Correction>
0.0000

