#       Name:                EN300-321602_i001
#       Creating user name   aseyller
#       Creation time:       Fri Apr 21 16:46:08 2023


#       File generated by GOLD software.
#

@<TRIPOS>MOLECULE
EN300-321602_i001|aminophenols|mol2|116|dock10
    14    14     1
SMALL
USER_CHARGES


@<TRIPOS>ATOM
      1 N1          33.8735  36.9159  34.5989 N.pl3          1 <1>                0.0000
      2 C2          32.8591  37.2170  35.5150 C.ar           1 <1>                0.0000
      3 C3          32.1237  38.3862  35.3789 C.ar           1 <1>                0.0000
      4 C4          31.1217  38.6823  36.2846 C.ar           1 <1>                0.0000
      5 Br5         30.1212  40.2759  36.0969 Br             1 <1>                0.0000
      6 C6          30.8493  37.8152  37.3277 C.ar           1 <1>                0.0000
      7 C7          31.5790  36.6471  37.4695 C.ar           1 <1>                0.0000
      8 F8          31.3106  35.8025  38.4891 F              1 <1>                0.0000
      9 C9          32.5817  36.3416  36.5614 C.ar           1 <1>                0.0000
     10 O10         33.3001  35.1941  36.6991 O.co2          1 <1>               -1.0000
     11 H11         32.3342  39.0648  34.5656 H              1 <1>                0.0000
     12 H12         30.0658  38.0501  38.0331 H              1 <1>                0.0000
     13 H13         34.0632  37.5247  33.8678 H              1 <1>                0.0000
     14 H14         34.3896  36.1005  34.6974 H              1 <1>                0.0000
@<TRIPOS>BOND
    1    1    2 1     
    2    1   13 1     
    3    1   14 1     
    4    2    3 ar    
    5    2    9 ar    
    6    3    4 ar    
    7    3   11 1     
    8    4    5 1     
    9    4    6 ar    
   10    6    7 ar    
   11    6   12 1     
   12    7    8 1     
   13    7    9 ar    
   14    9   10 ar    
@<TRIPOS>SUBSTRUCTURE
      1 ****           1
@<TRIPOS>SET
DONOR_HYDROGENS      STATIC     ATOMS    <user>   **** ""
2 13 14
ATOM$RED        STATIC     ATOMS    COLORGROUP SYSTEM
2 13 14
@<TRIPOS>COMMENT
> <Gold.Version>
2022.2.0

> <Gold.Id.Protein>
1qkm|1qkm_protein|mol2

> <Gold.Protein.RotatedTorsions>
[  496  491  490  487 ] final  -80.64 input  -89.99 | X-H torsion

> <Gold.Protein.ActiveResidues>
 MET295  LEU298  THR299  LEU301  ALA302  GLU305  TRP335  MET336  LEU339  MET340 
 GLY342  LEU343  ARG346  PHE356  ILE373  ILE376  PHE377  LEU380  LYS471  GLY472 
 MET473  HIS475  LEU476  LEU477  ASN478  MET479  VAL484  VAL487 

> <Gold.Protein.RotatedAtoms>
   36.6717   34.7036   41.1968 H   0  0  0  0  0  0  0  0  0  0  0  0  # atno 496  bound_to 491 

> <Gold.Score>
     Score     S(PLP)   S(hbond)     S(cho)   S(metal)  DE(clash)   DE(tors)     intcor
     33.81     -30.88       0.98       0.00       0.00       0.00       0.00       0.00

> <Gold.PLP.Fitness>
33.8121

> <Gold.PLP.PLP>
-30.8841

> <Gold.PLP.part.hbond>
-1.0000

> <Gold.PLP.part.metal>
0.0000

> <Gold.PLP.part.buried>
-3.0033

> <Gold.PLP.part.nonpolar>
-26.7198

> <Gold.PLP.part.repulsive>
0.0829

> <Gold.PLP.ligand.clash>
0.0000

> <Gold.PLP.ligand.torsion>
0.0000

> <Gold.PLP.Chemscore.Hbond>
0.9760

> <Gold.PLP.Chemscore.CHOScore>
0.0000

> <Gold.PLP.Chemscore.Metal>
0.0000

> <Gold.Chemscore.Hbonds>
donor molecule, donor type, donor heavy atom, donor atom, acceptor molecule, acceptor atom, score
      L1  H     1    13       P1  3229  0.98

> <Gold.PLP.Chemscore.Internal.Correction>
0.0000

