#       Name:                EN300-321602_i001
#       Creating user name   aseyller
#       Creation time:       Fri Apr 21 16:46:08 2023


#       File generated by GOLD software.
#

@<TRIPOS>MOLECULE
EN300-321602_i001|aminophenols|mol2|116|dock13
    14    14     1
SMALL
USER_CHARGES


@<TRIPOS>ATOM
      1 N1          30.5989  35.6551  39.4018 N.pl3          1 <1>                0.0000
      2 C2          30.8202  36.4263  38.2549 C.ar           1 <1>                0.0000
      3 C3          30.1317  37.6179  38.0748 C.ar           1 <1>                0.0000
      4 C4          30.3514  38.3788  36.9414 C.ar           1 <1>                0.0000
      5 Br5         29.4121  40.0020  36.6984 Br             1 <1>                0.0000
      6 C6          31.2570  37.9557  35.9849 C.ar           1 <1>                0.0000
      7 C7          31.9472  36.7681  36.1582 C.ar           1 <1>                0.0000
      8 F8          32.8309  36.3575  35.2224 F              1 <1>                0.0000
      9 C9          31.7355  36.0028  37.2953 C.ar           1 <1>                0.0000
     10 O10         32.4129  34.8351  37.4674 O.co2          1 <1>               -1.0000
     11 H11         29.4243  37.9506  38.8198 H              1 <1>                0.0000
     12 H12         31.4258  38.5530  35.1010 H              1 <1>                0.0000
     13 H13         29.9639  35.9531  40.0717 H              1 <1>                0.0000
     14 H14         31.0777  34.8204  39.5247 H              1 <1>                0.0000
@<TRIPOS>BOND
    1    1    2 1     
    2    1   13 1     
    3    1   14 1     
    4    2    3 ar    
    5    2    9 ar    
    6    3    4 ar    
    7    3   11 1     
    8    4    5 1     
    9    4    6 ar    
   10    6    7 ar    
   11    6   12 1     
   12    7    8 1     
   13    7    9 ar    
   14    9   10 ar    
@<TRIPOS>SUBSTRUCTURE
      1 ****           1
@<TRIPOS>SET
DONOR_HYDROGENS      STATIC     ATOMS    <user>   **** ""
2 13 14
ATOM$RED        STATIC     ATOMS    COLORGROUP SYSTEM
2 13 14
@<TRIPOS>COMMENT
> <Gold.Version>
2022.2.0

> <Gold.Id.Protein>
1qkm|1qkm_protein|mol2

> <Gold.Protein.RotatedTorsions>
[  496  491  490  487 ] final -136.56 input  -89.99 | X-H torsion

> <Gold.Protein.ActiveResidues>
 MET295  LEU298  THR299  LEU301  ALA302  GLU305  TRP335  MET336  LEU339  MET340 
 GLY342  LEU343  ARG346  PHE356  ILE373  ILE376  PHE377  LEU380  LYS471  GLY472 
 MET473  HIS475  LEU476  LEU477  ASN478  MET479  VAL484  VAL487 

> <Gold.Protein.RotatedAtoms>
   37.1513   34.1255   40.7300 H   0  0  0  0  0  0  0  0  0  0  0  0  # atno 496  bound_to 491 

> <Gold.Score>
     Score     S(PLP)   S(hbond)     S(cho)   S(metal)  DE(clash)   DE(tors)     intcor
     31.07     -31.07       0.00       0.00       0.00       0.00       0.00       0.00

> <Gold.PLP.Fitness>
31.0725

> <Gold.PLP.PLP>
-31.0725

> <Gold.PLP.part.hbond>
-1.0000

> <Gold.PLP.part.metal>
0.0000

> <Gold.PLP.part.buried>
-2.7844

> <Gold.PLP.part.nonpolar>
-27.6153

> <Gold.PLP.part.repulsive>
0.0673

> <Gold.PLP.ligand.clash>
0.0000

> <Gold.PLP.ligand.torsion>
0.0000

> <Gold.PLP.Chemscore.Hbond>
0.0000

> <Gold.PLP.Chemscore.CHOScore>
0.0000

> <Gold.PLP.Chemscore.Metal>
0.0000

> <Gold.PLP.Chemscore.Internal.Correction>
0.0000

