#       Name:                EN300-321602_i001
#       Creating user name   aseyller
#       Creation time:       Fri Apr 21 16:46:08 2023


#       File generated by GOLD software.
#

@<TRIPOS>MOLECULE
EN300-321602_i001|aminophenols|mol2|116|dock8
    14    14     1
SMALL
USER_CHARGES


@<TRIPOS>ATOM
      1 N1          32.7786  38.2681  34.0057 N.pl3          1 <1>                0.0000
      2 C2          32.0856  37.7984  35.1273 C.ar           1 <1>                0.0000
      3 C3          30.8952  38.3998  35.5113 C.ar           1 <1>                0.0000
      4 C4          30.2115  37.9348  36.6196 C.ar           1 <1>                0.0000
      5 Br5         28.5897  38.7559  37.1407 Br             1 <1>                0.0000
      6 C6          30.7111  36.8698  37.3480 C.ar           1 <1>                0.0000
      7 C7          31.8980  36.2652  36.9705 C.ar           1 <1>                0.0000
      8 F8          32.3833  35.2256  37.6838 F              1 <1>                0.0000
      9 C9          32.5859  36.7235  35.8568 C.ar           1 <1>                0.0000
     10 O10         33.7528  36.1306  35.4843 O.co2          1 <1>               -1.0000
     11 H11         30.5029  39.2312  34.9446 H              1 <1>                0.0000
     12 H12         30.1741  36.5095  38.2130 H              1 <1>                0.0000
     13 H13         32.4270  39.0147  33.4957 H              1 <1>                0.0000
     14 H14         33.6126  37.8497  33.7406 H              1 <1>                0.0000
@<TRIPOS>BOND
    1    1    2 1     
    2    1   13 1     
    3    1   14 1     
    4    2    3 ar    
    5    2    9 ar    
    6    3    4 ar    
    7    3   11 1     
    8    4    5 1     
    9    4    6 ar    
   10    6    7 ar    
   11    6   12 1     
   12    7    8 1     
   13    7    9 ar    
   14    9   10 ar    
@<TRIPOS>SUBSTRUCTURE
      1 ****           1
@<TRIPOS>SET
DONOR_HYDROGENS      STATIC     ATOMS    <user>   **** ""
2 13 14
ATOM$RED        STATIC     ATOMS    COLORGROUP SYSTEM
2 13 14
@<TRIPOS>COMMENT
> <Gold.Version>
2022.2.0

> <Gold.Id.Protein>
1qkm|1qkm_protein|mol2

> <Gold.Protein.RotatedTorsions>
[  496  491  490  487 ] final  177.89 input  -89.99 | X-H torsion

> <Gold.Protein.ActiveResidues>
 MET295  LEU298  THR299  LEU301  ALA302  GLU305  TRP335  MET336  LEU339  MET340 
 GLY342  LEU343  ARG346  PHE356  ILE373  ILE376  PHE377  LEU380  LYS471  GLY472 
 MET473  HIS475  LEU476  LEU477  ASN478  MET479  VAL484  VAL487 

> <Gold.Protein.RotatedAtoms>
   37.3187   33.4318   40.8853 H   0  0  0  0  0  0  0  0  0  0  0  0  # atno 496  bound_to 491 

> <Gold.Score>
     Score     S(PLP)   S(hbond)     S(cho)   S(metal)  DE(clash)   DE(tors)     intcor
     30.62     -29.11       0.50       0.00       0.00       0.00       0.00       0.00

> <Gold.PLP.Fitness>
30.6195

> <Gold.PLP.PLP>
-29.1102

> <Gold.PLP.part.hbond>
-1.0000

> <Gold.PLP.part.metal>
0.0000

> <Gold.PLP.part.buried>
-2.7067

> <Gold.PLP.part.nonpolar>
-26.1883

> <Gold.PLP.part.repulsive>
0.1524

> <Gold.PLP.ligand.clash>
0.0000

> <Gold.PLP.ligand.torsion>
0.0000

> <Gold.PLP.Chemscore.Hbond>
0.5031

> <Gold.PLP.Chemscore.CHOScore>
0.0000

> <Gold.PLP.Chemscore.Metal>
0.0000

> <Gold.Chemscore.Hbonds>
donor molecule, donor type, donor heavy atom, donor atom, acceptor molecule, acceptor atom, score
      L1  H     1    14       P1  3229  0.50

> <Gold.PLP.Chemscore.Internal.Correction>
0.0000

