#       Name:                EN300-321602_i001
#       Creating user name   aseyller
#       Creation time:       Fri Apr 21 16:46:07 2023


#       File generated by GOLD software.
#

@<TRIPOS>MOLECULE
EN300-321602_i001|aminophenols|mol2|116|dock2
    14    14     1
SMALL
USER_CHARGES


@<TRIPOS>ATOM
      1 N1          32.2255  37.8426  36.7124 N.pl3          1 <1>                0.0000
      2 C2          31.6285  36.8621  37.5131 C.ar           1 <1>                0.0000
      3 C3          30.5885  37.2006  38.3676 C.ar           1 <1>                0.0000
      4 C4          29.9995  36.2310  39.1580 C.ar           1 <1>                0.0000
      5 Br5         28.5826  36.6947  40.3213 Br             1 <1>                0.0000
      6 C6          30.4442  34.9221  39.0996 C.ar           1 <1>                0.0000
      7 C7          31.4812  34.5775  38.2495 C.ar           1 <1>                0.0000
      8 F8          31.9132  33.2986  38.1947 F              1 <1>                0.0000
      9 C9          32.0727  35.5443  37.4501 C.ar           1 <1>                0.0000
     10 O10         33.0922  35.2075  36.6140 O.co2          1 <1>               -1.0000
     11 H11         30.2393  38.2214  38.4152 H              1 <1>                0.0000
     12 H12         29.9815  34.1677  39.7186 H              1 <1>                0.0000
     13 H13         31.9125  38.7598  36.7541 H              1 <1>                0.0000
     14 H14         32.9550  37.6057  36.1185 H              1 <1>                0.0000
@<TRIPOS>BOND
    1    1    2 1     
    2    1   13 1     
    3    1   14 1     
    4    2    3 ar    
    5    2    9 ar    
    6    3    4 ar    
    7    3   11 1     
    8    4    5 1     
    9    4    6 ar    
   10    6    7 ar    
   11    6   12 1     
   12    7    8 1     
   13    7    9 ar    
   14    9   10 ar    
@<TRIPOS>SUBSTRUCTURE
      1 ****           1
@<TRIPOS>SET
DONOR_HYDROGENS      STATIC     ATOMS    <user>   **** ""
2 13 14
ATOM$RED        STATIC     ATOMS    COLORGROUP SYSTEM
2 13 14
@<TRIPOS>COMMENT
> <Gold.Version>
2022.2.0

> <Gold.Id.Protein>
1qkm|1qkm_protein|mol2

> <Gold.Protein.RotatedTorsions>
[  496  491  490  487 ] final   -4.15 input  -89.99 | X-H torsion

> <Gold.Protein.ActiveResidues>
 MET295  LEU298  THR299  LEU301  ALA302  GLU305  TRP335  MET336  LEU339  MET340 
 GLY342  LEU343  ARG346  PHE356  ILE373  ILE376  PHE377  LEU380  LYS471  GLY472 
 MET473  HIS475  LEU476  LEU477  ASN478  MET479  VAL484  VAL487 

> <Gold.Protein.RotatedAtoms>
   36.2588   34.2717   42.2000 H   0  0  0  0  0  0  0  0  0  0  0  0  # atno 496  bound_to 491 

> <Gold.Score>
     Score     S(PLP)   S(hbond)     S(cho)   S(metal)  DE(clash)   DE(tors)     intcor
     34.09     -34.09       0.00       0.00       0.00       0.00       0.00       0.00

> <Gold.PLP.Fitness>
34.0908

> <Gold.PLP.PLP>
-34.0908

> <Gold.PLP.part.hbond>
0.0000

> <Gold.PLP.part.metal>
0.0000

> <Gold.PLP.part.buried>
-2.5060

> <Gold.PLP.part.nonpolar>
-31.9298

> <Gold.PLP.part.repulsive>
0.0089

> <Gold.PLP.ligand.clash>
0.0000

> <Gold.PLP.ligand.torsion>
0.0000

> <Gold.PLP.Chemscore.Hbond>
0.0000

> <Gold.PLP.Chemscore.CHOScore>
0.0000

> <Gold.PLP.Chemscore.Metal>
0.0000

> <Gold.PLP.Chemscore.Internal.Correction>
0.0000

