#       Name:                EN300-321602_i001
#       Creating user name   aseyller
#       Creation time:       Fri Apr 21 16:46:08 2023


#       File generated by GOLD software.
#

@<TRIPOS>MOLECULE
EN300-321602_i001|aminophenols|mol2|116|dock12
    14    14     1
SMALL
USER_CHARGES


@<TRIPOS>ATOM
      1 N1          30.5859  38.4557  37.2253 N.pl3          1 <1>                0.0000
      2 C2          30.3023  37.3024  37.9660 C.ar           1 <1>                0.0000
      3 C3          29.1169  37.2097  38.6819 C.ar           1 <1>                0.0000
      4 C4          28.8380  36.0698  39.4131 C.ar           1 <1>                0.0000
      5 Br5         27.2221  35.9460  40.3876 Br             1 <1>                0.0000
      6 C6          29.7383  35.0195  39.4333 C.ar           1 <1>                0.0000
      7 C7          30.9227  35.1052  38.7215 C.ar           1 <1>                0.0000
      8 F8          31.7998  34.0779  38.7431 F              1 <1>                0.0000
      9 C9          31.2060  36.2436  37.9817 C.ar           1 <1>                0.0000
     10 O10         32.3697  36.3299  37.2815 O.co2          1 <1>               -1.0000
     11 H11         28.4123  38.0281  38.6679 H              1 <1>                0.0000
     12 H12         29.5167  34.1308  40.0056 H              1 <1>                0.0000
     13 H13         29.9536  39.1913  37.2119 H              1 <1>                0.0000
     14 H14         31.4165  38.5211  36.7287 H              1 <1>                0.0000
@<TRIPOS>BOND
    1    1    2 1     
    2    1   13 1     
    3    1   14 1     
    4    2    3 ar    
    5    2    9 ar    
    6    3    4 ar    
    7    3   11 1     
    8    4    5 1     
    9    4    6 ar    
   10    6    7 ar    
   11    6   12 1     
   12    7    8 1     
   13    7    9 ar    
   14    9   10 ar    
@<TRIPOS>SUBSTRUCTURE
      1 ****           1
@<TRIPOS>SET
DONOR_HYDROGENS      STATIC     ATOMS    <user>   **** ""
2 13 14
ATOM$RED        STATIC     ATOMS    COLORGROUP SYSTEM
2 13 14
@<TRIPOS>COMMENT
> <Gold.Version>
2022.2.0

> <Gold.Id.Protein>
1qkm|1qkm_protein|mol2

> <Gold.Protein.RotatedTorsions>
[  496  491  490  487 ] final   44.56 input  -89.99 | X-H torsion

> <Gold.Protein.ActiveResidues>
 MET295  LEU298  THR299  LEU301  ALA302  GLU305  TRP335  MET336  LEU339  MET340 
 GLY342  LEU343  ARG346  PHE356  ILE373  ILE376  PHE377  LEU380  LYS471  GLY472 
 MET473  HIS475  LEU476  LEU477  ASN478  MET479  VAL484  VAL487 

> <Gold.Protein.RotatedAtoms>
   36.4339   33.5332   42.3708 H   0  0  0  0  0  0  0  0  0  0  0  0  # atno 496  bound_to 491 

> <Gold.Score>
     Score     S(PLP)   S(hbond)     S(cho)   S(metal)  DE(clash)   DE(tors)     intcor
     31.42     -31.42       0.00       0.00       0.00       0.00       0.00       0.00

> <Gold.PLP.Fitness>
31.4154

> <Gold.PLP.PLP>
-31.4154

> <Gold.PLP.part.hbond>
0.0000

> <Gold.PLP.part.metal>
0.0000

> <Gold.PLP.part.buried>
-2.4208

> <Gold.PLP.part.nonpolar>
-29.2202

> <Gold.PLP.part.repulsive>
0.0000

> <Gold.PLP.ligand.clash>
0.0000

> <Gold.PLP.ligand.torsion>
0.0000

> <Gold.PLP.Chemscore.Hbond>
0.0000

> <Gold.PLP.Chemscore.CHOScore>
0.0000

> <Gold.PLP.Chemscore.Metal>
0.0000

> <Gold.PLP.Chemscore.Internal.Correction>
0.0000

