#       Name:                EN300-321602_i001
#       Creating user name   aseyller
#       Creation time:       Fri Apr 21 16:46:07 2023


#       File generated by GOLD software.
#

@<TRIPOS>MOLECULE
EN300-321602_i001|aminophenols|mol2|116|dock7
    14    14     1
SMALL
USER_CHARGES


@<TRIPOS>ATOM
      1 N1          27.8816  35.4388  42.2326 N.pl3          1 <1>                0.0000
      2 C2          28.2309  35.8849  40.9528 C.ar           1 <1>                0.0000
      3 C3          29.5016  35.6371  40.4528 C.ar           1 <1>                0.0000
      4 C4          29.8453  36.0783  39.1883 C.ar           1 <1>                0.0000
      5 Br5         31.5774  35.7394  38.5093 Br             1 <1>                0.0000
      6 C6          28.9248  36.7669  38.4184 C.ar           1 <1>                0.0000
      7 C7          27.6554  37.0176  38.9109 C.ar           1 <1>                0.0000
      8 F8          26.7588  37.6902  38.1568 F              1 <1>                0.0000
      9 C9          27.3026  36.5731  40.1764 C.ar           1 <1>                0.0000
     10 O10         26.0554  36.8185  40.6624 O.co2          1 <1>               -1.0000
     11 H11         30.2221  35.0998  41.0516 H              1 <1>                0.0000
     12 H12         29.1972  37.1099  37.4311 H              1 <1>                0.0000
     13 H13         28.5279  34.9559  42.7712 H              1 <1>                0.0000
     14 H14         26.9945  35.6161  42.5827 H              1 <1>                0.0000
@<TRIPOS>BOND
    1    1    2 1     
    2    1   13 1     
    3    1   14 1     
    4    2    3 ar    
    5    2    9 ar    
    6    3    4 ar    
    7    3   11 1     
    8    4    5 1     
    9    4    6 ar    
   10    6    7 ar    
   11    6   12 1     
   12    7    8 1     
   13    7    9 ar    
   14    9   10 ar    
@<TRIPOS>SUBSTRUCTURE
      1 ****           1
@<TRIPOS>SET
DONOR_HYDROGENS      STATIC     ATOMS    <user>   **** ""
2 13 14
ATOM$RED        STATIC     ATOMS    COLORGROUP SYSTEM
2 13 14
@<TRIPOS>COMMENT
> <Gold.Version>
2022.2.0

> <Gold.Id.Protein>
1qkm|1qkm_protein|mol2

> <Gold.Protein.RotatedTorsions>
[  496  491  490  487 ] final   27.55 input  -89.99 | X-H torsion

> <Gold.Protein.ActiveResidues>
 MET295  LEU298  THR299  LEU301  ALA302  GLU305  TRP335  MET336  LEU339  MET340 
 GLY342  LEU343  ARG346  PHE356  ILE373  ILE376  PHE377  LEU380  LYS471  GLY472 
 MET473  HIS475  LEU476  LEU477  ASN478  MET479  VAL484  VAL487 

> <Gold.Protein.RotatedAtoms>
   36.3343   33.7937   42.3770 H   0  0  0  0  0  0  0  0  0  0  0  0  # atno 496  bound_to 491 

> <Gold.Score>
     Score     S(PLP)   S(hbond)     S(cho)   S(metal)  DE(clash)   DE(tors)     intcor
     33.01     -31.48       0.51       0.00       0.00       0.00       0.00       0.00

> <Gold.PLP.Fitness>
33.0138

> <Gold.PLP.PLP>
-31.4778

> <Gold.PLP.part.hbond>
-1.0000

> <Gold.PLP.part.metal>
0.0000

> <Gold.PLP.part.buried>
-1.2266

> <Gold.PLP.part.nonpolar>
-30.5033

> <Gold.PLP.part.repulsive>
0.2075

> <Gold.PLP.ligand.clash>
0.0000

> <Gold.PLP.ligand.torsion>
0.0000

> <Gold.PLP.Chemscore.Hbond>
0.5120

> <Gold.PLP.Chemscore.CHOScore>
0.0000

> <Gold.PLP.Chemscore.Metal>
0.0000

> <Gold.Chemscore.Hbonds>
donor molecule, donor type, donor heavy atom, donor atom, acceptor molecule, acceptor atom, score
      L1  H     1    14       P1   582  0.51

> <Gold.PLP.Chemscore.Internal.Correction>
0.0000

