#       Name:                EN300-321602_i001
#       Creating user name   aseyller
#       Creation time:       Fri Apr 21 16:46:09 2023


#       File generated by GOLD software.
#

@<TRIPOS>MOLECULE
EN300-321602_i001|aminophenols|mol2|116|dock20
    14    14     1
SMALL
USER_CHARGES


@<TRIPOS>ATOM
      1 N1          29.8985  35.9488  40.2825 N.pl3          1 <1>                0.0000
      2 C2          30.2340  36.5325  39.0554 C.ar           1 <1>                0.0000
      3 C3          29.4923  37.5990  38.5668 C.ar           1 <1>                0.0000
      4 C4          29.8249  38.1747  37.3544 C.ar           1 <1>                0.0000
      5 Br5         28.8127  39.6278  36.6909 Br             1 <1>                0.0000
      6 C6          30.8967  37.6904  36.6258 C.ar           1 <1>                0.0000
      7 C7          31.6408  36.6268  37.1072 C.ar           1 <1>                0.0000
      8 F8          32.6868  36.1562  36.3934 F              1 <1>                0.0000
      9 C9          31.3158  36.0483  38.3251 C.ar           1 <1>                0.0000
     10 O10         32.0459  35.0028  38.8000 O.co2          1 <1>               -1.0000
     11 H11         28.6552  37.9791  39.1334 H              1 <1>                0.0000
     12 H12         31.1532  38.1429  35.6793 H              1 <1>                0.0000
     13 H13         29.1470  36.2896  40.7924 H              1 <1>                0.0000
     14 H14         30.4151  35.2008  40.6211 H              1 <1>                0.0000
@<TRIPOS>BOND
    1    1    2 1     
    2    1   13 1     
    3    1   14 1     
    4    2    3 ar    
    5    2    9 ar    
    6    3    4 ar    
    7    3   11 1     
    8    4    5 1     
    9    4    6 ar    
   10    6    7 ar    
   11    6   12 1     
   12    7    8 1     
   13    7    9 ar    
   14    9   10 ar    
@<TRIPOS>SUBSTRUCTURE
      1 ****           1
@<TRIPOS>SET
DONOR_HYDROGENS      STATIC     ATOMS    <user>   **** ""
2 13 14
ATOM$RED        STATIC     ATOMS    COLORGROUP SYSTEM
2 13 14
@<TRIPOS>COMMENT
> <Gold.Version>
2022.2.0

> <Gold.Id.Protein>
1qkm|1qkm_protein|mol2

> <Gold.Protein.RotatedTorsions>
[  496  491  490  487 ] final   48.89 input  -89.99 | X-H torsion

> <Gold.Protein.ActiveResidues>
 MET295  LEU298  THR299  LEU301  ALA302  GLU305  TRP335  MET336  LEU339  MET340 
 GLY342  LEU343  ARG346  PHE356  ILE373  ILE376  PHE377  LEU380  LYS471  GLY472 
 MET473  HIS475  LEU476  LEU477  ASN478  MET479  VAL484  VAL487 

> <Gold.Protein.RotatedAtoms>
   36.4647   33.4702   42.3576 H   0  0  0  0  0  0  0  0  0  0  0  0  # atno 496  bound_to 491 

> <Gold.Score>
     Score     S(PLP)   S(hbond)     S(cho)   S(metal)  DE(clash)   DE(tors)     intcor
     31.86     -29.99       0.62       0.00       0.00       0.00       0.00       0.00

> <Gold.PLP.Fitness>
31.8603

> <Gold.PLP.PLP>
-29.9883

> <Gold.PLP.part.hbond>
-1.0000

> <Gold.PLP.part.metal>
0.0000

> <Gold.PLP.part.buried>
-2.4960

> <Gold.PLP.part.nonpolar>
-26.7392

> <Gold.PLP.part.repulsive>
0.1578

> <Gold.PLP.ligand.clash>
0.0000

> <Gold.PLP.ligand.torsion>
0.0000

> <Gold.PLP.Chemscore.Hbond>
0.6240

> <Gold.PLP.Chemscore.CHOScore>
0.0000

> <Gold.PLP.Chemscore.Metal>
0.0000

> <Gold.Chemscore.Hbonds>
donor molecule, donor type, donor heavy atom, donor atom, acceptor molecule, acceptor atom, score
      L1  H     1    14       P1   470  0.62

> <Gold.PLP.Chemscore.Internal.Correction>
0.0000

