#       Name:                EN300-321602_i001
#       Creating user name   aseyller
#       Creation time:       Fri Apr 21 16:46:09 2023


#       File generated by GOLD software.
#

@<TRIPOS>MOLECULE
EN300-321602_i001|aminophenols|mol2|116|dock14
    14    14     1
SMALL
USER_CHARGES


@<TRIPOS>ATOM
      1 N1          30.0015  35.5784  40.0966 N.pl3          1 <1>                0.0000
      2 C2          30.1295  36.3527  38.9378 C.ar           1 <1>                0.0000
      3 C3          31.2917  36.2864  38.1820 C.ar           1 <1>                0.0000
      4 C4          31.4168  37.0519  37.0374 C.ar           1 <1>                0.0000
      5 Br5         33.0014  36.9597  36.0094 Br             1 <1>                0.0000
      6 C6          30.3853  37.8849  36.6421 C.ar           1 <1>                0.0000
      7 C7          29.2231  37.9559  37.3913 C.ar           1 <1>                0.0000
      8 F8          28.2176  38.7702  37.0028 F              1 <1>                0.0000
      9 C9          29.0892  37.1867  38.5375 C.ar           1 <1>                0.0000
     10 O10         27.9477  37.2552  39.2753 O.co2          1 <1>               -1.0000
     11 H11         32.0985  35.6370  38.4882 H              1 <1>                0.0000
     12 H12         30.4869  38.4811  35.7473 H              1 <1>                0.0000
     13 H13         30.7254  34.9946  40.3724 H              1 <1>                0.0000
     14 H14         29.1904  35.6286  40.6263 H              1 <1>                0.0000
@<TRIPOS>BOND
    1    1    2 1     
    2    1   13 1     
    3    1   14 1     
    4    2    3 ar    
    5    2    9 ar    
    6    3    4 ar    
    7    3   11 1     
    8    4    5 1     
    9    4    6 ar    
   10    6    7 ar    
   11    6   12 1     
   12    7    8 1     
   13    7    9 ar    
   14    9   10 ar    
@<TRIPOS>SUBSTRUCTURE
      1 ****           1
@<TRIPOS>SET
DONOR_HYDROGENS      STATIC     ATOMS    <user>   **** ""
2 13 14
ATOM$RED        STATIC     ATOMS    COLORGROUP SYSTEM
2 13 14
@<TRIPOS>COMMENT
> <Gold.Version>
2022.2.0

> <Gold.Id.Protein>
1qkm|1qkm_protein|mol2

> <Gold.Protein.RotatedTorsions>
[  496  491  490  487 ] final  -45.52 input  -89.99 | X-H torsion

> <Gold.Protein.ActiveResidues>
 MET295  LEU298  THR299  LEU301  ALA302  GLU305  TRP335  MET336  LEU339  MET340 
 GLY342  LEU343  ARG346  PHE356  ILE373  ILE376  PHE377  LEU380  LYS471  GLY472 
 MET473  HIS475  LEU476  LEU477  ASN478  MET479  VAL484  VAL487 

> <Gold.Protein.RotatedAtoms>
   36.3956   34.6831   41.6941 H   0  0  0  0  0  0  0  0  0  0  0  0  # atno 496  bound_to 491 

> <Gold.Score>
     Score     S(PLP)   S(hbond)     S(cho)   S(metal)  DE(clash)   DE(tors)     intcor
     29.54     -27.86       0.56       0.00       0.00       0.00       0.00       0.00

> <Gold.PLP.Fitness>
29.5397

> <Gold.PLP.PLP>
-27.8597

> <Gold.PLP.part.hbond>
-1.0000

> <Gold.PLP.part.metal>
0.0000

> <Gold.PLP.part.buried>
-0.1992

> <Gold.PLP.part.nonpolar>
-26.4766

> <Gold.PLP.part.repulsive>
0.0745

> <Gold.PLP.ligand.clash>
0.0000

> <Gold.PLP.ligand.torsion>
0.0000

> <Gold.PLP.Chemscore.Hbond>
0.5600

> <Gold.PLP.Chemscore.CHOScore>
0.0000

> <Gold.PLP.Chemscore.Metal>
0.0000

> <Gold.Chemscore.Hbonds>
donor molecule, donor type, donor heavy atom, donor atom, acceptor molecule, acceptor atom, score
      L1  H     1    13       P1   470  0.56

> <Gold.PLP.Chemscore.Internal.Correction>
0.0000

