#       Name:                EN300-21300_i001
#       Creating user name   aseyller
#       Creation time:       Fri Apr 21 18:49:37 2023


#       File generated by GOLD software.
#

@<TRIPOS>MOLECULE
EN300-21300_i001|benzaldehydes|mol2|640|dock5
    14    14     1
SMALL
USER_CHARGES


@<TRIPOS>ATOM
      1 F1          30.6002  37.0587  37.8225 F              1 <1>                0.0000
      2 C2          29.4266  37.0297  38.4912 C.ar           1 <1>                0.0000
      3 C3          28.2444  37.3217  37.8242 C.ar           1 <1>                0.0000
      4 C4          27.0444  37.2951  38.4974 C.ar           1 <1>                0.0000
      5 C5          27.0157  36.9718  39.8597 C.ar           1 <1>                0.0000
      6 C6          25.7389  36.9410  40.5842 C.2            1 <1>                0.0000
      7 O7          25.7275  36.9998  41.7956 O.2            1 <1>                0.0000
      8 C8          28.2125  36.6773  40.5282 C.ar           1 <1>                0.0000
      9 F9          28.1954  36.3638  41.8423 F              1 <1>                0.0000
     10 C10         29.4084  36.7032  39.8373 C.ar           1 <1>                0.0000
     11 H11         28.2667  37.5711  36.7736 H              1 <1>                0.0000
     12 H12         26.1264  37.5234  37.9762 H              1 <1>                0.0000
     13 H13         24.8100  36.8658  40.0383 H              1 <1>                0.0000
     14 H14         30.3317  36.4764  40.3496 H              1 <1>                0.0000
@<TRIPOS>BOND
    1    1    2 1     
    2    2    3 ar    
    3    2   10 ar    
    4    3    4 ar    
    5    3   11 1     
    6    4    5 ar    
    7    4   12 1     
    8    5    6 1     
    9    5    8 ar    
   10    6    7 2     
   11    6   13 1     
   12    8    9 1     
   13    8   10 ar    
   14   10   14 1     
@<TRIPOS>SUBSTRUCTURE
      1 ****           1
@<TRIPOS>COMMENT
> <Gold.Version>
2022.2.0

> <Gold.Id.Protein>
1qkm|1qkm_protein|mol2

> <Gold.Protein.RotatedTorsions>
[  496  491  490  487 ] final  154.42 input  -89.99 | X-H torsion

> <Gold.Protein.ActiveResidues>
 MET295  LEU298  THR299  LEU301  ALA302  GLU305  TRP335  MET336  LEU339  MET340 
 GLY342  LEU343  ARG346  PHE356  ILE373  ILE376  PHE377  LEU380  LYS471  GLY472 
 MET473  HIS475  LEU476  LEU477  ASN478  MET479  VAL484  VAL487 

> <Gold.Protein.RotatedAtoms>
   37.2796   33.1463   41.1385 H   0  0  0  0  0  0  0  0  0  0  0  0  # atno 496  bound_to 491 

> <Gold.Score>
     Score     S(PLP)   S(hbond)     S(cho)   S(metal)  DE(clash)   DE(tors)     intcor
     39.01     -39.16       0.00       0.00       0.00       0.00       0.08       0.00

> <Gold.PLP.Fitness>
39.0118

> <Gold.PLP.PLP>
-39.1645

> <Gold.PLP.part.hbond>
-0.9090

> <Gold.PLP.part.metal>
0.0000

> <Gold.PLP.part.buried>
-3.1436

> <Gold.PLP.part.nonpolar>
-35.5999

> <Gold.PLP.part.repulsive>
0.2413

> <Gold.PLP.ligand.clash>
0.0000

> <Gold.PLP.ligand.torsion>
0.0763

> <Gold.PLP.Chemscore.Hbond>
0.0000

> <Gold.PLP.Chemscore.CHOScore>
0.0000

> <Gold.PLP.Chemscore.Metal>
0.0000

> <Gold.PLP.Chemscore.Internal.Correction>
0.0000

