#       Name:                EN300-21300_i001
#       Creating user name   aseyller
#       Creation time:       Fri Apr 21 18:49:37 2023


#       File generated by GOLD software.
#

@<TRIPOS>MOLECULE
EN300-21300_i001|benzaldehydes|mol2|640|dock6
    14    14     1
SMALL
USER_CHARGES


@<TRIPOS>ATOM
      1 F1          31.8136  33.8419  38.6285 F              1 <1>                0.0000
      2 C2          31.7255  35.0315  37.9942 C.ar           1 <1>                0.0000
      3 C3          30.8933  36.0225  38.4974 C.ar           1 <1>                0.0000
      4 C4          30.7970  37.2371  37.8576 C.ar           1 <1>                0.0000
      5 C5          31.5414  37.4743  36.6953 C.ar           1 <1>                0.0000
      6 C6          31.4439  38.7681  36.0078 C.2            1 <1>                0.0000
      7 O7          30.6924  39.6227  36.4275 O.2            1 <1>                0.0000
      8 C8          32.3804  36.4703  36.1918 C.ar           1 <1>                0.0000
      9 F9          33.1030  36.6895  35.0714 F              1 <1>                0.0000
     10 C10         32.4702  35.2582  36.8483 C.ar           1 <1>                0.0000
     11 H11         30.3194  35.8393  39.3938 H              1 <1>                0.0000
     12 H12         30.1484  38.0058  38.2510 H              1 <1>                0.0000
     13 H13         32.0412  38.9587  35.1284 H              1 <1>                0.0000
     14 H14         33.1160  34.4831  36.4630 H              1 <1>                0.0000
@<TRIPOS>BOND
    1    1    2 1     
    2    2    3 ar    
    3    2   10 ar    
    4    3    4 ar    
    5    3   11 1     
    6    4    5 ar    
    7    4   12 1     
    8    5    6 1     
    9    5    8 ar    
   10    6    7 2     
   11    6   13 1     
   12    8    9 1     
   13    8   10 ar    
   14   10   14 1     
@<TRIPOS>SUBSTRUCTURE
      1 ****           1
@<TRIPOS>COMMENT
> <Gold.Version>
2022.2.0

> <Gold.Id.Protein>
1qkm|1qkm_protein|mol2

> <Gold.Protein.RotatedTorsions>
[  496  491  490  487 ] final  117.84 input  -89.99 | X-H torsion

> <Gold.Protein.ActiveResidues>
 MET295  LEU298  THR299  LEU301  ALA302  GLU305  TRP335  MET336  LEU339  MET340 
 GLY342  LEU343  ARG346  PHE356  ILE373  ILE376  PHE377  LEU380  LYS471  GLY472 
 MET473  HIS475  LEU476  LEU477  ASN478  MET479  VAL484  VAL487 

> <Gold.Protein.RotatedAtoms>
   37.0637   32.9408   41.6499 H   0  0  0  0  0  0  0  0  0  0  0  0  # atno 496  bound_to 491 

> <Gold.Score>
     Score     S(PLP)   S(hbond)     S(cho)   S(metal)  DE(clash)   DE(tors)     intcor
     35.68     -35.68       0.00       0.00       0.00       0.00       0.00       0.00

> <Gold.PLP.Fitness>
35.6806

> <Gold.PLP.PLP>
-35.6823

> <Gold.PLP.part.hbond>
0.0000

> <Gold.PLP.part.metal>
0.0000

> <Gold.PLP.part.buried>
-2.3915

> <Gold.PLP.part.nonpolar>
-33.4195

> <Gold.PLP.part.repulsive>
0.0000

> <Gold.PLP.ligand.clash>
0.0000

> <Gold.PLP.ligand.torsion>
0.0008

> <Gold.PLP.Chemscore.Hbond>
0.0000

> <Gold.PLP.Chemscore.CHOScore>
0.0000

> <Gold.PLP.Chemscore.Metal>
0.0000

> <Gold.PLP.Chemscore.Internal.Correction>
0.0000

