#       Name:                EN300-21300_i001
#       Creating user name   aseyller
#       Creation time:       Fri Apr 21 18:49:36 2023


#       File generated by GOLD software.
#

@<TRIPOS>MOLECULE
EN300-21300_i001|benzaldehydes|mol2|640|dock1
    14    14     1
SMALL
USER_CHARGES


@<TRIPOS>ATOM
      1 F1          30.2671  35.3856  39.1018 F              1 <1>                0.0000
      2 C2          29.1151  35.8723  39.6130 C.ar           1 <1>                0.0000
      3 C3          28.8857  35.8095  40.9810 C.ar           1 <1>                0.0000
      4 C4          27.7150  36.3024  41.5104 C.ar           1 <1>                0.0000
      5 C5          26.7521  36.8696  40.6665 C.ar           1 <1>                0.0000
      6 C6          25.5009  37.3979  41.2246 C.2            1 <1>                0.0000
      7 O7          24.7904  36.6853  41.9018 O.2            1 <1>                0.0000
      8 C8          26.9891  36.9309  39.2860 C.ar           1 <1>                0.0000
      9 F9          26.0666  37.4766  38.4634 F              1 <1>                0.0000
     10 C10         28.1715  36.4366  38.7704 C.ar           1 <1>                0.0000
     11 H11         29.6285  35.3720  41.6316 H              1 <1>                0.0000
     12 H12         27.5390  36.2515  42.5748 H              1 <1>                0.0000
     13 H13         25.2131  38.4209  41.0319 H              1 <1>                0.0000
     14 H14         28.3569  36.4828  37.7074 H              1 <1>                0.0000
@<TRIPOS>BOND
    1    1    2 1     
    2    2    3 ar    
    3    2   10 ar    
    4    3    4 ar    
    5    3   11 1     
    6    4    5 ar    
    7    4   12 1     
    8    5    6 1     
    9    5    8 ar    
   10    6    7 2     
   11    6   13 1     
   12    8    9 1     
   13    8   10 ar    
   14   10   14 1     
@<TRIPOS>SUBSTRUCTURE
      1 ****           1
@<TRIPOS>COMMENT
> <Gold.Version>
2022.2.0

> <Gold.Id.Protein>
1qkm|1qkm_protein|mol2

> <Gold.Protein.RotatedTorsions>
[  496  491  490  487 ] final  -61.84 input  -89.99 | X-H torsion

> <Gold.Protein.ActiveResidues>
 MET295  LEU298  THR299  LEU301  ALA302  GLU305  TRP335  MET336  LEU339  MET340 
 GLY342  LEU343  ARG346  PHE356  ILE373  ILE376  PHE377  LEU380  LYS471  GLY472 
 MET473  HIS475  LEU476  LEU477  ASN478  MET479  VAL484  VAL487 

> <Gold.Protein.RotatedAtoms>
   36.5113   34.7342   41.4582 H   0  0  0  0  0  0  0  0  0  0  0  0  # atno 496  bound_to 491 

> <Gold.Score>
     Score     S(PLP)   S(hbond)     S(cho)   S(metal)  DE(clash)   DE(tors)     intcor
     40.04     -39.19       0.62       0.00       0.00       0.00       0.51       0.00

> <Gold.PLP.Fitness>
40.0403

> <Gold.PLP.PLP>
-39.1919

> <Gold.PLP.part.hbond>
-0.8333

> <Gold.PLP.part.metal>
0.0000

> <Gold.PLP.part.buried>
-1.8370

> <Gold.PLP.part.nonpolar>
-37.9318

> <Gold.PLP.part.repulsive>
0.4930

> <Gold.PLP.ligand.clash>
0.0000

> <Gold.PLP.ligand.torsion>
0.5118

> <Gold.PLP.Chemscore.Hbond>
0.6240

> <Gold.PLP.Chemscore.CHOScore>
0.0000

> <Gold.PLP.Chemscore.Metal>
0.0000

> <Gold.Chemscore.Hbonds>
donor molecule, donor type, donor heavy atom, donor atom, acceptor molecule, acceptor atom, score
      P1  H  1258  1270       L1     7  0.62

> <Gold.PLP.Chemscore.Internal.Correction>
0.0000

