#       Name:                EN300-21300_i001
#       Creating user name   aseyller
#       Creation time:       Fri Apr 21 18:49:40 2023


#       File generated by GOLD software.
#

@<TRIPOS>MOLECULE
EN300-21300_i001|benzaldehydes|mol2|640|dock17
    14    14     1
SMALL
USER_CHARGES


@<TRIPOS>ATOM
      1 F1          31.7421  35.7957  38.4979 F              1 <1>                0.0000
      2 C2          30.4569  36.2060  38.5701 C.ar           1 <1>                0.0000
      3 C3          29.5664  35.5438  39.4045 C.ar           1 <1>                0.0000
      4 C4          28.2553  35.9545  39.4841 C.ar           1 <1>                0.0000
      5 C5          27.8182  37.0445  38.7211 C.ar           1 <1>                0.0000
      6 C6          26.4209  37.4885  38.8014 C.2            1 <1>                0.0000
      7 O7          25.7106  37.0956  39.7027 O.2            1 <1>                0.0000
      8 C8          28.7218  37.7098  37.8805 C.ar           1 <1>                0.0000
      9 F9          28.3100  38.7627  37.1407 F              1 <1>                0.0000
     10 C10         30.0358  37.2888  37.8156 C.ar           1 <1>                0.0000
     11 H11         29.9038  34.7032  39.9928 H              1 <1>                0.0000
     12 H12         27.5647  35.4371  40.1335 H              1 <1>                0.0000
     13 H13         26.0256  38.1647  38.0578 H              1 <1>                0.0000
     14 H14         30.7342  37.7996  37.1692 H              1 <1>                0.0000
@<TRIPOS>BOND
    1    1    2 1     
    2    2    3 ar    
    3    2   10 ar    
    4    3    4 ar    
    5    3   11 1     
    6    4    5 ar    
    7    4   12 1     
    8    5    6 1     
    9    5    8 ar    
   10    6    7 2     
   11    6   13 1     
   12    8    9 1     
   13    8   10 ar    
   14   10   14 1     
@<TRIPOS>SUBSTRUCTURE
      1 ****           1
@<TRIPOS>COMMENT
> <Gold.Version>
2022.2.0

> <Gold.Id.Protein>
1qkm|1qkm_protein|mol2

> <Gold.Protein.RotatedTorsions>
[  496  491  490  487 ] final -126.27 input  -89.99 | X-H torsion

> <Gold.Protein.ActiveResidues>
 MET295  LEU298  THR299  LEU301  ALA302  GLU305  TRP335  MET336  LEU339  MET340 
 GLY342  LEU343  ARG346  PHE356  ILE373  ILE376  PHE377  LEU380  LYS471  GLY472 
 MET473  HIS475  LEU476  LEU477  ASN478  MET479  VAL484  VAL487 

> <Gold.Protein.RotatedAtoms>
   37.0764   34.2729   40.7660 H   0  0  0  0  0  0  0  0  0  0  0  0  # atno 496  bound_to 491 

> <Gold.Score>
     Score     S(PLP)   S(hbond)     S(cho)   S(metal)  DE(clash)   DE(tors)     intcor
     34.52     -34.61       0.00       0.00       0.00       0.00       0.05       0.00

> <Gold.PLP.Fitness>
34.5193

> <Gold.PLP.PLP>
-34.6109

> <Gold.PLP.part.hbond>
0.0000

> <Gold.PLP.part.metal>
0.0000

> <Gold.PLP.part.buried>
-2.3420

> <Gold.PLP.part.nonpolar>
-32.4330

> <Gold.PLP.part.repulsive>
0.0920

> <Gold.PLP.ligand.clash>
0.0000

> <Gold.PLP.ligand.torsion>
0.0458

> <Gold.PLP.Chemscore.Hbond>
0.0000

> <Gold.PLP.Chemscore.CHOScore>
0.0000

> <Gold.PLP.Chemscore.Metal>
0.0000

> <Gold.PLP.Chemscore.Internal.Correction>
0.0000

