#       Name:                EN300-21300_i001
#       Creating user name   aseyller
#       Creation time:       Fri Apr 21 18:49:38 2023


#       File generated by GOLD software.
#

@<TRIPOS>MOLECULE
EN300-21300_i001|benzaldehydes|mol2|640|dock11
    14    14     1
SMALL
USER_CHARGES


@<TRIPOS>ATOM
      1 F1          33.5891  35.5070  36.6551 F              1 <1>                0.0000
      2 C2          32.4845  35.5048  37.4330 C.ar           1 <1>                0.0000
      3 C3          32.0484  34.3194  38.0098 C.ar           1 <1>                0.0000
      4 C4          30.9241  34.3077  38.8033 C.ar           1 <1>                0.0000
      5 C5          30.2179  35.4956  39.0302 C.ar           1 <1>                0.0000
      6 C6          29.0178  35.4905  39.8762 C.2            1 <1>                0.0000
      7 O7          28.3106  36.4743  39.9314 O.2            1 <1>                0.0000
      8 C8          30.6631  36.6897  38.4458 C.ar           1 <1>                0.0000
      9 F9          29.9890  37.8411  38.6590 F              1 <1>                0.0000
     10 C10         31.7963  36.6862  37.6560 C.ar           1 <1>                0.0000
     11 H11         32.5932  33.4034  37.8346 H              1 <1>                0.0000
     12 H12         30.5868  33.3840  39.2500 H              1 <1>                0.0000
     13 H13         28.7650  34.6108  40.4495 H              1 <1>                0.0000
     14 H14         32.1417  37.6046  37.2048 H              1 <1>                0.0000
@<TRIPOS>BOND
    1    1    2 1     
    2    2    3 ar    
    3    2   10 ar    
    4    3    4 ar    
    5    3   11 1     
    6    4    5 ar    
    7    4   12 1     
    8    5    6 1     
    9    5    8 ar    
   10    6    7 2     
   11    6   13 1     
   12    8    9 1     
   13    8   10 ar    
   14   10   14 1     
@<TRIPOS>SUBSTRUCTURE
      1 ****           1
@<TRIPOS>COMMENT
> <Gold.Version>
2022.2.0

> <Gold.Id.Protein>
1qkm|1qkm_protein|mol2

> <Gold.Protein.RotatedTorsions>
[  496  491  490  487 ] final -153.81 input  -89.99 | X-H torsion

> <Gold.Protein.ActiveResidues>
 MET295  LEU298  THR299  LEU301  ALA302  GLU305  TRP335  MET336  LEU339  MET340 
 GLY342  LEU343  ARG346  PHE356  ILE373  ILE376  PHE377  LEU380  LYS471  GLY472 
 MET473  HIS475  LEU476  LEU477  ASN478  MET479  VAL484  VAL487 

> <Gold.Protein.RotatedAtoms>
   37.2497   33.8602   40.7291 H   0  0  0  0  0  0  0  0  0  0  0  0  # atno 496  bound_to 491 

> <Gold.Score>
     Score     S(PLP)   S(hbond)     S(cho)   S(metal)  DE(clash)   DE(tors)     intcor
     35.50     -35.54       0.00       0.00       0.00       0.00       0.02       0.00

> <Gold.PLP.Fitness>
35.4989

> <Gold.PLP.PLP>
-35.5407

> <Gold.PLP.part.hbond>
0.0000

> <Gold.PLP.part.metal>
0.0000

> <Gold.PLP.part.buried>
-2.3973

> <Gold.PLP.part.nonpolar>
-33.8240

> <Gold.PLP.part.repulsive>
0.0379

> <Gold.PLP.ligand.clash>
0.0000

> <Gold.PLP.ligand.torsion>
0.0209

> <Gold.PLP.Chemscore.Hbond>
0.0000

> <Gold.PLP.Chemscore.CHOScore>
0.0000

> <Gold.PLP.Chemscore.Metal>
0.0000

> <Gold.PLP.Chemscore.Internal.Correction>
0.0000

