#       Name:                EN300-21300_i001
#       Creating user name   aseyller
#       Creation time:       Fri Apr 21 18:49:36 2023


#       File generated by GOLD software.
#

@<TRIPOS>MOLECULE
EN300-21300_i001|benzaldehydes|mol2|640|dock2
    14    14     1
SMALL
USER_CHARGES


@<TRIPOS>ATOM
      1 F1          33.3774  36.5053  34.9219 F              1 <1>                0.0000
      2 C2          32.5748  36.4047  36.0040 C.ar           1 <1>                0.0000
      3 C3          31.7308  37.4554  36.3378 C.ar           1 <1>                0.0000
      4 C4          30.9101  37.3618  37.4386 C.ar           1 <1>                0.0000
      5 C5          30.9262  36.2027  38.2242 C.ar           1 <1>                0.0000
      6 C6          30.0528  36.0958  39.3998 C.2            1 <1>                0.0000
      7 O7          29.1579  36.8977  39.5653 O.2            1 <1>                0.0000
      8 C8          31.7801  35.1445  37.8823 C.ar           1 <1>                0.0000
      9 F9          31.8026  34.0218  38.6335 F              1 <1>                0.0000
     10 C10         32.5940  35.2515  36.7714 C.ar           1 <1>                0.0000
     11 H11         31.7186  38.3493  35.7318 H              1 <1>                0.0000
     12 H12         30.2551  38.1810  37.6962 H              1 <1>                0.0000
     13 H13         30.2074  35.3033  40.1171 H              1 <1>                0.0000
     14 H14         33.2526  34.4379  36.5053 H              1 <1>                0.0000
@<TRIPOS>BOND
    1    1    2 1     
    2    2    3 ar    
    3    2   10 ar    
    4    3    4 ar    
    5    3   11 1     
    6    4    5 ar    
    7    4   12 1     
    8    5    6 1     
    9    5    8 ar    
   10    6    7 2     
   11    6   13 1     
   12    8    9 1     
   13    8   10 ar    
   14   10   14 1     
@<TRIPOS>SUBSTRUCTURE
      1 ****           1
@<TRIPOS>COMMENT
> <Gold.Version>
2022.2.0

> <Gold.Id.Protein>
1qkm|1qkm_protein|mol2

> <Gold.Protein.RotatedTorsions>
[  496  491  490  487 ] final  -50.55 input  -89.99 | X-H torsion

> <Gold.Protein.ActiveResidues>
 MET295  LEU298  THR299  LEU301  ALA302  GLU305  TRP335  MET336  LEU339  MET340 
 GLY342  LEU343  ARG346  PHE356  ILE373  ILE376  PHE377  LEU380  LYS471  GLY472 
 MET473  HIS475  LEU476  LEU477  ASN478  MET479  VAL484  VAL487 

> <Gold.Protein.RotatedAtoms>
   36.4283   34.7064   41.6217 H   0  0  0  0  0  0  0  0  0  0  0  0  # atno 496  bound_to 491 

> <Gold.Score>
     Score     S(PLP)   S(hbond)     S(cho)   S(metal)  DE(clash)   DE(tors)     intcor
     36.47     -36.55       0.00       0.00       0.00       0.00       0.04       0.00

> <Gold.PLP.Fitness>
36.4742

> <Gold.PLP.PLP>
-36.5467

> <Gold.PLP.part.hbond>
0.0000

> <Gold.PLP.part.metal>
0.0000

> <Gold.PLP.part.buried>
-2.4922

> <Gold.PLP.part.nonpolar>
-34.6782

> <Gold.PLP.part.repulsive>
0.0480

> <Gold.PLP.ligand.clash>
0.0000

> <Gold.PLP.ligand.torsion>
0.0363

> <Gold.PLP.Chemscore.Hbond>
0.0000

> <Gold.PLP.Chemscore.CHOScore>
0.0000

> <Gold.PLP.Chemscore.Metal>
0.0000

> <Gold.PLP.Chemscore.Internal.Correction>
0.0000

