#       Name:                EN300-21300_i001
#       Creating user name   aseyller
#       Creation time:       Fri Apr 21 18:49:40 2023


#       File generated by GOLD software.
#

@<TRIPOS>MOLECULE
EN300-21300_i001|benzaldehydes|mol2|640|dock18
    14    14     1
SMALL
USER_CHARGES


@<TRIPOS>ATOM
      1 F1          31.9455  33.3625  38.4920 F              1 <1>                0.0000
      2 C2          31.4361  34.6055  38.3482 C.ar           1 <1>                0.0000
      3 C3          32.0013  35.4817  37.4314 C.ar           1 <1>                0.0000
      4 C4          31.4893  36.7499  37.2785 C.ar           1 <1>                0.0000
      5 C5          30.3940  37.1577  38.0501 C.ar           1 <1>                0.0000
      6 C6          29.8422  38.5092  37.8919 C.2            1 <1>                0.0000
      7 O7          30.2389  39.2253  36.9968 O.2            1 <1>                0.0000
      8 C8          29.8268  36.2687  38.9740 C.ar           1 <1>                0.0000
      9 F9          28.7696  36.6524  39.7227 F              1 <1>                0.0000
     10 C10         30.3489  34.9973  39.1121 C.ar           1 <1>                0.0000
     11 H11         32.8461  35.1670  36.8365 H              1 <1>                0.0000
     12 H12         31.9315  37.4296  36.5651 H              1 <1>                0.0000
     13 H13         29.0832  38.8657  38.5725 H              1 <1>                0.0000
     14 H14         29.9138  34.3102  39.8228 H              1 <1>                0.0000
@<TRIPOS>BOND
    1    1    2 1     
    2    2    3 ar    
    3    2   10 ar    
    4    3    4 ar    
    5    3   11 1     
    6    4    5 ar    
    7    4   12 1     
    8    5    6 1     
    9    5    8 ar    
   10    6    7 2     
   11    6   13 1     
   12    8    9 1     
   13    8   10 ar    
   14   10   14 1     
@<TRIPOS>SUBSTRUCTURE
      1 ****           1
@<TRIPOS>COMMENT
> <Gold.Version>
2022.2.0

> <Gold.Id.Protein>
1qkm|1qkm_protein|mol2

> <Gold.Protein.RotatedTorsions>
[  496  491  490  487 ] final  -17.79 input  -89.99 | X-H torsion

> <Gold.Protein.ActiveResidues>
 MET295  LEU298  THR299  LEU301  ALA302  GLU305  TRP335  MET336  LEU339  MET340 
 GLY342  LEU343  ARG346  PHE356  ILE373  ILE376  PHE377  LEU380  LYS471  GLY472 
 MET473  HIS475  LEU476  LEU477  ASN478  MET479  VAL484  VAL487 

> <Gold.Protein.RotatedAtoms>
   36.2754   34.4448   42.0590 H   0  0  0  0  0  0  0  0  0  0  0  0  # atno 496  bound_to 491 

> <Gold.Score>
     Score     S(PLP)   S(hbond)     S(cho)   S(metal)  DE(clash)   DE(tors)     intcor
     35.40     -35.42       0.00       0.00       0.00       0.00       0.01       0.00

> <Gold.PLP.Fitness>
35.3958

> <Gold.PLP.PLP>
-35.4235

> <Gold.PLP.part.hbond>
0.0000

> <Gold.PLP.part.metal>
0.0000

> <Gold.PLP.part.buried>
-2.0390

> <Gold.PLP.part.nonpolar>
-34.0309

> <Gold.PLP.part.repulsive>
0.0000

> <Gold.PLP.ligand.clash>
0.0000

> <Gold.PLP.ligand.torsion>
0.0138

> <Gold.PLP.Chemscore.Hbond>
0.0000

> <Gold.PLP.Chemscore.CHOScore>
0.0000

> <Gold.PLP.Chemscore.Metal>
0.0000

> <Gold.PLP.Chemscore.Internal.Correction>
0.0000

