#       Name:                EN300-21300_i001
#       Creating user name   aseyller
#       Creation time:       Fri Apr 21 18:49:39 2023


#       File generated by GOLD software.
#

@<TRIPOS>MOLECULE
EN300-21300_i001|benzaldehydes|mol2|640|dock13
    14    14     1
SMALL
USER_CHARGES


@<TRIPOS>ATOM
      1 F1          33.2753  36.5724  35.2199 F              1 <1>                0.0000
      2 C2          32.4437  36.4924  36.2817 C.ar           1 <1>                0.0000
      3 C3          32.7125  35.5910  37.3030 C.ar           1 <1>                0.0000
      4 C4          31.8708  35.5024  38.3882 C.ar           1 <1>                0.0000
      5 C5          30.7395  36.3246  38.4625 C.ar           1 <1>                0.0000
      6 C6          29.8374  36.2358  39.6176 C.2            1 <1>                0.0000
      7 O7          28.8059  36.8738  39.6320 O.2            1 <1>                0.0000
      8 C8          30.4732  37.2334  37.4286 C.ar           1 <1>                0.0000
      9 F9          29.3847  38.0313  37.4913 F              1 <1>                0.0000
     10 C10         31.3305  37.3141  36.3485 C.ar           1 <1>                0.0000
     11 H11         33.5850  34.9570  37.2454 H              1 <1>                0.0000
     12 H12         32.0820  34.7998  39.1808 H              1 <1>                0.0000
     13 H13         30.0924  35.6025  40.4545 H              1 <1>                0.0000
     14 H14         31.1280  38.0134  35.5508 H              1 <1>                0.0000
@<TRIPOS>BOND
    1    1    2 1     
    2    2    3 ar    
    3    2   10 ar    
    4    3    4 ar    
    5    3   11 1     
    6    4    5 ar    
    7    4   12 1     
    8    5    6 1     
    9    5    8 ar    
   10    6    7 2     
   11    6   13 1     
   12    8    9 1     
   13    8   10 ar    
   14   10   14 1     
@<TRIPOS>SUBSTRUCTURE
      1 ****           1
@<TRIPOS>COMMENT
> <Gold.Version>
2022.2.0

> <Gold.Id.Protein>
1qkm|1qkm_protein|mol2

> <Gold.Protein.RotatedTorsions>
[  496  491  490  487 ] final  -54.34 input  -89.99 | X-H torsion

> <Gold.Protein.ActiveResidues>
 MET295  LEU298  THR299  LEU301  ALA302  GLU305  TRP335  MET336  LEU339  MET340 
 GLY342  LEU343  ARG346  PHE356  ILE373  ILE376  PHE377  LEU380  LYS471  GLY472 
 MET473  HIS475  LEU476  LEU477  ASN478  MET479  VAL484  VAL487 

> <Gold.Protein.RotatedAtoms>
   36.4548   34.7196   41.5668 H   0  0  0  0  0  0  0  0  0  0  0  0  # atno 496  bound_to 491 

> <Gold.Score>
     Score     S(PLP)   S(hbond)     S(cho)   S(metal)  DE(clash)   DE(tors)     intcor
     34.73     -34.75       0.00       0.00       0.00       0.00       0.01       0.00

> <Gold.PLP.Fitness>
34.7331

> <Gold.PLP.PLP>
-34.7474

> <Gold.PLP.part.hbond>
0.0000

> <Gold.PLP.part.metal>
0.0000

> <Gold.PLP.part.buried>
-2.0089

> <Gold.PLP.part.nonpolar>
-33.2632

> <Gold.PLP.part.repulsive>
0.0374

> <Gold.PLP.ligand.clash>
0.0000

> <Gold.PLP.ligand.torsion>
0.0072

> <Gold.PLP.Chemscore.Hbond>
0.0000

> <Gold.PLP.Chemscore.CHOScore>
0.0000

> <Gold.PLP.Chemscore.Metal>
0.0000

> <Gold.PLP.Chemscore.Internal.Correction>
0.0000

