#       Name:                EN300-21300_i001
#       Creating user name   aseyller
#       Creation time:       Fri Apr 21 18:49:38 2023


#       File generated by GOLD software.
#

@<TRIPOS>MOLECULE
EN300-21300_i001|benzaldehydes|mol2|640|dock8
    14    14     1
SMALL
USER_CHARGES


@<TRIPOS>ATOM
      1 F1          30.8371  36.4592  38.4067 F              1 <1>                0.0000
      2 C2          29.5885  36.6353  38.8917 C.ar           1 <1>                0.0000
      3 C3          29.2826  36.2171  40.1798 C.ar           1 <1>                0.0000
      4 C4          28.0133  36.3921  40.6820 C.ar           1 <1>                0.0000
      5 C5          27.0271  36.9946  39.8911 C.ar           1 <1>                0.0000
      6 C6          25.6709  37.1850  40.4206 C.2            1 <1>                0.0000
      7 O7          25.4491  37.0040  41.5993 O.2            1 <1>                0.0000
      8 C8          27.3416  37.4155  38.5912 C.ar           1 <1>                0.0000
      9 F9          26.3973  37.9983  37.8204 F              1 <1>                0.0000
     10 C10         28.6216  37.2376  38.1033 C.ar           1 <1>                0.0000
     11 H11         30.0434  35.7524  40.7896 H              1 <1>                0.0000
     12 H12         27.7781  36.0651  41.6841 H              1 <1>                0.0000
     13 H13         24.8707  37.4860  39.7605 H              1 <1>                0.0000
     14 H14         28.8668  37.5612  37.1025 H              1 <1>                0.0000
@<TRIPOS>BOND
    1    1    2 1     
    2    2    3 ar    
    3    2   10 ar    
    4    3    4 ar    
    5    3   11 1     
    6    4    5 ar    
    7    4   12 1     
    8    5    6 1     
    9    5    8 ar    
   10    6    7 2     
   11    6   13 1     
   12    8    9 1     
   13    8   10 ar    
   14   10   14 1     
@<TRIPOS>SUBSTRUCTURE
      1 ****           1
@<TRIPOS>COMMENT
> <Gold.Version>
2022.2.0

> <Gold.Id.Protein>
1qkm|1qkm_protein|mol2

> <Gold.Protein.RotatedTorsions>
[  496  491  490  487 ] final  156.67 input  -89.99 | X-H torsion

> <Gold.Protein.ActiveResidues>
 MET295  LEU298  THR299  LEU301  ALA302  GLU305  TRP335  MET336  LEU339  MET340 
 GLY342  LEU343  ARG346  PHE356  ILE373  ILE376  PHE377  LEU380  LYS471  GLY472 
 MET473  HIS475  LEU476  LEU477  ASN478  MET479  VAL484  VAL487 

> <Gold.Protein.RotatedAtoms>
   37.2870   33.1693   41.1105 H   0  0  0  0  0  0  0  0  0  0  0  0  # atno 496  bound_to 491 

> <Gold.Score>
     Score     S(PLP)   S(hbond)     S(cho)   S(metal)  DE(clash)   DE(tors)     intcor
     35.90     -35.77       0.06       0.00       0.00       0.00       0.03       0.00

> <Gold.PLP.Fitness>
35.8964

> <Gold.PLP.PLP>
-35.7688

> <Gold.PLP.part.hbond>
-1.0000

> <Gold.PLP.part.metal>
0.0000

> <Gold.PLP.part.buried>
-3.1616

> <Gold.PLP.part.nonpolar>
-32.7571

> <Gold.PLP.part.repulsive>
0.2390

> <Gold.PLP.ligand.clash>
0.0000

> <Gold.PLP.ligand.torsion>
0.0259

> <Gold.PLP.Chemscore.Hbond>
0.0598

> <Gold.PLP.Chemscore.CHOScore>
0.0000

> <Gold.PLP.Chemscore.Metal>
0.0000

> <Gold.Chemscore.Hbonds>
donor molecule, donor type, donor heavy atom, donor atom, acceptor molecule, acceptor atom, score
      P1  H  1258  1270       L1     7  0.06

> <Gold.PLP.Chemscore.Internal.Correction>
0.0000

