#       Name:                EN300-21300_i001
#       Creating user name   aseyller
#       Creation time:       Fri Apr 21 18:49:37 2023


#       File generated by GOLD software.
#

@<TRIPOS>MOLECULE
EN300-21300_i001|benzaldehydes|mol2|640|dock4
    14    14     1
SMALL
USER_CHARGES


@<TRIPOS>ATOM
      1 F1          25.2750  36.9882  41.2439 F              1 <1>                0.0000
      2 C2          26.4976  36.8237  40.6931 C.ar           1 <1>                0.0000
      3 C3          27.5495  36.3609  41.4722 C.ar           1 <1>                0.0000
      4 C4          28.7984  36.1908  40.9196 C.ar           1 <1>                0.0000
      5 C5          29.0086  36.4850  39.5667 C.ar           1 <1>                0.0000
      6 C6          30.3383  36.3053  38.9704 C.2            1 <1>                0.0000
      7 O7          30.5652  36.7270  37.8560 O.2            1 <1>                0.0000
      8 C8          27.9427  36.9515  38.7844 C.ar           1 <1>                0.0000
      9 F9          28.1351  37.2377  37.4781 F              1 <1>                0.0000
     10 C10         26.6938  37.1121  39.3524 C.ar           1 <1>                0.0000
     11 H11         27.3872  36.1342  42.5156 H              1 <1>                0.0000
     12 H12         29.6149  35.8313  41.5283 H              1 <1>                0.0000
     13 H13         31.1142  35.7974  39.5239 H              1 <1>                0.0000
     14 H14         25.8708  37.4710  38.7522 H              1 <1>                0.0000
@<TRIPOS>BOND
    1    1    2 1     
    2    2    3 ar    
    3    2   10 ar    
    4    3    4 ar    
    5    3   11 1     
    6    4    5 ar    
    7    4   12 1     
    8    5    6 1     
    9    5    8 ar    
   10    6    7 2     
   11    6   13 1     
   12    8    9 1     
   13    8   10 ar    
   14   10   14 1     
@<TRIPOS>SUBSTRUCTURE
      1 ****           1
@<TRIPOS>COMMENT
> <Gold.Version>
2022.2.0

> <Gold.Id.Protein>
1qkm|1qkm_protein|mol2

> <Gold.Protein.RotatedTorsions>
[  496  491  490  487 ] final   95.21 input  -89.99 | X-H torsion

> <Gold.Protein.ActiveResidues>
 MET295  LEU298  THR299  LEU301  ALA302  GLU305  TRP335  MET336  LEU339  MET340 
 GLY342  LEU343  ARG346  PHE356  ILE373  ILE376  PHE377  LEU380  LYS471  GLY472 
 MET473  HIS475  LEU476  LEU477  ASN478  MET479  VAL484  VAL487 

> <Gold.Protein.RotatedAtoms>
   36.8682   32.9912   41.9601 H   0  0  0  0  0  0  0  0  0  0  0  0  # atno 496  bound_to 491 

> <Gold.Score>
     Score     S(PLP)   S(hbond)     S(cho)   S(metal)  DE(clash)   DE(tors)     intcor
     38.31     -38.36       0.00       0.00       0.00       0.00       0.02       0.00

> <Gold.PLP.Fitness>
38.3112

> <Gold.PLP.PLP>
-38.3556

> <Gold.PLP.part.hbond>
0.0000

> <Gold.PLP.part.metal>
0.0000

> <Gold.PLP.part.buried>
-0.9814

> <Gold.PLP.part.nonpolar>
-37.8923

> <Gold.PLP.part.repulsive>
0.0141

> <Gold.PLP.ligand.clash>
0.0000

> <Gold.PLP.ligand.torsion>
0.0222

> <Gold.PLP.Chemscore.Hbond>
0.0000

> <Gold.PLP.Chemscore.CHOScore>
0.0000

> <Gold.PLP.Chemscore.Metal>
0.0000

> <Gold.PLP.Chemscore.Internal.Correction>
0.0000

