#       Name:                EN300-21300_i001
#       Creating user name   aseyller
#       Creation time:       Fri Apr 21 18:49:40 2023


#       File generated by GOLD software.
#

@<TRIPOS>MOLECULE
EN300-21300_i001|benzaldehydes|mol2|640|dock19
    14    14     1
SMALL
USER_CHARGES


@<TRIPOS>ATOM
      1 F1          25.8029  36.4573  40.7476 F              1 <1>                0.0000
      2 C2          27.0011  36.4905  40.1243 C.ar           1 <1>                0.0000
      3 C3          28.0576  35.7368  40.6179 C.ar           1 <1>                0.0000
      4 C4          29.2817  35.7649  39.9897 C.ar           1 <1>                0.0000
      5 C5          29.4620  36.5561  38.8483 C.ar           1 <1>                0.0000
      6 C6          30.7652  36.5905  38.1726 C.2            1 <1>                0.0000
      7 O7          31.6418  35.8216  38.5064 O.2            1 <1>                0.0000
      8 C8          28.3917  37.3148  38.3538 C.ar           1 <1>                0.0000
      9 F9          28.5554  38.0809  37.2531 F              1 <1>                0.0000
     10 C10         27.1676  37.2719  38.9926 C.ar           1 <1>                0.0000
     11 H11         27.9182  35.1268  41.4982 H              1 <1>                0.0000
     12 H12         30.1018  35.1782  40.3763 H              1 <1>                0.0000
     13 H13         30.9432  37.3006  37.3785 H              1 <1>                0.0000
     14 H14         26.3413  37.8551  38.6138 H              1 <1>                0.0000
@<TRIPOS>BOND
    1    1    2 1     
    2    2    3 ar    
    3    2   10 ar    
    4    3    4 ar    
    5    3   11 1     
    6    4    5 ar    
    7    4   12 1     
    8    5    6 1     
    9    5    8 ar    
   10    6    7 2     
   11    6   13 1     
   12    8    9 1     
   13    8   10 ar    
   14   10   14 1     
@<TRIPOS>SUBSTRUCTURE
      1 ****           1
@<TRIPOS>COMMENT
> <Gold.Version>
2022.2.0

> <Gold.Id.Protein>
1qkm|1qkm_protein|mol2

> <Gold.Protein.RotatedTorsions>
[  496  491  490  487 ] final -109.35 input  -89.99 | X-H torsion

> <Gold.Protein.ActiveResidues>
 MET295  LEU298  THR299  LEU301  ALA302  GLU305  TRP335  MET336  LEU339  MET340 
 GLY342  LEU343  ARG346  PHE356  ILE373  ILE376  PHE377  LEU380  LYS471  GLY472 
 MET473  HIS475  LEU476  LEU477  ASN478  MET479  VAL484  VAL487 

> <Gold.Protein.RotatedAtoms>
   36.9344   34.4827   40.8792 H   0  0  0  0  0  0  0  0  0  0  0  0  # atno 496  bound_to 491 

> <Gold.Score>
     Score     S(PLP)   S(hbond)     S(cho)   S(metal)  DE(clash)   DE(tors)     intcor
     35.22     -35.25       0.00       0.00       0.00       0.00       0.02       0.00

> <Gold.PLP.Fitness>
35.2169

> <Gold.PLP.PLP>
-35.2489

> <Gold.PLP.part.hbond>
0.0000

> <Gold.PLP.part.metal>
0.0000

> <Gold.PLP.part.buried>
-2.4075

> <Gold.PLP.part.nonpolar>
-33.1187

> <Gold.PLP.part.repulsive>
0.0726

> <Gold.PLP.ligand.clash>
0.0000

> <Gold.PLP.ligand.torsion>
0.0160

> <Gold.PLP.Chemscore.Hbond>
0.0000

> <Gold.PLP.Chemscore.CHOScore>
0.0000

> <Gold.PLP.Chemscore.Metal>
0.0000

> <Gold.PLP.Chemscore.Internal.Correction>
0.0000

