#       Name:                EN300-21300_i001
#       Creating user name   aseyller
#       Creation time:       Fri Apr 21 18:49:38 2023


#       File generated by GOLD software.
#

@<TRIPOS>MOLECULE
EN300-21300_i001|benzaldehydes|mol2|640|dock10
    14    14     1
SMALL
USER_CHARGES


@<TRIPOS>ATOM
      1 F1          25.5000  36.7359  41.3496 F              1 <1>                0.0000
      2 C2          26.3910  36.8873  40.3454 C.ar           1 <1>                0.0000
      3 C3          25.9985  37.4930  39.1593 C.ar           1 <1>                0.0000
      4 C4          26.8993  37.6511  38.1309 C.ar           1 <1>                0.0000
      5 C5          28.2164  37.1998  38.2817 C.ar           1 <1>                0.0000
      6 C6          29.1829  37.3656  37.1889 C.2            1 <1>                0.0000
      7 O7          30.3505  37.0881  37.3646 O.2            1 <1>                0.0000
      8 C8          28.6075  36.5893  39.4818 C.ar           1 <1>                0.0000
      9 F9          29.8760  36.1510  39.6372 F              1 <1>                0.0000
     10 C10         27.6931  36.4427  40.5067 C.ar           1 <1>                0.0000
     11 H11         24.9826  37.8409  39.0433 H              1 <1>                0.0000
     12 H12         26.5909  38.1219  37.2092 H              1 <1>                0.0000
     13 H13         28.8542  37.7347  36.2286 H              1 <1>                0.0000
     14 H14         27.9916  35.9731  41.4323 H              1 <1>                0.0000
@<TRIPOS>BOND
    1    1    2 1     
    2    2    3 ar    
    3    2   10 ar    
    4    3    4 ar    
    5    3   11 1     
    6    4    5 ar    
    7    4   12 1     
    8    5    6 1     
    9    5    8 ar    
   10    6    7 2     
   11    6   13 1     
   12    8    9 1     
   13    8   10 ar    
   14   10   14 1     
@<TRIPOS>SUBSTRUCTURE
      1 ****           1
@<TRIPOS>COMMENT
> <Gold.Version>
2022.2.0

> <Gold.Id.Protein>
1qkm|1qkm_protein|mol2

> <Gold.Protein.RotatedTorsions>
[  496  491  490  487 ] final -163.86 input  -89.99 | X-H torsion

> <Gold.Protein.ActiveResidues>
 MET295  LEU298  THR299  LEU301  ALA302  GLU305  TRP335  MET336  LEU339  MET340 
 GLY342  LEU343  ARG346  PHE356  ILE373  ILE376  PHE377  LEU380  LYS471  GLY472 
 MET473  HIS475  LEU476  LEU477  ASN478  MET479  VAL484  VAL487 

> <Gold.Protein.RotatedAtoms>
   37.2883   33.7032   40.7630 H   0  0  0  0  0  0  0  0  0  0  0  0  # atno 496  bound_to 491 

> <Gold.Score>
     Score     S(PLP)   S(hbond)     S(cho)   S(metal)  DE(clash)   DE(tors)     intcor
     37.22     -37.24       0.00       0.00       0.00       0.00       0.01       0.00

> <Gold.PLP.Fitness>
37.2223

> <Gold.PLP.PLP>
-37.2439

> <Gold.PLP.part.hbond>
0.0000

> <Gold.PLP.part.metal>
0.0000

> <Gold.PLP.part.buried>
-1.5457

> <Gold.PLP.part.nonpolar>
-36.5963

> <Gold.PLP.part.repulsive>
0.0000

> <Gold.PLP.ligand.clash>
0.0000

> <Gold.PLP.ligand.torsion>
0.0108

> <Gold.PLP.Chemscore.Hbond>
0.0000

> <Gold.PLP.Chemscore.CHOScore>
0.0000

> <Gold.PLP.Chemscore.Metal>
0.0000

> <Gold.PLP.Chemscore.Internal.Correction>
0.0000

