#       Name:                EN300-21300_i001
#       Creating user name   aseyller
#       Creation time:       Fri Apr 21 18:49:40 2023


#       File generated by GOLD software.
#

@<TRIPOS>MOLECULE
EN300-21300_i001|benzaldehydes|mol2|640|dock16
    14    14     1
SMALL
USER_CHARGES


@<TRIPOS>ATOM
      1 F1          26.3722  36.0839  40.9031 F              1 <1>                0.0000
      2 C2          27.0637  36.6328  39.8805 C.ar           1 <1>                0.0000
      3 C3          26.4022  37.4061  38.9359 C.ar           1 <1>                0.0000
      4 C4          27.0985  37.9688  37.8907 C.ar           1 <1>                0.0000
      5 C5          28.4790  37.7610  37.7799 C.ar           1 <1>                0.0000
      6 C6          29.2282  38.3587  36.6675 C.2            1 <1>                0.0000
      7 O7          30.4361  38.2557  36.6252 O.2            1 <1>                0.0000
      8 C8          29.1420  36.9796  38.7368 C.ar           1 <1>                0.0000
      9 F9          30.4736  36.7736  38.6390 F              1 <1>                0.0000
     10 C10         28.4300  36.4260  39.7830 C.ar           1 <1>                0.0000
     11 H11         25.3375  37.5662  39.0216 H              1 <1>                0.0000
     12 H12         26.5811  38.5693  37.1570 H              1 <1>                0.0000
     13 H13         28.7039  38.8902  35.8871 H              1 <1>                0.0000
     14 H14         28.9381  35.8239  40.5218 H              1 <1>                0.0000
@<TRIPOS>BOND
    1    1    2 1     
    2    2    3 ar    
    3    2   10 ar    
    4    3    4 ar    
    5    3   11 1     
    6    4    5 ar    
    7    4   12 1     
    8    5    6 1     
    9    5    8 ar    
   10    6    7 2     
   11    6   13 1     
   12    8    9 1     
   13    8   10 ar    
   14   10   14 1     
@<TRIPOS>SUBSTRUCTURE
      1 ****           1
@<TRIPOS>COMMENT
> <Gold.Version>
2022.2.0

> <Gold.Id.Protein>
1qkm|1qkm_protein|mol2

> <Gold.Protein.RotatedTorsions>
[  496  491  490  487 ] final  165.08 input  -89.99 | X-H torsion

> <Gold.Protein.ActiveResidues>
 MET295  LEU298  THR299  LEU301  ALA302  GLU305  TRP335  MET336  LEU339  MET340 
 GLY342  LEU343  ARG346  PHE356  ILE373  ILE376  PHE377  LEU380  LYS471  GLY472 
 MET473  HIS475  LEU476  LEU477  ASN478  MET479  VAL484  VAL487 

> <Gold.Protein.RotatedAtoms>
   37.3081   33.2644   41.0121 H   0  0  0  0  0  0  0  0  0  0  0  0  # atno 496  bound_to 491 

> <Gold.Score>
     Score     S(PLP)   S(hbond)     S(cho)   S(metal)  DE(clash)   DE(tors)     intcor
     35.22     -35.24       0.00       0.00       0.00       0.00       0.01       0.00

> <Gold.PLP.Fitness>
35.2239

> <Gold.PLP.PLP>
-35.2362

> <Gold.PLP.part.hbond>
0.0000

> <Gold.PLP.part.metal>
0.0000

> <Gold.PLP.part.buried>
-1.5980

> <Gold.PLP.part.nonpolar>
-33.4497

> <Gold.PLP.part.repulsive>
0.0000

> <Gold.PLP.ligand.clash>
0.0000

> <Gold.PLP.ligand.torsion>
0.0061

> <Gold.PLP.Chemscore.Hbond>
0.0000

> <Gold.PLP.Chemscore.CHOScore>
0.0000

> <Gold.PLP.Chemscore.Metal>
0.0000

> <Gold.PLP.Chemscore.Internal.Correction>
0.0000

