#       Name:                EN300-21300_i001
#       Creating user name   aseyller
#       Creation time:       Fri Apr 21 18:49:39 2023


#       File generated by GOLD software.
#

@<TRIPOS>MOLECULE
EN300-21300_i001|benzaldehydes|mol2|640|dock14
    14    14     1
SMALL
USER_CHARGES


@<TRIPOS>ATOM
      1 F1          28.5050  36.5495  40.3550 F              1 <1>                0.0000
      2 C2          29.5213  36.2910  39.5032 C.ar           1 <1>                0.0000
      3 C3          30.0646  37.3188  38.7442 C.ar           1 <1>                0.0000
      4 C4          31.0998  37.0646  37.8736 C.ar           1 <1>                0.0000
      5 C5          31.6070  35.7648  37.7535 C.ar           1 <1>                0.0000
      6 C6          32.7117  35.4865  36.8271 C.2            1 <1>                0.0000
      7 O7          33.2101  36.3895  36.1889 O.2            1 <1>                0.0000
      8 C8          31.0550  34.7308  38.5228 C.ar           1 <1>                0.0000
      9 F9          31.5376  33.4735  38.4145 F              1 <1>                0.0000
     10 C10         30.0198  35.0030  39.3960 C.ar           1 <1>                0.0000
     11 H11         29.6732  38.3212  38.8369 H              1 <1>                0.0000
     12 H12         31.5199  37.8660  37.2839 H              1 <1>                0.0000
     13 H13         33.0802  34.4776  36.7138 H              1 <1>                0.0000
     14 H14         29.5928  34.2085  39.9901 H              1 <1>                0.0000
@<TRIPOS>BOND
    1    1    2 1     
    2    2    3 ar    
    3    2   10 ar    
    4    3    4 ar    
    5    3   11 1     
    6    4    5 ar    
    7    4   12 1     
    8    5    6 1     
    9    5    8 ar    
   10    6    7 2     
   11    6   13 1     
   12    8    9 1     
   13    8   10 ar    
   14   10   14 1     
@<TRIPOS>SUBSTRUCTURE
      1 ****           1
@<TRIPOS>COMMENT
> <Gold.Version>
2022.2.0

> <Gold.Id.Protein>
1qkm|1qkm_protein|mol2

> <Gold.Protein.RotatedTorsions>
[  496  491  490  487 ] final   35.37 input  -89.99 | X-H torsion

> <Gold.Protein.ActiveResidues>
 MET295  LEU298  THR299  LEU301  ALA302  GLU305  TRP335  MET336  LEU339  MET340 
 GLY342  LEU343  ARG346  PHE356  ILE373  ILE376  PHE377  LEU380  LYS471  GLY472 
 MET473  HIS475  LEU476  LEU477  ASN478  MET479  VAL484  VAL487 

> <Gold.Protein.RotatedAtoms>
   36.3756   33.6721   42.3832 H   0  0  0  0  0  0  0  0  0  0  0  0  # atno 496  bound_to 491 

> <Gold.Score>
     Score     S(PLP)   S(hbond)     S(cho)   S(metal)  DE(clash)   DE(tors)     intcor
     36.25     -36.25       0.00       0.00       0.00       0.00       0.00       0.00

> <Gold.PLP.Fitness>
36.2522

> <Gold.PLP.PLP>
-36.2538

> <Gold.PLP.part.hbond>
0.0000

> <Gold.PLP.part.metal>
0.0000

> <Gold.PLP.part.buried>
-1.7979

> <Gold.PLP.part.nonpolar>
-34.6675

> <Gold.PLP.part.repulsive>
0.0391

> <Gold.PLP.ligand.clash>
0.0000

> <Gold.PLP.ligand.torsion>
0.0008

> <Gold.PLP.Chemscore.Hbond>
0.0000

> <Gold.PLP.Chemscore.CHOScore>
0.0000

> <Gold.PLP.Chemscore.Metal>
0.0000

> <Gold.PLP.Chemscore.Internal.Correction>
0.0000

