#       Name:                EN300-21300_i001
#       Creating user name   aseyller
#       Creation time:       Fri Apr 21 18:49:39 2023


#       File generated by GOLD software.
#

@<TRIPOS>MOLECULE
EN300-21300_i001|benzaldehydes|mol2|640|dock12
    14    14     1
SMALL
USER_CHARGES


@<TRIPOS>ATOM
      1 F1          25.6420  37.2926  39.1209 F              1 <1>                0.0000
      2 C2          26.9565  37.0188  38.9713 C.ar           1 <1>                0.0000
      3 C3          27.5821  36.1382  39.8436 C.ar           1 <1>                0.0000
      4 C4          28.9208  35.8538  39.6991 C.ar           1 <1>                0.0000
      5 C5          29.6543  36.4543  38.6683 C.ar           1 <1>                0.0000
      6 C6          31.0828  36.1550  38.5079 C.2            1 <1>                0.0000
      7 O7          31.7341  36.7388  37.6674 O.2            1 <1>                0.0000
      8 C8          29.0174  37.3424  37.7900 C.ar           1 <1>                0.0000
      9 F9          29.7162  37.9265  36.7920 F              1 <1>                0.0000
     10 C10         27.6719  37.6136  37.9449 C.ar           1 <1>                0.0000
     11 H11         27.0162  35.6752  40.6386 H              1 <1>                0.0000
     12 H12         29.4050  35.1689  40.3796 H              1 <1>                0.0000
     13 H13         31.5536  35.4151  39.1381 H              1 <1>                0.0000
     14 H14         27.1786  38.2971  37.2696 H              1 <1>                0.0000
@<TRIPOS>BOND
    1    1    2 1     
    2    2    3 ar    
    3    2   10 ar    
    4    3    4 ar    
    5    3   11 1     
    6    4    5 ar    
    7    4   12 1     
    8    5    6 1     
    9    5    8 ar    
   10    6    7 2     
   11    6   13 1     
   12    8    9 1     
   13    8   10 ar    
   14   10   14 1     
@<TRIPOS>SUBSTRUCTURE
      1 ****           1
@<TRIPOS>COMMENT
> <Gold.Version>
2022.2.0

> <Gold.Id.Protein>
1qkm|1qkm_protein|mol2

> <Gold.Protein.RotatedTorsions>
[  496  491  490  487 ] final  106.98 input  -89.99 | X-H torsion

> <Gold.Protein.ActiveResidues>
 MET295  LEU298  THR299  LEU301  ALA302  GLU305  TRP335  MET336  LEU339  MET340 
 GLY342  LEU343  ARG346  PHE356  ILE373  ILE376  PHE377  LEU380  LYS471  GLY472 
 MET473  HIS475  LEU476  LEU477  ASN478  MET479  VAL484  VAL487 

> <Gold.Protein.RotatedAtoms>
   36.9734   32.9477   41.8037 H   0  0  0  0  0  0  0  0  0  0  0  0  # atno 496  bound_to 491 

> <Gold.Score>
     Score     S(PLP)   S(hbond)     S(cho)   S(metal)  DE(clash)   DE(tors)     intcor
     35.25     -35.26       0.00       0.00       0.00       0.01       0.00       0.00

> <Gold.PLP.Fitness>
35.2480

> <Gold.PLP.PLP>
-35.2647

> <Gold.PLP.part.hbond>
0.0000

> <Gold.PLP.part.metal>
0.0000

> <Gold.PLP.part.buried>
-1.9753

> <Gold.PLP.part.nonpolar>
-33.6214

> <Gold.PLP.part.repulsive>
0.0142

> <Gold.PLP.ligand.clash>
0.0074

> <Gold.PLP.ligand.torsion>
0.0046

> <Gold.PLP.Chemscore.Hbond>
0.0000

> <Gold.PLP.Chemscore.CHOScore>
0.0000

> <Gold.PLP.Chemscore.Metal>
0.0000

> <Gold.PLP.Chemscore.Internal.Correction>
0.0000

