#       Name:                EN300-21300_i001
#       Creating user name   aseyller
#       Creation time:       Fri Apr 21 18:49:40 2023


#       File generated by GOLD software.
#

@<TRIPOS>MOLECULE
EN300-21300_i001|benzaldehydes|mol2|640|dock20
    14    14     1
SMALL
USER_CHARGES


@<TRIPOS>ATOM
      1 F1          25.1848  36.4217  41.4240 F              1 <1>                0.0000
      2 C2          26.2283  36.6136  40.5876 C.ar           1 <1>                0.0000
      3 C3          27.4446  35.9968  40.8481 C.ar           1 <1>                0.0000
      4 C4          28.5131  36.1870  40.0018 C.ar           1 <1>                0.0000
      5 C5          28.3727  37.0051  38.8739 C.ar           1 <1>                0.0000
      6 C6          29.5083  37.2121  37.9664 C.2            1 <1>                0.0000
      7 O7          29.4115  37.9910  37.0417 O.2            1 <1>                0.0000
      8 C8          27.1420  37.6252  38.6154 C.ar           1 <1>                0.0000
      9 F9          26.9963  38.4159  37.5297 F              1 <1>                0.0000
     10 C10         26.0774  37.4202  39.4715 C.ar           1 <1>                0.0000
     11 H11         27.5527  35.3660  41.7180 H              1 <1>                0.0000
     12 H12         29.4582  35.7065  40.2074 H              1 <1>                0.0000
     13 H13         30.4297  36.6707  38.1223 H              1 <1>                0.0000
     14 H14         25.1282  37.8962  39.2747 H              1 <1>                0.0000
@<TRIPOS>BOND
    1    1    2 1     
    2    2    3 ar    
    3    2   10 ar    
    4    3    4 ar    
    5    3   11 1     
    6    4    5 ar    
    7    4   12 1     
    8    5    6 1     
    9    5    8 ar    
   10    6    7 2     
   11    6   13 1     
   12    8    9 1     
   13    8   10 ar    
   14   10   14 1     
@<TRIPOS>SUBSTRUCTURE
      1 ****           1
@<TRIPOS>COMMENT
> <Gold.Version>
2022.2.0

> <Gold.Id.Protein>
1qkm|1qkm_protein|mol2

> <Gold.Protein.RotatedTorsions>
[  496  491  490  487 ] final -173.55 input  -89.99 | X-H torsion

> <Gold.Protein.ActiveResidues>
 MET295  LEU298  THR299  LEU301  ALA302  GLU305  TRP335  MET336  LEU339  MET340 
 GLY342  LEU343  ARG346  PHE356  ILE373  ILE376  PHE377  LEU380  LYS471  GLY472 
 MET473  HIS475  LEU476  LEU477  ASN478  MET479  VAL484  VAL487 

> <Gold.Protein.RotatedAtoms>
   37.3110   33.5556   40.8187 H   0  0  0  0  0  0  0  0  0  0  0  0  # atno 496  bound_to 491 

> <Gold.Score>
     Score     S(PLP)   S(hbond)     S(cho)   S(metal)  DE(clash)   DE(tors)     intcor
     34.71     -34.73       0.00       0.00       0.00       0.00       0.01       0.00

> <Gold.PLP.Fitness>
34.7146

> <Gold.PLP.PLP>
-34.7256

> <Gold.PLP.part.hbond>
0.0000

> <Gold.PLP.part.metal>
0.0000

> <Gold.PLP.part.buried>
0.6063

> <Gold.PLP.part.nonpolar>
-35.2729

> <Gold.PLP.part.repulsive>
0.0000

> <Gold.PLP.ligand.clash>
0.0000

> <Gold.PLP.ligand.torsion>
0.0055

> <Gold.PLP.Chemscore.Hbond>
0.0000

> <Gold.PLP.Chemscore.CHOScore>
0.0000

> <Gold.PLP.Chemscore.Metal>
0.0000

> <Gold.PLP.Chemscore.Internal.Correction>
0.0000

