#       Name:                EN300-21300_i001
#       Creating user name   aseyller
#       Creation time:       Fri Apr 21 18:49:38 2023


#       File generated by GOLD software.
#

@<TRIPOS>MOLECULE
EN300-21300_i001|benzaldehydes|mol2|640|dock9
    14    14     1
SMALL
USER_CHARGES


@<TRIPOS>ATOM
      1 F1          29.4185  38.5027  36.5958 F              1 <1>                0.0000
      2 C2          29.0163  37.8185  37.6892 C.ar           1 <1>                0.0000
      3 C3          29.9590  37.3327  38.5853 C.ar           1 <1>                0.0000
      4 C4          29.5585  36.6344  39.7015 C.ar           1 <1>                0.0000
      5 C5          28.1953  36.4135  39.9342 C.ar           1 <1>                0.0000
      6 C6          27.7607  35.6696  41.1233 C.2            1 <1>                0.0000
      7 O7          28.4981  35.5737  42.0816 O.2            1 <1>                0.0000
      8 C8          27.2476  36.9067  39.0263 C.ar           1 <1>                0.0000
      9 F9          25.9301  36.6992  39.2421 F              1 <1>                0.0000
     10 C10         27.6652  37.6103  37.9133 C.ar           1 <1>                0.0000
     11 H11         31.0102  37.5032  38.4056 H              1 <1>                0.0000
     12 H12         30.2940  36.2571  40.3964 H              1 <1>                0.0000
     13 H13         26.7847  35.2077  41.1445 H              1 <1>                0.0000
     14 H14         26.9374  37.9916  37.2124 H              1 <1>                0.0000
@<TRIPOS>BOND
    1    1    2 1     
    2    2    3 ar    
    3    2   10 ar    
    4    3    4 ar    
    5    3   11 1     
    6    4    5 ar    
    7    4   12 1     
    8    5    6 1     
    9    5    8 ar    
   10    6    7 2     
   11    6   13 1     
   12    8    9 1     
   13    8   10 ar    
   14   10   14 1     
@<TRIPOS>SUBSTRUCTURE
      1 ****           1
@<TRIPOS>COMMENT
> <Gold.Version>
2022.2.0

> <Gold.Id.Protein>
1qkm|1qkm_protein|mol2

> <Gold.Protein.RotatedTorsions>
[  496  491  490  487 ] final   34.36 input  -89.99 | X-H torsion

> <Gold.Protein.ActiveResidues>
 MET295  LEU298  THR299  LEU301  ALA302  GLU305  TRP335  MET336  LEU339  MET340 
 GLY342  LEU343  ARG346  PHE356  ILE373  ILE376  PHE377  LEU380  LYS471  GLY472 
 MET473  HIS475  LEU476  LEU477  ASN478  MET479  VAL484  VAL487 

> <Gold.Protein.RotatedAtoms>
   36.3698   33.6877   42.3833 H   0  0  0  0  0  0  0  0  0  0  0  0  # atno 496  bound_to 491 

> <Gold.Score>
     Score     S(PLP)   S(hbond)     S(cho)   S(metal)  DE(clash)   DE(tors)     intcor
     36.81     -37.00       0.00       0.00       0.00       0.00       0.10       0.00

> <Gold.PLP.Fitness>
36.8103

> <Gold.PLP.PLP>
-37.0012

> <Gold.PLP.part.hbond>
-0.2572

> <Gold.PLP.part.metal>
0.0000

> <Gold.PLP.part.buried>
-2.4261

> <Gold.PLP.part.nonpolar>
-34.7361

> <Gold.PLP.part.repulsive>
0.2615

> <Gold.PLP.ligand.clash>
0.0000

> <Gold.PLP.ligand.torsion>
0.0955

> <Gold.PLP.Chemscore.Hbond>
0.0000

> <Gold.PLP.Chemscore.CHOScore>
0.0000

> <Gold.PLP.Chemscore.Metal>
0.0000

> <Gold.PLP.Chemscore.Internal.Correction>
0.0000

