#       Name:                EN300-21300_i001
#       Creating user name   aseyller
#       Creation time:       Fri Apr 21 18:49:39 2023


#       File generated by GOLD software.
#

@<TRIPOS>MOLECULE
EN300-21300_i001|benzaldehydes|mol2|640|dock15
    14    14     1
SMALL
USER_CHARGES


@<TRIPOS>ATOM
      1 F1          31.3633  36.3710  38.2027 F              1 <1>                0.0000
      2 C2          30.0497  36.5267  38.4773 C.ar           1 <1>                0.0000
      3 C3          29.2125  37.1129  37.5375 C.ar           1 <1>                0.0000
      4 C4          27.8731  37.2758  37.8087 C.ar           1 <1>                0.0000
      5 C5          27.3530  36.8485  39.0368 C.ar           1 <1>                0.0000
      6 C6          25.9250  37.0188  39.3327 C.2            1 <1>                0.0000
      7 O7          25.5307  36.9518  40.4779 O.2            1 <1>                0.0000
      8 C8          28.2029  36.2568  39.9820 C.ar           1 <1>                0.0000
      9 F9          27.7107  35.8407  41.1694 F              1 <1>                0.0000
     10 C10         29.5439  36.0954  39.6927 C.ar           1 <1>                0.0000
     11 H11         29.6138  37.4424  36.5905 H              1 <1>                0.0000
     12 H12         27.2244  37.7328  37.0760 H              1 <1>                0.0000
     13 H13         25.2255  37.2034  38.5307 H              1 <1>                0.0000
     14 H14         30.2008  35.6396  40.4187 H              1 <1>                0.0000
@<TRIPOS>BOND
    1    1    2 1     
    2    2    3 ar    
    3    2   10 ar    
    4    3    4 ar    
    5    3   11 1     
    6    4    5 ar    
    7    4   12 1     
    8    5    6 1     
    9    5    8 ar    
   10    6    7 2     
   11    6   13 1     
   12    8    9 1     
   13    8   10 ar    
   14   10   14 1     
@<TRIPOS>SUBSTRUCTURE
      1 ****           1
@<TRIPOS>COMMENT
> <Gold.Version>
2022.2.0

> <Gold.Id.Protein>
1qkm|1qkm_protein|mol2

> <Gold.Protein.RotatedTorsions>
[  496  491  490  487 ] final   65.96 input  -89.99 | X-H torsion

> <Gold.Protein.ActiveResidues>
 MET295  LEU298  THR299  LEU301  ALA302  GLU305  TRP335  MET336  LEU339  MET340 
 GLY342  LEU343  ARG346  PHE356  ILE373  ILE376  PHE377  LEU380  LYS471  GLY472 
 MET473  HIS475  LEU476  LEU477  ASN478  MET479  VAL484  VAL487 

> <Gold.Protein.RotatedAtoms>
   36.6020   33.2459   42.2620 H   0  0  0  0  0  0  0  0  0  0  0  0  # atno 496  bound_to 491 

> <Gold.Score>
     Score     S(PLP)   S(hbond)     S(cho)   S(metal)  DE(clash)   DE(tors)     intcor
     36.07     -36.21       0.00       0.00       0.00       0.00       0.07       0.00

> <Gold.PLP.Fitness>
36.0728

> <Gold.PLP.PLP>
-36.2070

> <Gold.PLP.part.hbond>
0.0000

> <Gold.PLP.part.metal>
0.0000

> <Gold.PLP.part.buried>
-2.7224

> <Gold.PLP.part.nonpolar>
-34.2998

> <Gold.PLP.part.repulsive>
0.1387

> <Gold.PLP.ligand.clash>
0.0000

> <Gold.PLP.ligand.torsion>
0.0671

> <Gold.PLP.Chemscore.Hbond>
0.0000

> <Gold.PLP.Chemscore.CHOScore>
0.0000

> <Gold.PLP.Chemscore.Metal>
0.0000

> <Gold.PLP.Chemscore.Internal.Correction>
0.0000

