#       Name:                EN300-21300_i001
#       Creating user name   aseyller
#       Creation time:       Fri Apr 21 18:49:37 2023


#       File generated by GOLD software.
#

@<TRIPOS>MOLECULE
EN300-21300_i001|benzaldehydes|mol2|640|dock3
    14    14     1
SMALL
USER_CHARGES


@<TRIPOS>ATOM
      1 F1          29.1708  37.0882  37.1538 F              1 <1>                0.0000
      2 C2          28.3641  37.0577  38.2370 C.ar           1 <1>                0.0000
      3 C3          27.0136  37.3498  38.1007 C.ar           1 <1>                0.0000
      4 C4          26.1844  37.3217  39.1987 C.ar           1 <1>                0.0000
      5 C5          26.7047  36.9968  40.4577 C.ar           1 <1>                0.0000
      6 C6          25.8258  36.9643  41.6334 C.2            1 <1>                0.0000
      7 O7          24.7100  36.4971  41.5438 O.2            1 <1>                0.0000
      8 C8          28.0691  36.7022  40.5895 C.ar           1 <1>                0.0000
      9 F9          28.5806  36.3871  41.7996 F              1 <1>                0.0000
     10 C10         28.8874  36.7296  39.4770 C.ar           1 <1>                0.0000
     11 H11         26.6125  37.6004  37.1297 H              1 <1>                0.0000
     12 H12         25.1345  37.5501  39.0898 H              1 <1>                0.0000
     13 H13         26.1727  37.3567  42.5780 H              1 <1>                0.0000
     14 H14         29.9387  36.5027  39.5755 H              1 <1>                0.0000
@<TRIPOS>BOND
    1    1    2 1     
    2    2    3 ar    
    3    2   10 ar    
    4    3    4 ar    
    5    3   11 1     
    6    4    5 ar    
    7    4   12 1     
    8    5    6 1     
    9    5    8 ar    
   10    6    7 2     
   11    6   13 1     
   12    8    9 1     
   13    8   10 ar    
   14   10   14 1     
@<TRIPOS>SUBSTRUCTURE
      1 ****           1
@<TRIPOS>COMMENT
> <Gold.Version>
2022.2.0

> <Gold.Id.Protein>
1qkm|1qkm_protein|mol2

> <Gold.Protein.RotatedTorsions>
[  496  491  490  487 ] final  -75.14 input  -89.99 | X-H torsion

> <Gold.Protein.ActiveResidues>
 MET295  LEU298  THR299  LEU301  ALA302  GLU305  TRP335  MET336  LEU339  MET340 
 GLY342  LEU343  ARG346  PHE356  ILE373  ILE376  PHE377  LEU380  LYS471  GLY472 
 MET473  HIS475  LEU476  LEU477  ASN478  MET479  VAL484  VAL487 

> <Gold.Protein.RotatedAtoms>
   36.6227   34.7225   41.2706 H   0  0  0  0  0  0  0  0  0  0  0  0  # atno 496  bound_to 491 

> <Gold.Score>
     Score     S(PLP)   S(hbond)     S(cho)   S(metal)  DE(clash)   DE(tors)     intcor
     38.99     -37.32       0.77       0.00       0.00       0.00       0.32       0.00

> <Gold.PLP.Fitness>
38.9943

> <Gold.PLP.PLP>
-37.3205

> <Gold.PLP.part.hbond>
-1.0000

> <Gold.PLP.part.metal>
0.0000

> <Gold.PLP.part.buried>
-1.9345

> <Gold.PLP.part.nonpolar>
-36.6848

> <Gold.PLP.part.repulsive>
1.9547

> <Gold.PLP.ligand.clash>
0.0000

> <Gold.PLP.ligand.torsion>
0.3151

> <Gold.PLP.Chemscore.Hbond>
0.7680

> <Gold.PLP.Chemscore.CHOScore>
0.0000

> <Gold.PLP.Chemscore.Metal>
0.0000

> <Gold.Chemscore.Hbonds>
donor molecule, donor type, donor heavy atom, donor atom, acceptor molecule, acceptor atom, score
      P1  H  1258  1270       L1     7  0.77

> <Gold.PLP.Chemscore.Internal.Correction>
0.0000

