#       Name:                EN300-21300_i001
#       Creating user name   aseyller
#       Creation time:       Fri Apr 21 18:49:37 2023


#       File generated by GOLD software.
#

@<TRIPOS>MOLECULE
EN300-21300_i001|benzaldehydes|mol2|640|dock7
    14    14     1
SMALL
USER_CHARGES


@<TRIPOS>ATOM
      1 F1          30.1234  37.0068  38.1128 F              1 <1>                0.0000
      2 C2          29.1066  36.8881  38.9944 C.ar           1 <1>                0.0000
      3 C3          29.3663  36.4877  40.2983 C.ar           1 <1>                0.0000
      4 C4          28.3367  36.3637  41.2030 C.ar           1 <1>                0.0000
      5 C5          27.0227  36.6428  40.8071 C.ar           1 <1>                0.0000
      6 C6          25.9194  36.5131  41.7672 C.2            1 <1>                0.0000
      7 O7          24.9452  37.2294  41.6719 O.2            1 <1>                0.0000
      8 C8          26.7663  37.0472  39.4894 C.ar           1 <1>                0.0000
      9 F9          25.5021  37.3193  39.0977 F              1 <1>                0.0000
     10 C10         27.8111  37.1721  38.5944 C.ar           1 <1>                0.0000
     11 H11         30.3798  36.2725  40.6033 H              1 <1>                0.0000
     12 H12         28.5417  36.0514  42.2163 H              1 <1>                0.0000
     13 H13         25.9754  35.7800  42.5584 H              1 <1>                0.0000
     14 H14         27.6165  37.4837  37.5788 H              1 <1>                0.0000
@<TRIPOS>BOND
    1    1    2 1     
    2    2    3 ar    
    3    2   10 ar    
    4    3    4 ar    
    5    3   11 1     
    6    4    5 ar    
    7    4   12 1     
    8    5    6 1     
    9    5    8 ar    
   10    6    7 2     
   11    6   13 1     
   12    8    9 1     
   13    8   10 ar    
   14   10   14 1     
@<TRIPOS>SUBSTRUCTURE
      1 ****           1
@<TRIPOS>COMMENT
> <Gold.Version>
2022.2.0

> <Gold.Id.Protein>
1qkm|1qkm_protein|mol2

> <Gold.Protein.RotatedTorsions>
[  496  491  490  487 ] final  -83.90 input  -89.99 | X-H torsion

> <Gold.Protein.ActiveResidues>
 MET295  LEU298  THR299  LEU301  ALA302  GLU305  TRP335  MET336  LEU339  MET340 
 GLY342  LEU343  ARG346  PHE356  ILE373  ILE376  PHE377  LEU380  LYS471  GLY472 
 MET473  HIS475  LEU476  LEU477  ASN478  MET479  VAL484  VAL487 

> <Gold.Protein.RotatedAtoms>
   36.7012   34.6887   41.1547 H   0  0  0  0  0  0  0  0  0  0  0  0  # atno 496  bound_to 491 

> <Gold.Score>
     Score     S(PLP)   S(hbond)     S(cho)   S(metal)  DE(clash)   DE(tors)     intcor
     38.83     -38.26       0.32       0.00       0.00       0.00       0.20       0.00

> <Gold.PLP.Fitness>
38.8262

> <Gold.PLP.PLP>
-38.2640

> <Gold.PLP.part.hbond>
-1.0000

> <Gold.PLP.part.metal>
0.0000

> <Gold.PLP.part.buried>
-0.1816

> <Gold.PLP.part.nonpolar>
-38.2660

> <Gold.PLP.part.repulsive>
0.2497

> <Gold.PLP.ligand.clash>
0.0000

> <Gold.PLP.ligand.torsion>
0.1989

> <Gold.PLP.Chemscore.Hbond>
0.3200

> <Gold.PLP.Chemscore.CHOScore>
0.0000

> <Gold.PLP.Chemscore.Metal>
0.0000

> <Gold.Chemscore.Hbonds>
donor molecule, donor type, donor heavy atom, donor atom, acceptor molecule, acceptor atom, score
      P1  H  1258  1270       L1     7  0.32

> <Gold.PLP.Chemscore.Internal.Correction>
0.0000

