#       Name:                plp ligand
#       Creating user name   aseyller
#       Creation time:       Fri Apr 21 18:49:36 2023


#       File generated by GOLD software.
#

@<TRIPOS>MOLECULE
plp ligand
    14    14     1
SMALL
USER_CHARGES


@<TRIPOS>ATOM
      1 F1          -3.1549  -0.7371  -0.0017 NONPOLAR       1 <1>                0.0000
      2 C2          -1.8414  -0.4209  -0.0013 NONPOLAR       1 <1>                0.0000
      3 C3          -1.4519   0.9117  -0.0002 NONPOLAR       1 <1>                0.0000
      4 C4          -0.1162   1.2431  -0.0002 NONPOLAR       1 <1>                0.0000
      5 C5           0.8533   0.2326  -0.0008 NONPOLAR       1 <1>                0.0000
      6 C6           2.2802   0.5789  -0.0003 NONPOLAR       1 <1>                0.0000
      7 O7           3.1173  -0.2989  -0.0007 ACCEPTOR       1 <1>                0.0000
      8 C8           0.4544  -1.1115  -0.0014 NONPOLAR       1 <1>                0.0000
      9 F9           1.3820  -2.0938  -0.0015 NONPOLAR       1 <1>                0.0000
     10 C10         -0.8902  -1.4280   0.0039 NONPOLAR       1 <1>                0.0000
     11 H11         -2.1998   1.6909   0.0002                1 <1>                0.0000
     12 H12          0.1838   2.2807  -0.0001                1 <1>                0.0000
     13 H13          2.5844   1.6152   0.0006                1 <1>                0.0000
     14 H14         -1.2004  -2.4625   0.0038                1 <1>                0.0000
@<TRIPOS>BOND
    1    1    2 1     
    2    2    3 ar    
    3    2   10 ar    
    4    3    4 ar    
    5    3   11 1     
    6    4    5 ar    
    7    4   12 1     
    8    5    6 1     
    9    5    8 ar    
   10    6    7 2     
   11    6   13 1     
   12    8    9 1     
   13    8   10 ar    
   14   10   14 1     
@<TRIPOS>SUBSTRUCTURE
      1 ****           1
@<TRIPOS>SET
DONOR_HYDROGENS      STATIC     ATOMS    <user>   **** ""
0
ATOM$RED        STATIC     ATOMS    COLORGROUP SYSTEM
0
