#       Name:                EN300-28312681_i001
#       Creating user name   aseyller
#       Creation time:       Sat Apr 22 05:58:52 2023


#       File generated by GOLD software.
#

@<TRIPOS>MOLECULE
EN300-28312681_i001|amine_3|mol2|3604|dock15
    27    28     1
SMALL
USER_CHARGES


@<TRIPOS>ATOM
      1 C1          32.6816  37.8973  34.0118 C.3            1 <1>                0.0000
      2 O2          32.1200  37.3243  35.2220 O.3            1 <1>                0.0000
      3 C3          31.1237  38.0091  35.8181 C.2            1 <1>                0.0000
      4 O4          30.7696  39.0809  35.3685 O.2            1 <1>                0.0000
      5 C5          30.4640  37.4579  37.0150 C.2            1 <1>                0.0000
      6 C6          29.4009  37.9950  37.6896 C.2            1 <1>                0.0000
      7 C7          29.1709  37.0803  38.7411 C.2            1 <1>                0.0000
      8 N8          30.0577  36.1366  38.6136 N.2            1 <1>                0.0000
      9 O9          30.7813  36.3207  37.6628 O.3            1 <1>                0.0000
     10 C10         28.1065  37.1784  39.8035 C.3            1 <1>                0.0000
     11 C11         28.1740  35.9467  40.7101 C.3            1 <1>                0.0000
     12 N12         27.0855  36.0101  41.6962 N.3            1 <1>                0.0000
     13 C13         25.7785  36.0716  41.0259 C.3            1 <1>                0.0000
     14 C14         25.7350  37.3022  40.1162 C.3            1 <1>                0.0000
     15 O15         26.8185  37.2388  39.1849 O.3            1 <1>                0.0000
     16 H16         33.4721  37.2481  33.6354 H              1 <1>                0.0000
     17 H17         31.9000  37.9926  33.2582 H              1 <1>                0.0000
     18 H18         33.0945  38.8815  34.2335 H              1 <1>                0.0000
     19 H19         28.8638  38.9058  37.4696 H              1 <1>                0.0000
     20 H20         28.2679  38.0775  40.3983 H              1 <1>                0.0000
     21 H21         28.0671  35.0448  40.1073 H              1 <1>                0.0000
     22 H22         29.1332  35.9276  41.2276 H              1 <1>                0.0000
     23 H23         25.6331  35.1718  40.4283 H              1 <1>                0.0000
     24 H24         24.9889  36.1439  41.7740 H              1 <1>                0.0000
     25 H25         24.7896  37.3207  39.5739 H              1 <1>                0.0000
     26 H26         25.8266  38.2048  40.7203 H              1 <1>                0.0000
     27 H27         27.1287  35.2289  42.3333 H              1 <1>                0.0000
@<TRIPOS>BOND
    1    1    2 1     
    2    1   16 1     
    3    1   17 1     
    4    1   18 1     
    5    2    3 1     
    6    3    4 2     
    7    3    5 1     
    8    5    6 2     
    9    5    9 1     
   10    6    7 1     
   11    6   19 1     
   12    7    8 2     
   13    7   10 1     
   14    8    9 1     
   15   10   11 1     
   16   10   15 1     
   17   10   20 1     
   18   11   12 1     
   19   11   21 1     
   20   11   22 1     
   21   12   13 1     
   22   12   27 1     
   23   13   14 1     
   24   13   23 1     
   25   13   24 1     
   26   14   15 1     
   27   14   25 1     
   28   14   26 1     
@<TRIPOS>SUBSTRUCTURE
      1 ****           1
@<TRIPOS>SET
DONOR_HYDROGENS      STATIC     ATOMS    <user>   **** ""
1 27
ATOM$RED        STATIC     ATOMS    COLORGROUP SYSTEM
1 27
@<TRIPOS>COMMENT
> <Gold.Version>
2022.2.0

> <Gold.Id.Protein>
1qkm|1qkm_protein|mol2

> <Gold.Protein.RotatedTorsions>
[  496  491  490  487 ] final   86.18 input  -89.99 | X-H torsion

> <Gold.Protein.ActiveResidues>
 MET295  LEU298  THR299  LEU301  ALA302  GLU305  TRP335  MET336  LEU339  MET340 
 GLY342  LEU343  ARG346  PHE356  ILE373  ILE376  PHE377  LEU380  LYS471  GLY472 
 MET473  HIS475  LEU476  LEU477  ASN478  MET479  VAL484  VAL487 

> <Gold.Protein.RotatedAtoms>
   36.7849   33.0488   42.0688 H   0  0  0  0  0  0  0  0  0  0  0  0  # atno 496  bound_to 491 

> <Gold.Score>
     Score     S(PLP)   S(hbond)     S(cho)   S(metal)  DE(clash)   DE(tors)     intcor
     38.63     -36.42       0.75       0.00       0.00       0.00       0.02       0.00

> <Gold.PLP.Fitness>
38.6288

> <Gold.PLP.PLP>
-36.4202

> <Gold.PLP.part.hbond>
-1.0000

> <Gold.PLP.part.metal>
0.0000

> <Gold.PLP.part.buried>
-4.1610

> <Gold.PLP.part.nonpolar>
-31.3801

> <Gold.PLP.part.repulsive>
0.1813

> <Gold.PLP.ligand.clash>
0.0000

> <Gold.PLP.ligand.torsion>
0.0238

> <Gold.PLP.Chemscore.Hbond>
0.7520

> <Gold.PLP.Chemscore.CHOScore>
0.0000

> <Gold.PLP.Chemscore.Metal>
0.0000

> <Gold.Chemscore.Hbonds>
donor molecule, donor type, donor heavy atom, donor atom, acceptor molecule, acceptor atom, score
      L1  H    12    27       P1   582  0.75

> <Gold.PLP.Chemscore.Internal.Correction>
0.0002

