#       Name:                EN300-28312681_i001
#       Creating user name   aseyller
#       Creation time:       Sat Apr 22 05:58:48 2023


#       File generated by GOLD software.
#

@<TRIPOS>MOLECULE
EN300-28312681_i001|amine_3|mol2|3604|dock9
    27    28     1
SMALL
USER_CHARGES


@<TRIPOS>ATOM
      1 C1          25.8107  36.9971  41.3691 C.3            1 <1>                0.0000
      2 O2          26.7814  36.9430  40.2906 O.3            1 <1>                0.0000
      3 C3          28.0231  36.5235  40.6053 C.2            1 <1>                0.0000
      4 O4          28.3044  36.2706  41.7600 O.2            1 <1>                0.0000
      5 C5          29.0395  36.3717  39.5491 C.2            1 <1>                0.0000
      6 C6          29.0073  36.9129  38.2922 C.2            1 <1>                0.0000
      7 C7          30.2078  36.4625  37.6995 C.2            1 <1>                0.0000
      8 N8          30.8151  35.7383  38.5940 N.2            1 <1>                0.0000
      9 O9          30.1907  35.6774  39.6274 O.3            1 <1>                0.0000
     10 C10         30.6908  36.7619  36.3037 C.3            1 <1>                0.0000
     11 C11         32.0377  36.0727  36.0700 C.3            1 <1>                0.0000
     12 N12         32.5405  36.4306  34.7356 N.3            1 <1>                0.0000
     13 C13         32.6910  37.8876  34.6094 C.3            1 <1>                0.0000
     14 C14         31.3376  38.5586  34.8578 C.3            1 <1>                0.0000
     15 O15         30.8500  38.1744  36.1462 O.3            1 <1>                0.0000
     16 H16         24.8554  37.3501  40.9806 H              1 <1>                0.0000
     17 H17         25.6845  36.0016  41.7946 H              1 <1>                0.0000
     18 H18         26.1637  37.6804  42.1416 H              1 <1>                0.0000
     19 H19         28.2424  37.5378  37.8554 H              1 <1>                0.0000
     20 H20         29.9633  36.3939  35.5802 H              1 <1>                0.0000
     21 H21         32.7502  36.3998  36.8273 H              1 <1>                0.0000
     22 H22         31.9094  34.9920  36.1327 H              1 <1>                0.0000
     23 H23         33.4140  38.2438  35.3433 H              1 <1>                0.0000
     24 H24         33.0397  38.1319  33.6059 H              1 <1>                0.0000
     25 H25         31.4560  39.6415  34.8216 H              1 <1>                0.0000
     26 H26         30.6291  38.2435  34.0917 H              1 <1>                0.0000
     27 H27         33.4102  35.9588  34.5383 H              1 <1>                0.0000
@<TRIPOS>BOND
    1    1    2 1     
    2    1   16 1     
    3    1   17 1     
    4    1   18 1     
    5    2    3 1     
    6    3    4 2     
    7    3    5 1     
    8    5    6 2     
    9    5    9 1     
   10    6    7 1     
   11    6   19 1     
   12    7    8 2     
   13    7   10 1     
   14    8    9 1     
   15   10   11 1     
   16   10   15 1     
   17   10   20 1     
   18   11   12 1     
   19   11   21 1     
   20   11   22 1     
   21   12   13 1     
   22   12   27 1     
   23   13   14 1     
   24   13   23 1     
   25   13   24 1     
   26   14   15 1     
   27   14   25 1     
   28   14   26 1     
@<TRIPOS>SUBSTRUCTURE
      1 ****           1
@<TRIPOS>SET
DONOR_HYDROGENS      STATIC     ATOMS    <user>   **** ""
1 27
ATOM$RED        STATIC     ATOMS    COLORGROUP SYSTEM
1 27
@<TRIPOS>COMMENT
> <Gold.Version>
2022.2.0

> <Gold.Id.Protein>
1qkm|1qkm_protein|mol2

> <Gold.Protein.RotatedTorsions>
[  496  491  490  487 ] final   66.90 input  -89.99 | X-H torsion

> <Gold.Protein.ActiveResidues>
 MET295  LEU298  THR299  LEU301  ALA302  GLU305  TRP335  MET336  LEU339  MET340 
 GLY342  LEU343  ARG346  PHE356  ILE373  ILE376  PHE377  LEU380  LYS471  GLY472 
 MET473  HIS475  LEU476  LEU477  ASN478  MET479  VAL484  VAL487 

> <Gold.Protein.RotatedAtoms>
   36.6101   33.2349   42.2548 H   0  0  0  0  0  0  0  0  0  0  0  0  # atno 496  bound_to 491 

> <Gold.Score>
     Score     S(PLP)   S(hbond)     S(cho)   S(metal)  DE(clash)   DE(tors)     intcor
     39.83     -40.12       0.00       0.00       0.00       0.00       0.15       0.00

> <Gold.PLP.Fitness>
39.8253

> <Gold.PLP.PLP>
-40.1161

> <Gold.PLP.part.hbond>
-0.7775

> <Gold.PLP.part.metal>
0.0000

> <Gold.PLP.part.buried>
-7.5118

> <Gold.PLP.part.nonpolar>
-33.2075

> <Gold.PLP.part.repulsive>
1.2376

> <Gold.PLP.ligand.clash>
0.0000

> <Gold.PLP.ligand.torsion>
0.1460

> <Gold.PLP.Chemscore.Hbond>
0.0000

> <Gold.PLP.Chemscore.CHOScore>
0.0000

> <Gold.PLP.Chemscore.Metal>
0.0000

> <Gold.PLP.Chemscore.Internal.Correction>
0.0011

