#       Name:                EN300-28312681_i001
#       Creating user name   aseyller
#       Creation time:       Sat Apr 22 05:58:50 2023


#       File generated by GOLD software.
#

@<TRIPOS>MOLECULE
EN300-28312681_i001|amine_3|mol2|3604|dock13
    27    28     1
SMALL
USER_CHARGES


@<TRIPOS>ATOM
      1 C1          33.7380  36.4007  35.2006 C.3            1 <1>                0.0000
      2 O2          32.3480  36.5566  35.5903 O.3            1 <1>                0.0000
      3 C3          32.0616  36.4266  36.9010 C.2            1 <1>                0.0000
      4 O4          32.9294  36.0897  37.6819 O.2            1 <1>                0.0000
      5 C5          30.6961  36.6930  37.3870 C.2            1 <1>                0.0000
      6 C6          30.2738  36.7050  38.6889 C.2            1 <1>                0.0000
      7 C7          28.8977  37.0100  38.5949 C.2            1 <1>                0.0000
      8 N8          28.6326  37.1454  37.3281 N.2            1 <1>                0.0000
      9 O9          29.6127  36.9796  36.6402 O.3            1 <1>                0.0000
     10 C10         27.9262  37.1508  39.7384 C.3            1 <1>                0.0000
     11 C11         27.9864  35.8988  40.6174 C.3            1 <1>                0.0000
     12 N12         26.9828  36.0079  41.6862 N.3            1 <1>                0.0000
     13 C13         25.6346  36.1627  41.1208 C.3            1 <1>                0.0000
     14 C14         25.5980  37.4120  40.2368 C.3            1 <1>                0.0000
     15 O15         26.6008  37.3021  39.2231 O.3            1 <1>                0.0000
     16 H16         33.8295  36.5292  34.1221 H              1 <1>                0.0000
     17 H17         34.3441  37.1507  35.7086 H              1 <1>                0.0000
     18 H18         34.0837  35.4050  35.4786 H              1 <1>                0.0000
     19 H19         30.8563  36.5233  39.5799 H              1 <1>                0.0000
     20 H20         28.1884  38.0259  40.3331 H              1 <1>                0.0000
     21 H21         27.7775  35.0177  40.0106 H              1 <1>                0.0000
     22 H22         28.9794  35.8108  41.0582 H              1 <1>                0.0000
     23 H23         25.3880  35.2858  40.5221 H              1 <1>                0.0000
     24 H24         24.9108  36.2674  41.9291 H              1 <1>                0.0000
     25 H25         24.6168  37.4993  39.7703 H              1 <1>                0.0000
     26 H26         25.7917  38.2948  40.8462 H              1 <1>                0.0000
     27 H27         27.0261  35.2126  42.3055 H              1 <1>                0.0000
@<TRIPOS>BOND
    1    1    2 1     
    2    1   16 1     
    3    1   17 1     
    4    1   18 1     
    5    2    3 1     
    6    3    4 2     
    7    3    5 1     
    8    5    6 2     
    9    5    9 1     
   10    6    7 1     
   11    6   19 1     
   12    7    8 2     
   13    7   10 1     
   14    8    9 1     
   15   10   11 1     
   16   10   15 1     
   17   10   20 1     
   18   11   12 1     
   19   11   21 1     
   20   11   22 1     
   21   12   13 1     
   22   12   27 1     
   23   13   14 1     
   24   13   23 1     
   25   13   24 1     
   26   14   15 1     
   27   14   25 1     
   28   14   26 1     
@<TRIPOS>SUBSTRUCTURE
      1 ****           1
@<TRIPOS>SET
DONOR_HYDROGENS      STATIC     ATOMS    <user>   **** ""
1 27
ATOM$RED        STATIC     ATOMS    COLORGROUP SYSTEM
1 27
@<TRIPOS>COMMENT
> <Gold.Version>
2022.2.0

> <Gold.Id.Protein>
1qkm|1qkm_protein|mol2

> <Gold.Protein.RotatedTorsions>
[  496  491  490  487 ] final   48.59 input  -89.99 | X-H torsion

> <Gold.Protein.ActiveResidues>
 MET295  LEU298  THR299  LEU301  ALA302  GLU305  TRP335  MET336  LEU339  MET340 
 GLY342  LEU343  ARG346  PHE356  ILE373  ILE376  PHE377  LEU380  LYS471  GLY472 
 MET473  HIS475  LEU476  LEU477  ASN478  MET479  VAL484  VAL487 

> <Gold.Protein.RotatedAtoms>
   36.4624   33.4746   42.3587 H   0  0  0  0  0  0  0  0  0  0  0  0  # atno 496  bound_to 491 

> <Gold.Score>
     Score     S(PLP)   S(hbond)     S(cho)   S(metal)  DE(clash)   DE(tors)     intcor
     39.29     -37.25       0.77       0.00       0.00       0.00       0.13       0.00

> <Gold.PLP.Fitness>
39.2888

> <Gold.PLP.PLP>
-37.2523

> <Gold.PLP.part.hbond>
-1.0000

> <Gold.PLP.part.metal>
0.0000

> <Gold.PLP.part.buried>
-5.8341

> <Gold.PLP.part.nonpolar>
-30.6098

> <Gold.PLP.part.repulsive>
0.1279

> <Gold.PLP.ligand.clash>
0.0000

> <Gold.PLP.ligand.torsion>
0.1338

> <Gold.PLP.Chemscore.Hbond>
0.7680

> <Gold.PLP.Chemscore.CHOScore>
0.0000

> <Gold.PLP.Chemscore.Metal>
0.0000

> <Gold.Chemscore.Hbonds>
donor molecule, donor type, donor heavy atom, donor atom, acceptor molecule, acceptor atom, score
      L1  H    12    27       P1   582  0.77

> <Gold.PLP.Chemscore.Internal.Correction>
0.0002

