#       Name:                EN300-28312681_i001
#       Creating user name   aseyller
#       Creation time:       Sat Apr 22 05:58:49 2023


#       File generated by GOLD software.
#

@<TRIPOS>MOLECULE
EN300-28312681_i001|amine_3|mol2|3604|dock10
    27    28     1
SMALL
USER_CHARGES


@<TRIPOS>ATOM
      1 C1          32.6676  37.6450  34.6390 C.3            1 <1>                0.0000
      2 O2          31.6764  37.3852  35.6678 O.3            1 <1>                0.0000
      3 C3          32.0388  36.5641  36.6733 C.2            1 <1>                0.0000
      4 O4          33.1809  36.1553  36.7422 O.2            1 <1>                0.0000
      5 C5          31.0498  36.1619  37.6892 C.2            1 <1>                0.0000
      6 C6          29.7329  36.5309  37.7469 C.2            1 <1>                0.0000
      7 C7          29.2484  35.8748  38.9003 C.2            1 <1>                0.0000
      8 N8          30.2512  35.2132  39.4005 N.2            1 <1>                0.0000
      9 O9          31.2574  35.3523  38.7451 O.3            1 <1>                0.0000
     10 C10         27.8445  35.9305  39.4453 C.3            1 <1>                0.0000
     11 C11         26.9658  36.7656  38.5103 C.3            1 <1>                0.0000
     12 N12         25.6179  36.8808  39.0859 N.3            1 <1>                0.0000
     13 C13         25.6714  37.5030  40.4168 C.3            1 <1>                0.0000
     14 C14         26.5631  36.6606  41.3327 C.3            1 <1>                0.0000
     15 O15         27.8594  36.5333  40.7421 O.3            1 <1>                0.0000
     16 H16         32.2480  38.3190  33.8922 H              1 <1>                0.0000
     17 H17         33.5473  38.1043  35.0897 H              1 <1>                0.0000
     18 H18         32.9514  36.7064  34.1628 H              1 <1>                0.0000
     19 H19         29.1909  37.1739  37.0693 H              1 <1>                0.0000
     20 H20         27.4418  34.9202  39.5174 H              1 <1>                0.0000
     21 H21         27.3986  37.7593  38.3952 H              1 <1>                0.0000
     22 H22         26.9054  36.2792  37.5366 H              1 <1>                0.0000
     23 H23         26.0834  38.5086  40.3322 H              1 <1>                0.0000
     24 H24         24.6660  37.5550  40.8348 H              1 <1>                0.0000
     25 H25         26.6516  37.1483  42.3035 H              1 <1>                0.0000
     26 H26         26.1226  35.6717  41.4603 H              1 <1>                0.0000
     27 H27         25.0048  37.3944  38.4708 H              1 <1>                0.0000
@<TRIPOS>BOND
    1    1    2 1     
    2    1   16 1     
    3    1   17 1     
    4    1   18 1     
    5    2    3 1     
    6    3    4 2     
    7    3    5 1     
    8    5    6 2     
    9    5    9 1     
   10    6    7 1     
   11    6   19 1     
   12    7    8 2     
   13    7   10 1     
   14    8    9 1     
   15   10   11 1     
   16   10   15 1     
   17   10   20 1     
   18   11   12 1     
   19   11   21 1     
   20   11   22 1     
   21   12   13 1     
   22   12   27 1     
   23   13   14 1     
   24   13   23 1     
   25   13   24 1     
   26   14   15 1     
   27   14   25 1     
   28   14   26 1     
@<TRIPOS>SUBSTRUCTURE
      1 ****           1
@<TRIPOS>SET
DONOR_HYDROGENS      STATIC     ATOMS    <user>   **** ""
1 27
ATOM$RED        STATIC     ATOMS    COLORGROUP SYSTEM
1 27
@<TRIPOS>COMMENT
> <Gold.Version>
2022.2.0

> <Gold.Id.Protein>
1qkm|1qkm_protein|mol2

> <Gold.Protein.RotatedTorsions>
[  496  491  490  487 ] final -112.11 input  -89.99 | X-H torsion

> <Gold.Protein.ActiveResidues>
 MET295  LEU298  THR299  LEU301  ALA302  GLU305  TRP335  MET336  LEU339  MET340 
 GLY342  LEU343  ARG346  PHE356  ILE373  ILE376  PHE377  LEU380  LYS471  GLY472 
 MET473  HIS475  LEU476  LEU477  ASN478  MET479  VAL484  VAL487 

> <Gold.Protein.RotatedAtoms>
   36.9588   34.4518   40.8564 H   0  0  0  0  0  0  0  0  0  0  0  0  # atno 496  bound_to 491 

> <Gold.Score>
     Score     S(PLP)   S(hbond)     S(cho)   S(metal)  DE(clash)   DE(tors)     intcor
     38.67     -38.77       0.00       0.00       0.00       0.00       0.05       0.00

> <Gold.PLP.Fitness>
38.6734

> <Gold.PLP.PLP>
-38.7661

> <Gold.PLP.part.hbond>
-0.1136

> <Gold.PLP.part.metal>
0.0000

> <Gold.PLP.part.buried>
-7.2062

> <Gold.PLP.part.nonpolar>
-32.5926

> <Gold.PLP.part.repulsive>
0.4824

> <Gold.PLP.ligand.clash>
0.0000

> <Gold.PLP.ligand.torsion>
0.0465

> <Gold.PLP.Chemscore.Hbond>
0.0000

> <Gold.PLP.Chemscore.CHOScore>
0.0000

> <Gold.PLP.Chemscore.Metal>
0.0000

> <Gold.PLP.Chemscore.Internal.Correction>
0.0002

