#       Name:                EN300-28312681_i001
#       Creating user name   aseyller
#       Creation time:       Sat Apr 22 05:58:43 2023


#       File generated by GOLD software.
#

@<TRIPOS>MOLECULE
EN300-28312681_i001|amine_3|mol2|3604|dock1
    27    28     1
SMALL
USER_CHARGES


@<TRIPOS>ATOM
      1 C1          33.2845  37.0013  34.8610 C.3            1 <1>                0.0000
      2 O2          32.3339  37.0295  35.9583 O.3            1 <1>                0.0000
      3 C3          32.3977  36.0201  36.8492 C.2            1 <1>                0.0000
      4 O4          33.2942  35.2031  36.7784 O.2            1 <1>                0.0000
      5 C5          31.3800  35.9073  37.9091 C.2            1 <1>                0.0000
      6 C6          30.3742  36.7947  38.1819 C.2            1 <1>                0.0000
      7 C7          29.6983  36.2130  39.2774 C.2            1 <1>                0.0000
      8 N8          30.3171  35.1008  39.5481 N.2            1 <1>                0.0000
      9 O9          31.2480  34.9073  38.8014 O.3            1 <1>                0.0000
     10 C10         28.4955  36.7717  39.9934 C.3            1 <1>                0.0000
     11 C11         28.1592  35.8859  41.1958 C.3            1 <1>                0.0000
     12 N12         26.9406  36.3912  41.8446 N.3            1 <1>                0.0000
     13 C13         25.8150  36.4061  40.8990 C.3            1 <1>                0.0000
     14 C14         26.1749  37.2868  39.6995 C.3            1 <1>                0.0000
     15 O15         27.3786  36.7992  39.1006 O.3            1 <1>                0.0000
     16 H16         33.1250  37.8682  34.2198 H              1 <1>                0.0000
     17 H17         34.2991  37.0252  35.2585 H              1 <1>                0.0000
     18 H18         33.1428  36.0893  34.2810 H              1 <1>                0.0000
     19 H19         30.1499  37.7230  37.6776 H              1 <1>                0.0000
     20 H20         28.7135  37.7832  40.3361 H              1 <1>                0.0000
     21 H21         27.9947  34.8623  40.8591 H              1 <1>                0.0000
     22 H22         28.9856  35.9075  41.9064 H              1 <1>                0.0000
     23 H23         25.6129  35.3909  40.5576 H              1 <1>                0.0000
     24 H24         24.9301  36.8076  41.3929 H              1 <1>                0.0000
     25 H25         25.3663  37.2552  38.9692 H              1 <1>                0.0000
     26 H26         26.3245  38.3134  40.0337 H              1 <1>                0.0000
     27 H27         26.7163  35.8487  42.6653 H              1 <1>                0.0000
@<TRIPOS>BOND
    1    1    2 1     
    2    1   16 1     
    3    1   17 1     
    4    1   18 1     
    5    2    3 1     
    6    3    4 2     
    7    3    5 1     
    8    5    6 2     
    9    5    9 1     
   10    6    7 1     
   11    6   19 1     
   12    7    8 2     
   13    7   10 1     
   14    8    9 1     
   15   10   11 1     
   16   10   15 1     
   17   10   20 1     
   18   11   12 1     
   19   11   21 1     
   20   11   22 1     
   21   12   13 1     
   22   12   27 1     
   23   13   14 1     
   24   13   23 1     
   25   13   24 1     
   26   14   15 1     
   27   14   25 1     
   28   14   26 1     
@<TRIPOS>SUBSTRUCTURE
      1 ****           1
@<TRIPOS>SET
DONOR_HYDROGENS      STATIC     ATOMS    <user>   **** ""
1 27
ATOM$RED        STATIC     ATOMS    COLORGROUP SYSTEM
1 27
@<TRIPOS>COMMENT
> <Gold.Version>
2022.2.0

> <Gold.Id.Protein>
1qkm|1qkm_protein|mol2

> <Gold.Protein.RotatedTorsions>
[  496  491  490  487 ] final    3.93 input  -89.99 | X-H torsion

> <Gold.Protein.ActiveResidues>
 MET295  LEU298  THR299  LEU301  ALA302  GLU305  TRP335  MET336  LEU339  MET340 
 GLY342  LEU343  ARG346  PHE356  ILE373  ILE376  PHE377  LEU380  LYS471  GLY472 
 MET473  HIS475  LEU476  LEU477  ASN478  MET479  VAL484  VAL487 

> <Gold.Protein.RotatedAtoms>
   36.2631   34.1568   42.2668 H   0  0  0  0  0  0  0  0  0  0  0  0  # atno 496  bound_to 491 

> <Gold.Score>
     Score     S(PLP)   S(hbond)     S(cho)   S(metal)  DE(clash)   DE(tors)     intcor
     46.92     -44.13       1.00       0.00       0.00       0.00       0.10       0.00

> <Gold.PLP.Fitness>
46.9217

> <Gold.PLP.PLP>
-44.1250

> <Gold.PLP.part.hbond>
-1.0000

> <Gold.PLP.part.metal>
0.0000

> <Gold.PLP.part.buried>
-7.2560

> <Gold.PLP.part.nonpolar>
-37.8596

> <Gold.PLP.part.repulsive>
1.4199

> <Gold.PLP.ligand.clash>
0.0000

> <Gold.PLP.ligand.torsion>
0.1026

> <Gold.PLP.Chemscore.Hbond>
1.0000

> <Gold.PLP.Chemscore.CHOScore>
0.0000

> <Gold.PLP.Chemscore.Metal>
0.0000

> <Gold.Chemscore.Hbonds>
donor molecule, donor type, donor heavy atom, donor atom, acceptor molecule, acceptor atom, score
      L1  H    12    27       P1   582  1.00

> <Gold.PLP.Chemscore.Internal.Correction>
0.0018

