#       Name:                EN300-28312681_i001
#       Creating user name   aseyller
#       Creation time:       Sat Apr 22 05:58:49 2023


#       File generated by GOLD software.
#

@<TRIPOS>MOLECULE
EN300-28312681_i001|amine_3|mol2|3604|dock11
    27    28     1
SMALL
USER_CHARGES


@<TRIPOS>ATOM
      1 C1          25.4888  36.9994  41.2114 C.3            1 <1>                0.0000
      2 O2          26.7538  36.4340  40.7773 O.3            1 <1>                0.0000
      3 C3          27.2322  36.8470  39.5868 C.2            1 <1>                0.0000
      4 O4          26.4960  37.4030  38.7961 O.2            1 <1>                0.0000
      5 C5          28.6481  36.6242  39.2441 C.2            1 <1>                0.0000
      6 C6          29.3555  37.2247  38.2379 C.2            1 <1>                0.0000
      7 C7          30.6461  36.6614  38.3495 C.2            1 <1>                0.0000
      8 N8          30.6027  35.8272  39.3473 N.2            1 <1>                0.0000
      9 O9          29.5091  35.7929  39.8614 O.3            1 <1>                0.0000
     10 C10         31.8401  36.9666  37.4820 C.3            1 <1>                0.0000
     11 C11         31.4307  37.9384  36.3722 C.3            1 <1>                0.0000
     12 N12         32.5790  38.1722  35.4844 N.3            1 <1>                0.0000
     13 C13         33.0507  36.9086  34.8994 C.3            1 <1>                0.0000
     14 C14         33.4439  35.9472  36.0240 C.3            1 <1>                0.0000
     15 O15         32.3251  35.7564  36.8942 O.3            1 <1>                0.0000
     16 H16         25.2191  36.5836  42.1822 H              1 <1>                0.0000
     17 H17         25.5838  38.0821  41.2936 H              1 <1>                0.0000
     18 H18         24.7138  36.7568  40.4843 H              1 <1>                0.0000
     19 H19         29.0081  37.9577  37.5249 H              1 <1>                0.0000
     20 H20         32.6252  37.4174  38.0891 H              1 <1>                0.0000
     21 H21         30.6084  37.5104  35.7988 H              1 <1>                0.0000
     22 H22         31.1140  38.8832  36.8141 H              1 <1>                0.0000
     23 H23         32.2544  36.4642  34.3024 H              1 <1>                0.0000
     24 H24         33.9167  37.1017  34.2662 H              1 <1>                0.0000
     25 H25         33.7403  34.9892  35.5969 H              1 <1>                0.0000
     26 H26         34.2762  36.3680  36.5882 H              1 <1>                0.0000
     27 H27         32.3491  38.8405  34.7643 H              1 <1>                0.0000
@<TRIPOS>BOND
    1    1    2 1     
    2    1   16 1     
    3    1   17 1     
    4    1   18 1     
    5    2    3 1     
    6    3    4 2     
    7    3    5 1     
    8    5    6 2     
    9    5    9 1     
   10    6    7 1     
   11    6   19 1     
   12    7    8 2     
   13    7   10 1     
   14    8    9 1     
   15   10   11 1     
   16   10   15 1     
   17   10   20 1     
   18   11   12 1     
   19   11   21 1     
   20   11   22 1     
   21   12   13 1     
   22   12   27 1     
   23   13   14 1     
   24   13   23 1     
   25   13   24 1     
   26   14   15 1     
   27   14   25 1     
   28   14   26 1     
@<TRIPOS>SUBSTRUCTURE
      1 ****           1
@<TRIPOS>SET
DONOR_HYDROGENS      STATIC     ATOMS    <user>   **** ""
1 27
ATOM$RED        STATIC     ATOMS    COLORGROUP SYSTEM
1 27
@<TRIPOS>COMMENT
> <Gold.Version>
2022.2.0

> <Gold.Id.Protein>
1qkm|1qkm_protein|mol2

> <Gold.Protein.RotatedTorsions>
[  496  491  490  487 ] final -158.82 input  -89.99 | X-H torsion

> <Gold.Protein.ActiveResidues>
 MET295  LEU298  THR299  LEU301  ALA302  GLU305  TRP335  MET336  LEU339  MET340 
 GLY342  LEU343  ARG346  PHE356  ILE373  ILE376  PHE377  LEU380  LYS471  GLY472 
 MET473  HIS475  LEU476  LEU477  ASN478  MET479  VAL484  VAL487 

> <Gold.Protein.RotatedAtoms>
   37.2708   33.7817   40.7429 H   0  0  0  0  0  0  0  0  0  0  0  0  # atno 496  bound_to 491 

> <Gold.Score>
     Score     S(PLP)   S(hbond)     S(cho)   S(metal)  DE(clash)   DE(tors)     intcor
     39.36     -40.06       0.00       0.00       0.00       0.00       0.35       0.00

> <Gold.PLP.Fitness>
39.3569

> <Gold.PLP.PLP>
-40.0647

> <Gold.PLP.part.hbond>
0.0000

> <Gold.PLP.part.metal>
0.0000

> <Gold.PLP.part.buried>
-7.0471

> <Gold.PLP.part.nonpolar>
-33.6366

> <Gold.PLP.part.repulsive>
0.7311

> <Gold.PLP.ligand.clash>
0.0000

> <Gold.PLP.ligand.torsion>
0.3540

> <Gold.PLP.Chemscore.Hbond>
0.0000

> <Gold.PLP.Chemscore.CHOScore>
0.0000

> <Gold.PLP.Chemscore.Metal>
0.0000

> <Gold.PLP.Chemscore.Internal.Correction>
0.0002

