#       Name:                EN300-28312681_i001
#       Creating user name   aseyller
#       Creation time:       Sat Apr 22 05:58:50 2023


#       File generated by GOLD software.
#

@<TRIPOS>MOLECULE
EN300-28312681_i001|amine_3|mol2|3604|dock12
    27    28     1
SMALL
USER_CHARGES


@<TRIPOS>ATOM
      1 C1          25.4998  37.0148  41.3759 C.3            1 <1>                0.0000
      2 O2          26.7203  36.6660  40.6709 O.3            1 <1>                0.0000
      3 C3          26.8139  37.0505  39.3824 C.2            1 <1>                0.0000
      4 O4          25.8715  37.5930  38.8404 O.2            1 <1>                0.0000
      5 C5          28.0593  36.8130  38.6311 C.2            1 <1>                0.0000
      6 C6          28.3302  37.1957  37.3451 C.2            1 <1>                0.0000
      7 C7          29.6436  36.7259  37.1224 C.2            1 <1>                0.0000
      8 N8          30.0207  36.1410  38.2219 N.2            1 <1>                0.0000
      9 O9          29.1631  36.1808  39.0730 O.3            1 <1>                0.0000
     10 C10         30.4504  36.8729  35.8579 C.3            1 <1>                0.0000
     11 C11         31.8073  36.1864  36.0346 C.3            1 <1>                0.0000
     12 N12         32.6191  36.3990  34.8275 N.3            1 <1>                0.0000
     13 C13         32.8096  37.8346  34.5741 C.3            1 <1>                0.0000
     14 C14         31.4426  38.5045  34.4121 C.3            1 <1>                0.0000
     15 O15         30.6563  38.2609  35.5816 O.3            1 <1>                0.0000
     16 H16         25.5544  36.6472  42.4006 H              1 <1>                0.0000
     17 H17         25.3821  38.0983  41.3844 H              1 <1>                0.0000
     18 H18         24.6466  36.5605  40.8719 H              1 <1>                0.0000
     19 H19         27.6893  37.7313  36.6605 H              1 <1>                0.0000
     20 H20         29.9143  36.4116  35.0285 H              1 <1>                0.0000
     21 H21         32.3202  36.6109  36.8977 H              1 <1>                0.0000
     22 H22         31.6573  35.1178  36.1888 H              1 <1>                0.0000
     23 H23         33.3386  38.2854  35.4137 H              1 <1>                0.0000
     24 H24         33.3913  37.9691  33.6622 H              1 <1>                0.0000
     25 H25         31.5767  39.5782  34.2808 H              1 <1>                0.0000
     26 H26         30.9358  38.0911  33.5401 H              1 <1>                0.0000
     27 H27         33.5062  35.9237  34.9000 H              1 <1>                0.0000
@<TRIPOS>BOND
    1    1    2 1     
    2    1   16 1     
    3    1   17 1     
    4    1   18 1     
    5    2    3 1     
    6    3    4 2     
    7    3    5 1     
    8    5    6 2     
    9    5    9 1     
   10    6    7 1     
   11    6   19 1     
   12    7    8 2     
   13    7   10 1     
   14    8    9 1     
   15   10   11 1     
   16   10   15 1     
   17   10   20 1     
   18   11   12 1     
   19   11   21 1     
   20   11   22 1     
   21   12   13 1     
   22   12   27 1     
   23   13   14 1     
   24   13   23 1     
   25   13   24 1     
   26   14   15 1     
   27   14   25 1     
   28   14   26 1     
@<TRIPOS>SUBSTRUCTURE
      1 ****           1
@<TRIPOS>SET
DONOR_HYDROGENS      STATIC     ATOMS    <user>   **** ""
1 27
ATOM$RED        STATIC     ATOMS    COLORGROUP SYSTEM
1 27
@<TRIPOS>COMMENT
> <Gold.Version>
2022.2.0

> <Gold.Id.Protein>
1qkm|1qkm_protein|mol2

> <Gold.Protein.RotatedTorsions>
[  496  491  490  487 ] final  -17.77 input  -89.99 | X-H torsion

> <Gold.Protein.ActiveResidues>
 MET295  LEU298  THR299  LEU301  ALA302  GLU305  TRP335  MET336  LEU339  MET340 
 GLY342  LEU343  ARG346  PHE356  ILE373  ILE376  PHE377  LEU380  LYS471  GLY472 
 MET473  HIS475  LEU476  LEU477  ASN478  MET479  VAL484  VAL487 

> <Gold.Protein.RotatedAtoms>
   36.2754   34.4446   42.0592 H   0  0  0  0  0  0  0  0  0  0  0  0  # atno 496  bound_to 491 

> <Gold.Score>
     Score     S(PLP)   S(hbond)     S(cho)   S(metal)  DE(clash)   DE(tors)     intcor
     37.95     -38.01       0.00       0.00       0.00       0.00       0.03       0.00

> <Gold.PLP.Fitness>
37.9527

> <Gold.PLP.PLP>
-38.0056

> <Gold.PLP.part.hbond>
-0.4904

> <Gold.PLP.part.metal>
0.0000

> <Gold.PLP.part.buried>
-5.7383

> <Gold.PLP.part.nonpolar>
-32.7775

> <Gold.PLP.part.repulsive>
0.2311

> <Gold.PLP.ligand.clash>
0.0000

> <Gold.PLP.ligand.torsion>
0.0265

> <Gold.PLP.Chemscore.Hbond>
0.0000

> <Gold.PLP.Chemscore.CHOScore>
0.0000

> <Gold.PLP.Chemscore.Metal>
0.0000

> <Gold.PLP.Chemscore.Internal.Correction>
0.0002

