#       Name:                EN300-28312681_i001
#       Creating user name   aseyller
#       Creation time:       Sat Apr 22 05:58:55 2023


#       File generated by GOLD software.
#

@<TRIPOS>MOLECULE
EN300-28312681_i001|amine_3|mol2|3604|dock20
    27    28     1
SMALL
USER_CHARGES


@<TRIPOS>ATOM
      1 C1          33.9421  36.4057  35.2012 C.3            1 <1>                0.0000
      2 O2          32.7609  36.3726  36.0451 O.3            1 <1>                0.0000
      3 C3          31.8120  37.2996  35.8062 C.2            1 <1>                0.0000
      4 O4          31.9770  38.1262  34.9311 O.2            1 <1>                0.0000
      5 C5          30.5746  37.3106  36.6064 C.2            1 <1>                0.0000
      6 C6          30.2739  36.5006  37.6681 C.2            1 <1>                0.0000
      7 C7          28.9855  36.9247  38.0624 C.2            1 <1>                0.0000
      8 N8          28.6483  37.8886  37.2558 N.2            1 <1>                0.0000
      9 O9          29.5133  38.1237  36.4447 O.3            1 <1>                0.0000
     10 C10         28.1620  36.3690  39.1957 C.3            1 <1>                0.0000
     11 C11         26.7443  36.9425  39.1265 C.3            1 <1>                0.0000
     12 N12         25.9684  36.4578  40.2773 N.3            1 <1>                0.0000
     13 C13         26.6099  36.8503  41.5405 C.3            1 <1>                0.0000
     14 C14         28.0290  36.2777  41.5855 C.3            1 <1>                0.0000
     15 O15         28.7584  36.7343  40.4431 O.3            1 <1>                0.0000
     16 H16         34.6236  35.6088  35.4988 H              1 <1>                0.0000
     17 H17         33.6495  36.2640  34.1609 H              1 <1>                0.0000
     18 H18         34.4398  37.3693  35.3106 H              1 <1>                0.0000
     19 H19         30.8800  35.7194  38.1025 H              1 <1>                0.0000
     20 H20         28.1195  35.2827  39.1160 H              1 <1>                0.0000
     21 H21         26.7905  38.0313  39.1513 H              1 <1>                0.0000
     22 H22         26.2653  36.6189  38.2024 H              1 <1>                0.0000
     23 H23         26.6540  37.9376  41.6040 H              1 <1>                0.0000
     24 H24         26.0329  36.4594  42.3786 H              1 <1>                0.0000
     25 H25         28.5285  36.6135  42.4942 H              1 <1>                0.0000
     26 H26         27.9825  35.1887  41.5762 H              1 <1>                0.0000
     27 H27         25.0162  36.7893  40.2370 H              1 <1>                0.0000
@<TRIPOS>BOND
    1    1    2 1     
    2    1   16 1     
    3    1   17 1     
    4    1   18 1     
    5    2    3 1     
    6    3    4 2     
    7    3    5 1     
    8    5    6 2     
    9    5    9 1     
   10    6    7 1     
   11    6   19 1     
   12    7    8 2     
   13    7   10 1     
   14    8    9 1     
   15   10   11 1     
   16   10   15 1     
   17   10   20 1     
   18   11   12 1     
   19   11   21 1     
   20   11   22 1     
   21   12   13 1     
   22   12   27 1     
   23   13   14 1     
   24   13   23 1     
   25   13   24 1     
   26   14   15 1     
   27   14   25 1     
   28   14   26 1     
@<TRIPOS>SUBSTRUCTURE
      1 ****           1
@<TRIPOS>SET
DONOR_HYDROGENS      STATIC     ATOMS    <user>   **** ""
1 27
ATOM$RED        STATIC     ATOMS    COLORGROUP SYSTEM
1 27
@<TRIPOS>COMMENT
> <Gold.Version>
2022.2.0

> <Gold.Id.Protein>
1qkm|1qkm_protein|mol2

> <Gold.Protein.RotatedTorsions>
[  496  491  490  487 ] final -157.25 input  -89.99 | X-H torsion

> <Gold.Protein.ActiveResidues>
 MET295  LEU298  THR299  LEU301  ALA302  GLU305  TRP335  MET336  LEU339  MET340 
 GLY342  LEU343  ARG346  PHE356  ILE373  ILE376  PHE377  LEU380  LYS471  GLY472 
 MET473  HIS475  LEU476  LEU477  ASN478  MET479  VAL484  VAL487 

> <Gold.Protein.RotatedAtoms>
   37.2645   33.8063   40.7379 H   0  0  0  0  0  0  0  0  0  0  0  0  # atno 496  bound_to 491 

> <Gold.Score>
     Score     S(PLP)   S(hbond)     S(cho)   S(metal)  DE(clash)   DE(tors)     intcor
     36.97     -37.34       0.00       0.00       0.00       0.00       0.19       0.00

> <Gold.PLP.Fitness>
36.9684

> <Gold.PLP.PLP>
-37.3387

> <Gold.PLP.part.hbond>
0.0000

> <Gold.PLP.part.metal>
0.0000

> <Gold.PLP.part.buried>
-6.8917

> <Gold.PLP.part.nonpolar>
-30.8704

> <Gold.PLP.part.repulsive>
0.2021

> <Gold.PLP.ligand.clash>
0.0000

> <Gold.PLP.ligand.torsion>
0.1853

> <Gold.PLP.Chemscore.Hbond>
0.0000

> <Gold.PLP.Chemscore.CHOScore>
0.0000

> <Gold.PLP.Chemscore.Metal>
0.0000

> <Gold.PLP.Chemscore.Internal.Correction>
0.0002

