#       Name:                EN300-28312681_i001
#       Creating user name   aseyller
#       Creation time:       Sat Apr 22 05:58:54 2023


#       File generated by GOLD software.
#

@<TRIPOS>MOLECULE
EN300-28312681_i001|amine_3|mol2|3604|dock19
    27    28     1
SMALL
USER_CHARGES


@<TRIPOS>ATOM
      1 C1          32.4033  38.1352  34.0052 C.3            1 <1>                0.0000
      2 O2          31.5922  38.5060  35.1512 O.3            1 <1>                0.0000
      3 C3          31.3181  37.5362  36.0462 C.2            1 <1>                0.0000
      4 O4          32.1068  36.6282  36.2188 O.2            1 <1>                0.0000
      5 C5          30.0618  37.5772  36.8156 C.2            1 <1>                0.0000
      6 C6          29.6577  36.6928  37.7790 C.2            1 <1>                0.0000
      7 C7          28.3999  37.1893  38.1872 C.2            1 <1>                0.0000
      8 N8          28.1744  38.2578  37.4794 N.2            1 <1>                0.0000
      9 O9          29.0819  38.4956  36.7170 O.3            1 <1>                0.0000
     10 C10         27.4953  36.5970  39.2371 C.3            1 <1>                0.0000
     11 C11         26.0957  37.2037  39.1074 C.3            1 <1>                0.0000
     12 N12         25.2389  36.6803  40.1813 N.3            1 <1>                0.0000
     13 C13         25.8053  36.9970  41.5005 C.3            1 <1>                0.0000
     14 C14         27.2078  36.3924  41.6062 C.3            1 <1>                0.0000
     15 O15         28.0172  36.8883  40.5364 O.3            1 <1>                0.0000
     16 H16         32.5483  39.0060  33.3658 H              1 <1>                0.0000
     17 H17         33.3716  37.7708  34.3480 H              1 <1>                0.0000
     18 H18         31.8985  37.3506  33.4415 H              1 <1>                0.0000
     19 H19         30.1787  35.8192  38.1420 H              1 <1>                0.0000
     20 H20         27.4380  35.5171  39.1008 H              1 <1>                0.0000
     21 H21         26.1603  38.2887  39.1893 H              1 <1>                0.0000
     22 H22         25.6711  36.9358  38.1398 H              1 <1>                0.0000
     23 H23         25.8652  38.0786  41.6208 H              1 <1>                0.0000
     24 H24         25.1687  36.5782  42.2799 H              1 <1>                0.0000
     25 H25         27.6541  36.6728  42.5603 H              1 <1>                0.0000
     26 H26         27.1420  35.3064  41.5396 H              1 <1>                0.0000
     27 H27         24.2976  37.0338  40.0976 H              1 <1>                0.0000
@<TRIPOS>BOND
    1    1    2 1     
    2    1   16 1     
    3    1   17 1     
    4    1   18 1     
    5    2    3 1     
    6    3    4 2     
    7    3    5 1     
    8    5    6 2     
    9    5    9 1     
   10    6    7 1     
   11    6   19 1     
   12    7    8 2     
   13    7   10 1     
   14    8    9 1     
   15   10   11 1     
   16   10   15 1     
   17   10   20 1     
   18   11   12 1     
   19   11   21 1     
   20   11   22 1     
   21   12   13 1     
   22   12   27 1     
   23   13   14 1     
   24   13   23 1     
   25   13   24 1     
   26   14   15 1     
   27   14   25 1     
   28   14   26 1     
@<TRIPOS>SUBSTRUCTURE
      1 ****           1
@<TRIPOS>SET
DONOR_HYDROGENS      STATIC     ATOMS    <user>   **** ""
1 27
ATOM$RED        STATIC     ATOMS    COLORGROUP SYSTEM
1 27
@<TRIPOS>COMMENT
> <Gold.Version>
2022.2.0

> <Gold.Id.Protein>
1qkm|1qkm_protein|mol2

> <Gold.Protein.RotatedTorsions>
[  496  491  490  487 ] final  169.50 input  -89.99 | X-H torsion

> <Gold.Protein.ActiveResidues>
 MET295  LEU298  THR299  LEU301  ALA302  GLU305  TRP335  MET336  LEU339  MET340 
 GLY342  LEU343  ARG346  PHE356  ILE373  ILE376  PHE377  LEU380  LYS471  GLY472 
 MET473  HIS475  LEU476  LEU477  ASN478  MET479  VAL484  VAL487 

> <Gold.Protein.RotatedAtoms>
   37.3147   33.3193   40.9650 H   0  0  0  0  0  0  0  0  0  0  0  0  # atno 496  bound_to 491 

> <Gold.Score>
     Score     S(PLP)   S(hbond)     S(cho)   S(metal)  DE(clash)   DE(tors)     intcor
     38.14     -38.39       0.42       0.00       0.00       0.00       0.76       0.00

> <Gold.PLP.Fitness>
38.1405

> <Gold.PLP.PLP>
-38.3854

> <Gold.PLP.part.hbond>
-1.0000

> <Gold.PLP.part.metal>
0.0000

> <Gold.PLP.part.buried>
-2.3443

> <Gold.PLP.part.nonpolar>
-35.2321

> <Gold.PLP.part.repulsive>
0.1187

> <Gold.PLP.ligand.clash>
0.0000

> <Gold.PLP.ligand.torsion>
0.7591

> <Gold.PLP.Chemscore.Hbond>
0.4243

> <Gold.PLP.Chemscore.CHOScore>
0.0000

> <Gold.PLP.Chemscore.Metal>
0.0000

> <Gold.Chemscore.Hbonds>
donor molecule, donor type, donor heavy atom, donor atom, acceptor molecule, acceptor atom, score
      L1  H    12    27       P1  1131  0.42

> <Gold.PLP.Chemscore.Internal.Correction>
0.0002

