#       Name:                EN300-28312681_i001
#       Creating user name   aseyller
#       Creation time:       Sat Apr 22 05:58:46 2023


#       File generated by GOLD software.
#

@<TRIPOS>MOLECULE
EN300-28312681_i001|amine_3|mol2|3604|dock5
    27    28     1
SMALL
USER_CHARGES


@<TRIPOS>ATOM
      1 C1          32.2437  38.2065  34.0007 C.3            1 <1>                0.0000
      2 O2          31.4912  38.0414  35.2315 O.3            1 <1>                0.0000
      3 C3          31.9124  37.0849  36.0826 C.2            1 <1>                0.0000
      4 O4          32.9362  36.4732  35.8505 O.2            1 <1>                0.0000
      5 C5          31.1312  36.7810  37.2947 C.2            1 <1>                0.0000
      6 C6          29.9765  37.3916  37.7041 C.2            1 <1>                0.0000
      7 C7          29.6515  36.7275  38.9077 C.2            1 <1>                0.0000
      8 N8          30.5786  35.8352  39.1021 N.2            1 <1>                0.0000
      9 O9          31.4057  35.8422  38.2204 O.3            1 <1>                0.0000
     10 C10         28.4633  36.9994  39.7939 C.3            1 <1>                0.0000
     11 C11         28.4017  35.9467  40.9037 C.3            1 <1>                0.0000
     12 N12         27.1987  36.1708  41.7185 N.3            1 <1>                0.0000
     13 C13         25.9871  36.1001  40.8888 C.3            1 <1>                0.0000
     14 C14         26.0729  37.1513  39.7791 C.3            1 <1>                0.0000
     15 O15         27.2641  36.9368  39.0172 O.3            1 <1>                0.0000
     16 H16         31.8002  39.0068  33.4083 H              1 <1>                0.0000
     17 H17         33.2770  38.4598  34.2378 H              1 <1>                0.0000
     18 H18         32.2187  37.2769  33.4321 H              1 <1>                0.0000
     19 H19         29.4397  38.1941  37.2202 H              1 <1>                0.0000
     20 H20         28.5593  37.9905  40.2373 H              1 <1>                0.0000
     21 H21         28.3606  34.9519  40.4599 H              1 <1>                0.0000
     22 H22         29.2879  36.0288  41.5330 H              1 <1>                0.0000
     23 H23         25.9073  35.1079  40.4448 H              1 <1>                0.0000
     24 H24         25.1107  36.2943  41.5072 H              1 <1>                0.0000
     25 H25         25.2035  37.0646  39.1275 H              1 <1>                0.0000
     26 H26         26.0986  38.1469  40.2222 H              1 <1>                0.0000
     27 H27         27.1522  35.5140  42.4831 H              1 <1>                0.0000
@<TRIPOS>BOND
    1    1    2 1     
    2    1   16 1     
    3    1   17 1     
    4    1   18 1     
    5    2    3 1     
    6    3    4 2     
    7    3    5 1     
    8    5    6 2     
    9    5    9 1     
   10    6    7 1     
   11    6   19 1     
   12    7    8 2     
   13    7   10 1     
   14    8    9 1     
   15   10   11 1     
   16   10   15 1     
   17   10   20 1     
   18   11   12 1     
   19   11   21 1     
   20   11   22 1     
   21   12   13 1     
   22   12   27 1     
   23   13   14 1     
   24   13   23 1     
   25   13   24 1     
   26   14   15 1     
   27   14   25 1     
   28   14   26 1     
@<TRIPOS>SUBSTRUCTURE
      1 ****           1
@<TRIPOS>SET
DONOR_HYDROGENS      STATIC     ATOMS    <user>   **** ""
1 27
ATOM$RED        STATIC     ATOMS    COLORGROUP SYSTEM
1 27
@<TRIPOS>COMMENT
> <Gold.Version>
2022.2.0

> <Gold.Id.Protein>
1qkm|1qkm_protein|mol2

> <Gold.Protein.RotatedTorsions>
[  496  491  490  487 ] final -144.95 input  -89.99 | X-H torsion

> <Gold.Protein.ActiveResidues>
 MET295  LEU298  THR299  LEU301  ALA302  GLU305  TRP335  MET336  LEU339  MET340 
 GLY342  LEU343  ARG346  PHE356  ILE373  ILE376  PHE377  LEU380  LYS471  GLY472 
 MET473  HIS475  LEU476  LEU477  ASN478  MET479  VAL484  VAL487 

> <Gold.Protein.RotatedAtoms>
   37.2039   33.9982   40.7202 H   0  0  0  0  0  0  0  0  0  0  0  0  # atno 496  bound_to 491 

> <Gold.Score>
     Score     S(PLP)   S(hbond)     S(cho)   S(metal)  DE(clash)   DE(tors)     intcor
     44.17     -41.42       0.99       0.00       0.00       0.00       0.12       0.00

> <Gold.PLP.Fitness>
44.1706

> <Gold.PLP.PLP>
-41.4236

> <Gold.PLP.part.hbond>
-1.0000

> <Gold.PLP.part.metal>
0.0000

> <Gold.PLP.part.buried>
-7.2855

> <Gold.PLP.part.nonpolar>
-33.6401

> <Gold.PLP.part.repulsive>
0.2624

> <Gold.PLP.ligand.clash>
0.0000

> <Gold.PLP.ligand.torsion>
0.1150

> <Gold.PLP.Chemscore.Hbond>
0.9920

> <Gold.PLP.Chemscore.CHOScore>
0.0000

> <Gold.PLP.Chemscore.Metal>
0.0000

> <Gold.Chemscore.Hbonds>
donor molecule, donor type, donor heavy atom, donor atom, acceptor molecule, acceptor atom, score
      L1  H    12    27       P1   582  0.99

> <Gold.PLP.Chemscore.Internal.Correction>
0.0011

