#       Name:                EN300-28312681_i001
#       Creating user name   aseyller
#       Creation time:       Sat Apr 22 05:58:44 2023


#       File generated by GOLD software.
#

@<TRIPOS>MOLECULE
EN300-28312681_i001|amine_3|mol2|3604|dock3
    27    28     1
SMALL
USER_CHARGES


@<TRIPOS>ATOM
      1 C1          33.2024  36.9947  34.9090 C.3            1 <1>                0.0000
      2 O2          31.9376  36.8607  35.6096 O.3            1 <1>                0.0000
      3 C3          31.0794  37.8967  35.5267 C.2            1 <1>                0.0000
      4 O4          31.3062  38.8138  34.7626 O.2            1 <1>                0.0000
      5 C5          29.8660  37.9172  36.3629 C.2            1 <1>                0.0000
      6 C6          29.3889  36.9008  37.1458 C.2            1 <1>                0.0000
      7 C7          28.2182  37.4402  37.7234 C.2            1 <1>                0.0000
      8 N8          28.1030  38.6532  37.2665 N.2            1 <1>                0.0000
      9 O9          29.0056  38.9418  36.5158 O.3            1 <1>                0.0000
     10 C10         27.2844  36.7463  38.6814 C.3            1 <1>                0.0000
     11 C11         26.0804  37.6482  38.9654 C.3            1 <1>                0.0000
     12 N12         25.2122  36.9995  39.9588 N.3            1 <1>                0.0000
     13 C13         25.9501  36.7371  41.2030 C.3            1 <1>                0.0000
     14 C14         27.1554  35.8444  40.8966 C.3            1 <1>                0.0000
     15 O15         27.9711  36.4766  39.9065 O.3            1 <1>                0.0000
     16 H16         33.7971  36.0933  35.0572 H              1 <1>                0.0000
     17 H17         33.0149  37.1354  33.8445 H              1 <1>                0.0000
     18 H18         33.7444  37.8560  35.2995 H              1 <1>                0.0000
     19 H19         29.8092  35.9162  37.2882 H              1 <1>                0.0000
     20 H20         26.9418  35.8097  38.2415 H              1 <1>                0.0000
     21 H21         26.4266  38.6057  39.3545 H              1 <1>                0.0000
     22 H22         25.5212  37.8099  38.0437 H              1 <1>                0.0000
     23 H23         26.2942  37.6800  41.6279 H              1 <1>                0.0000
     24 H24         25.2958  36.2337  41.9149 H              1 <1>                0.0000
     25 H25         27.7374  35.6939  41.8058 H              1 <1>                0.0000
     26 H26         26.8090  34.8812  40.5219 H              1 <1>                0.0000
     27 H27         24.3888  37.5548  40.1370 H              1 <1>                0.0000
@<TRIPOS>BOND
    1    1    2 1     
    2    1   16 1     
    3    1   17 1     
    4    1   18 1     
    5    2    3 1     
    6    3    4 2     
    7    3    5 1     
    8    5    6 2     
    9    5    9 1     
   10    6    7 1     
   11    6   19 1     
   12    7    8 2     
   13    7   10 1     
   14    8    9 1     
   15   10   11 1     
   16   10   15 1     
   17   10   20 1     
   18   11   12 1     
   19   11   21 1     
   20   11   22 1     
   21   12   13 1     
   22   12   27 1     
   23   13   14 1     
   24   13   23 1     
   25   13   24 1     
   26   14   15 1     
   27   14   25 1     
   28   14   26 1     
@<TRIPOS>SUBSTRUCTURE
      1 ****           1
@<TRIPOS>SET
DONOR_HYDROGENS      STATIC     ATOMS    <user>   **** ""
1 27
ATOM$RED        STATIC     ATOMS    COLORGROUP SYSTEM
1 27
@<TRIPOS>COMMENT
> <Gold.Version>
2022.2.0

> <Gold.Id.Protein>
1qkm|1qkm_protein|mol2

> <Gold.Protein.RotatedTorsions>
[  496  491  490  487 ] final  -50.98 input  -89.99 | X-H torsion

> <Gold.Protein.ActiveResidues>
 MET295  LEU298  THR299  LEU301  ALA302  GLU305  TRP335  MET336  LEU339  MET340 
 GLY342  LEU343  ARG346  PHE356  ILE373  ILE376  PHE377  LEU380  LYS471  GLY472 
 MET473  HIS475  LEU476  LEU477  ASN478  MET479  VAL484  VAL487 

> <Gold.Protein.RotatedAtoms>
   36.4313   34.7081   41.6154 H   0  0  0  0  0  0  0  0  0  0  0  0  # atno 496  bound_to 491 

> <Gold.Score>
     Score     S(PLP)   S(hbond)     S(cho)   S(metal)  DE(clash)   DE(tors)     intcor
     41.30     -41.61       0.00       0.00       0.00       0.00       0.15       0.00

> <Gold.PLP.Fitness>
41.2996

> <Gold.PLP.PLP>
-41.6057

> <Gold.PLP.part.hbond>
-1.0000

> <Gold.PLP.part.metal>
0.0000

> <Gold.PLP.part.buried>
-6.1781

> <Gold.PLP.part.nonpolar>
-35.0866

> <Gold.PLP.part.repulsive>
0.1248

> <Gold.PLP.ligand.clash>
0.0000

> <Gold.PLP.ligand.torsion>
0.1536

> <Gold.PLP.Chemscore.Hbond>
0.0000

> <Gold.PLP.Chemscore.CHOScore>
0.0000

> <Gold.PLP.Chemscore.Metal>
0.0000

> <Gold.PLP.Chemscore.Internal.Correction>
0.0011

