#       Name:                EN300-28312681_i001
#       Creating user name   aseyller
#       Creation time:       Sat Apr 22 05:58:45 2023


#       File generated by GOLD software.
#

@<TRIPOS>MOLECULE
EN300-28312681_i001|amine_3|mol2|3604|dock4
    27    28     1
SMALL
USER_CHARGES


@<TRIPOS>ATOM
      1 C1          25.6699  36.9074  41.1481 C.3            1 <1>                0.0000
      2 O2          26.3957  37.0834  39.9028 O.3            1 <1>                0.0000
      3 C3          27.6838  36.6871  39.8841 C.2            1 <1>                0.0000
      4 O4          28.1241  36.0093  40.7912 O.2            1 <1>                0.0000
      5 C5          28.5583  37.0761  38.7634 C.2            1 <1>                0.0000
      6 C6          29.9034  36.8483  38.6519 C.2            1 <1>                0.0000
      7 C7          30.2397  37.4160  37.4028 C.2            1 <1>                0.0000
      8 N8          29.1393  37.9025  36.9071 N.2            1 <1>                0.0000
      9 O9          28.1944  37.7222  37.6393 O.3            1 <1>                0.0000
     10 C10         31.6063  37.4516  36.7684 C.3            1 <1>                0.0000
     11 C11         31.5155  38.1242  35.3962 C.3            1 <1>                0.0000
     12 N12         32.8353  38.0872  34.7497 N.3            1 <1>                0.0000
     13 C13         33.3042  36.7017  34.6020 C.3            1 <1>                0.0000
     14 C14         33.3771  36.0433  35.9822 C.3            1 <1>                0.0000
     15 O15         32.0933  36.1165  36.6081 O.3            1 <1>                0.0000
     16 H16         24.6477  37.2659  41.0266 H              1 <1>                0.0000
     17 H17         25.6551  35.8504  41.4138 H              1 <1>                0.0000
     18 H18         26.1621  37.4740  41.9386 H              1 <1>                0.0000
     19 H19         30.5554  36.3512  39.3548 H              1 <1>                0.0000
     20 H20         32.2886  38.0147  37.4053 H              1 <1>                0.0000
     21 H21         30.7921  37.5929  34.7776 H              1 <1>                0.0000
     22 H22         31.1992  39.1602  35.5187 H              1 <1>                0.0000
     23 H23         32.6096  36.1476  33.9707 H              1 <1>                0.0000
     24 H24         34.2937  36.6991  34.1447 H              1 <1>                0.0000
     25 H25         33.6695  34.9990  35.8724 H              1 <1>                0.0000
     26 H26         34.1115  36.5650  36.5959 H              1 <1>                0.0000
     27 H27         32.8146  38.5590  33.8580 H              1 <1>                0.0000
@<TRIPOS>BOND
    1    1    2 1     
    2    1   16 1     
    3    1   17 1     
    4    1   18 1     
    5    2    3 1     
    6    3    4 2     
    7    3    5 1     
    8    5    6 2     
    9    5    9 1     
   10    6    7 1     
   11    6   19 1     
   12    7    8 2     
   13    7   10 1     
   14    8    9 1     
   15   10   11 1     
   16   10   15 1     
   17   10   20 1     
   18   11   12 1     
   19   11   21 1     
   20   11   22 1     
   21   12   13 1     
   22   12   27 1     
   23   13   14 1     
   24   13   23 1     
   25   13   24 1     
   26   14   15 1     
   27   14   25 1     
   28   14   26 1     
@<TRIPOS>SUBSTRUCTURE
      1 ****           1
@<TRIPOS>SET
DONOR_HYDROGENS      STATIC     ATOMS    <user>   **** ""
1 27
ATOM$RED        STATIC     ATOMS    COLORGROUP SYSTEM
1 27
@<TRIPOS>COMMENT
> <Gold.Version>
2022.2.0

> <Gold.Id.Protein>
1qkm|1qkm_protein|mol2

> <Gold.Protein.RotatedTorsions>
[  496  491  490  487 ] final  -81.40 input  -89.99 | X-H torsion

> <Gold.Protein.ActiveResidues>
 MET295  LEU298  THR299  LEU301  ALA302  GLU305  TRP335  MET336  LEU339  MET340 
 GLY342  LEU343  ARG346  PHE356  ILE373  ILE376  PHE377  LEU380  LYS471  GLY472 
 MET473  HIS475  LEU476  LEU477  ASN478  MET479  VAL484  VAL487 

> <Gold.Protein.RotatedAtoms>
   36.6785   34.7004   41.1869 H   0  0  0  0  0  0  0  0  0  0  0  0  # atno 496  bound_to 491 

> <Gold.Score>
     Score     S(PLP)   S(hbond)     S(cho)   S(metal)  DE(clash)   DE(tors)     intcor
     39.37     -39.68       0.00       0.00       0.00       0.00       0.16       0.00

> <Gold.PLP.Fitness>
39.3654

> <Gold.PLP.PLP>
-39.6802

> <Gold.PLP.part.hbond>
-0.1416

> <Gold.PLP.part.metal>
0.0000

> <Gold.PLP.part.buried>
-6.9891

> <Gold.PLP.part.nonpolar>
-33.1145

> <Gold.PLP.part.repulsive>
0.1857

> <Gold.PLP.ligand.clash>
0.0000

> <Gold.PLP.ligand.torsion>
0.1580

> <Gold.PLP.Chemscore.Hbond>
0.0000

> <Gold.PLP.Chemscore.CHOScore>
0.0000

> <Gold.PLP.Chemscore.Metal>
0.0000

> <Gold.PLP.Chemscore.Internal.Correction>
0.0011

