#       Name:                EN300-28312681_i001
#       Creating user name   aseyller
#       Creation time:       Sat Apr 22 05:58:46 2023


#       File generated by GOLD software.
#

@<TRIPOS>MOLECULE
EN300-28312681_i001|amine_3|mol2|3604|dock6
    27    28     1
SMALL
USER_CHARGES


@<TRIPOS>ATOM
      1 C1          33.3084  36.9313  34.8880 C.3            1 <1>                0.0000
      2 O2          32.7809  36.9448  36.2407 O.3            1 <1>                0.0000
      3 C3          31.5164  37.3834  36.4002 C.2            1 <1>                0.0000
      4 O4          31.0608  38.2135  35.6388 O.2            1 <1>                0.0000
      5 C5          30.6865  36.8563  37.4980 C.2            1 <1>                0.0000
      6 C6          29.3457  37.0579  37.6858 C.2            1 <1>                0.0000
      7 C7          29.0586  36.3411  38.8686 C.2            1 <1>                0.0000
      8 N8          30.1787  35.8074  39.2610 N.2            1 <1>                0.0000
      9 O9          31.0927  36.0740  38.5161 O.3            1 <1>                0.0000
     10 C10         27.7172  36.2188  39.5445 C.3            1 <1>                0.0000
     11 C11         26.6839  37.0551  38.7851 C.3            1 <1>                0.0000
     12 N12         25.3963  36.9940  39.4921 N.3            1 <1>                0.0000
     13 C13         25.5339  37.4912  40.8688 C.3            1 <1>                0.0000
     14 C14         26.5787  36.6504  41.6072 C.3            1 <1>                0.0000
     15 O15         27.8146  36.6964  40.8890 O.3            1 <1>                0.0000
     16 H16         34.3321  36.5574  34.9009 H              1 <1>                0.0000
     17 H17         32.6927  36.2832  34.2643 H              1 <1>                0.0000
     18 H18         33.2962  37.9434  34.4833 H              1 <1>                0.0000
     19 H19         28.6660  37.6315  37.0730 H              1 <1>                0.0000
     20 H20         27.4065  35.1740  39.5503 H              1 <1>                0.0000
     21 H21         27.0214  38.0903  38.7323 H              1 <1>                0.0000
     22 H22         26.5646  36.6586  37.7768 H              1 <1>                0.0000
     23 H23         25.8529  38.5332  40.8493 H              1 <1>                0.0000
     24 H24         24.5752  37.4129  41.3815 H              1 <1>                0.0000
     25 H25         26.7255  37.0511  42.6103 H              1 <1>                0.0000
     26 H26         26.2345  35.6183  41.6737 H              1 <1>                0.0000
     27 H27         24.6847  37.5056  38.9923 H              1 <1>                0.0000
@<TRIPOS>BOND
    1    1    2 1     
    2    1   16 1     
    3    1   17 1     
    4    1   18 1     
    5    2    3 1     
    6    3    4 2     
    7    3    5 1     
    8    5    6 2     
    9    5    9 1     
   10    6    7 1     
   11    6   19 1     
   12    7    8 2     
   13    7   10 1     
   14    8    9 1     
   15   10   11 1     
   16   10   15 1     
   17   10   20 1     
   18   11   12 1     
   19   11   21 1     
   20   11   22 1     
   21   12   13 1     
   22   12   27 1     
   23   13   14 1     
   24   13   23 1     
   25   13   24 1     
   26   14   15 1     
   27   14   25 1     
   28   14   26 1     
@<TRIPOS>SUBSTRUCTURE
      1 ****           1
@<TRIPOS>SET
DONOR_HYDROGENS      STATIC     ATOMS    <user>   **** ""
1 27
ATOM$RED        STATIC     ATOMS    COLORGROUP SYSTEM
1 27
@<TRIPOS>COMMENT
> <Gold.Version>
2022.2.0

> <Gold.Id.Protein>
1qkm|1qkm_protein|mol2

> <Gold.Protein.RotatedTorsions>
[  496  491  490  487 ] final -130.94 input  -89.99 | X-H torsion

> <Gold.Protein.ActiveResidues>
 MET295  LEU298  THR299  LEU301  ALA302  GLU305  TRP335  MET336  LEU339  MET340 
 GLY342  LEU343  ARG346  PHE356  ILE373  ILE376  PHE377  LEU380  LYS471  GLY472 
 MET473  HIS475  LEU476  LEU477  ASN478  MET479  VAL484  VAL487 

> <Gold.Protein.RotatedAtoms>
   37.1117   34.2075   40.7464 H   0  0  0  0  0  0  0  0  0  0  0  0  # atno 496  bound_to 491 

> <Gold.Score>
     Score     S(PLP)   S(hbond)     S(cho)   S(metal)  DE(clash)   DE(tors)     intcor
     38.54     -39.39       0.00       0.00       0.00       0.00       0.43       0.00

> <Gold.PLP.Fitness>
38.5394

> <Gold.PLP.PLP>
-39.3947

> <Gold.PLP.part.hbond>
-0.8688

> <Gold.PLP.part.metal>
0.0000

> <Gold.PLP.part.buried>
-5.1342

> <Gold.PLP.part.nonpolar>
-33.7888

> <Gold.PLP.part.repulsive>
0.2678

> <Gold.PLP.ligand.clash>
0.0000

> <Gold.PLP.ligand.torsion>
0.4282

> <Gold.PLP.Chemscore.Hbond>
0.0000

> <Gold.PLP.Chemscore.CHOScore>
0.0000

> <Gold.PLP.Chemscore.Metal>
0.0000

> <Gold.PLP.Chemscore.Internal.Correction>
0.0011

