#       Name:                EN300-28312681_i001
#       Creating user name   aseyller
#       Creation time:       Sat Apr 22 05:58:44 2023


#       File generated by GOLD software.
#

@<TRIPOS>MOLECULE
EN300-28312681_i001|amine_3|mol2|3604|dock2
    27    28     1
SMALL
USER_CHARGES


@<TRIPOS>ATOM
      1 C1          33.6598  36.4586  34.9038 C.3            1 <1>                0.0000
      2 O2          32.8900  36.1266  36.0894 O.3            1 <1>                0.0000
      3 C3          31.8415  36.9219  36.3808 C.2            1 <1>                0.0000
      4 O4          31.5873  37.8758  35.6725 O.2            1 <1>                0.0000
      5 C5          31.0036  36.6346  37.5586 C.2            1 <1>                0.0000
      6 C6          29.9114  37.3418  37.9837 C.2            1 <1>                0.0000
      7 C7          29.4886  36.6482  39.1393 C.2            1 <1>                0.0000
      8 N8          30.3101  35.6512  39.2959 N.2            1 <1>                0.0000
      9 O9          31.1540  35.6197  38.4309 O.3            1 <1>                0.0000
     10 C10         28.3155  36.9953  40.0194 C.3            1 <1>                0.0000
     11 C11         28.1839  35.9512  41.1313 C.3            1 <1>                0.0000
     12 N12         26.9934  36.2514  41.9399 N.3            1 <1>                0.0000
     13 C13         25.7835  36.2535  41.1047 C.3            1 <1>                0.0000
     14 C14         25.9391  37.2945  39.9931 C.3            1 <1>                0.0000
     15 O15         27.1182  37.0049  39.2372 O.3            1 <1>                0.0000
     16 H16         34.4719  35.7413  34.7854 H              1 <1>                0.0000
     17 H17         33.0120  36.4220  34.0280 H              1 <1>                0.0000
     18 H18         34.0732  37.4617  35.0083 H              1 <1>                0.0000
     19 H19         29.4751  38.2243  37.5396 H              1 <1>                0.0000
     20 H20         28.4705  37.9797  40.4609 H              1 <1>                0.0000
     21 H21         28.0835  34.9598  40.6896 H              1 <1>                0.0000
     22 H22         29.0707  35.9801  41.7645 H              1 <1>                0.0000
     23 H23         25.6446  35.2669  40.6626 H              1 <1>                0.0000
     24 H24         24.9180  36.5030  41.7185 H              1 <1>                0.0000
     25 H25         25.0689  37.2600  39.3376 H              1 <1>                0.0000
     26 H26         26.0242  38.2878  40.4339 H              1 <1>                0.0000
     27 H27         26.9030  35.6007  42.7058 H              1 <1>                0.0000
@<TRIPOS>BOND
    1    1    2 1     
    2    1   16 1     
    3    1   17 1     
    4    1   18 1     
    5    2    3 1     
    6    3    4 2     
    7    3    5 1     
    8    5    6 2     
    9    5    9 1     
   10    6    7 1     
   11    6   19 1     
   12    7    8 2     
   13    7   10 1     
   14    8    9 1     
   15   10   11 1     
   16   10   15 1     
   17   10   20 1     
   18   11   12 1     
   19   11   21 1     
   20   11   22 1     
   21   12   13 1     
   22   12   27 1     
   23   13   14 1     
   24   13   23 1     
   25   13   24 1     
   26   14   15 1     
   27   14   25 1     
   28   14   26 1     
@<TRIPOS>SUBSTRUCTURE
      1 ****           1
@<TRIPOS>SET
DONOR_HYDROGENS      STATIC     ATOMS    <user>   **** ""
1 27
ATOM$RED        STATIC     ATOMS    COLORGROUP SYSTEM
1 27
@<TRIPOS>COMMENT
> <Gold.Version>
2022.2.0

> <Gold.Id.Protein>
1qkm|1qkm_protein|mol2

> <Gold.Protein.RotatedTorsions>
[  496  491  490  487 ] final  102.84 input  -89.99 | X-H torsion

> <Gold.Protein.ActiveResidues>
 MET295  LEU298  THR299  LEU301  ALA302  GLU305  TRP335  MET336  LEU339  MET340 
 GLY342  LEU343  ARG346  PHE356  ILE373  ILE376  PHE377  LEU380  LYS471  GLY472 
 MET473  HIS475  LEU476  LEU477  ASN478  MET479  VAL484  VAL487 

> <Gold.Protein.RotatedAtoms>
   36.9371   32.9588   41.8603 H   0  0  0  0  0  0  0  0  0  0  0  0  # atno 496  bound_to 491 

> <Gold.Score>
     Score     S(PLP)   S(hbond)     S(cho)   S(metal)  DE(clash)   DE(tors)     intcor
     44.40     -41.42       1.00       0.00       0.00       0.00       0.01       0.00

> <Gold.PLP.Fitness>
44.4034

> <Gold.PLP.PLP>
-41.4217

> <Gold.PLP.part.hbond>
-1.0000

> <Gold.PLP.part.metal>
0.0000

> <Gold.PLP.part.buried>
-6.6403

> <Gold.PLP.part.nonpolar>
-34.3320

> <Gold.PLP.part.repulsive>
0.2375

> <Gold.PLP.ligand.clash>
0.0000

> <Gold.PLP.ligand.torsion>
0.0098

> <Gold.PLP.Chemscore.Hbond>
1.0000

> <Gold.PLP.Chemscore.CHOScore>
0.0000

> <Gold.PLP.Chemscore.Metal>
0.0000

> <Gold.Chemscore.Hbonds>
donor molecule, donor type, donor heavy atom, donor atom, acceptor molecule, acceptor atom, score
      L1  H    12    27       P1   582  1.00

> <Gold.PLP.Chemscore.Internal.Correction>
0.0011

