#       Name:                EN300-28312681_i001
#       Creating user name   aseyller
#       Creation time:       Sat Apr 22 05:58:53 2023


#       File generated by GOLD software.
#

@<TRIPOS>MOLECULE
EN300-28312681_i001|amine_3|mol2|3604|dock18
    27    28     1
SMALL
USER_CHARGES


@<TRIPOS>ATOM
      1 C1          32.4018  38.2103  34.2537 C.3            1 <1>                0.0000
      2 O2          31.7831  37.6999  35.4641 O.3            1 <1>                0.0000
      3 C3          32.3745  36.6424  36.0546 C.2            1 <1>                0.0000
      4 O4          33.4317  36.2215  35.6285 O.2            1 <1>                0.0000
      5 C5          31.7389  35.9965  37.2167 C.2            1 <1>                0.0000
      6 C6          30.6362  36.4336  37.8999 C.2            1 <1>                0.0000
      7 C7          30.4543  35.4594  38.9065 C.2            1 <1>                0.0000
      8 N8          31.4015  34.5810  38.7493 N.2            1 <1>                0.0000
      9 O9          32.1219  34.8539  37.8176 O.3            1 <1>                0.0000
     10 C10         29.3745  35.4410  39.9577 C.3            1 <1>                0.0000
     11 C11         28.0016  35.4383  39.2802 C.3            1 <1>                0.0000
     12 N12         26.9531  35.4982  40.3089 N.3            1 <1>                0.0000
     13 C13         27.1042  36.7036  41.1370 C.3            1 <1>                0.0000
     14 C14         28.4861  36.6936  41.7958 C.3            1 <1>                0.0000
     15 O15         29.4912  36.6035  40.7824 O.3            1 <1>                0.0000
     16 H16         31.8275  39.0589  33.8822 H              1 <1>                0.0000
     17 H17         33.4207  38.5292  34.4731 H              1 <1>                0.0000
     18 H18         32.4215  37.4258  33.4972 H              1 <1>                0.0000
     19 H19         30.0438  37.3171  37.7133 H              1 <1>                0.0000
     20 H20         29.4793  34.5464  40.5714 H              1 <1>                0.0000
     21 H21         27.9178  36.3047  38.6240 H              1 <1>                0.0000
     22 H22         27.8860  34.5256  38.6955 H              1 <1>                0.0000
     23 H23         27.0060  37.5902  40.5107 H              1 <1>                0.0000
     24 H24         26.3335  36.7145  41.9078 H              1 <1>                0.0000
     25 H25         28.6245  37.6128  42.3651 H              1 <1>                0.0000
     26 H26         28.5647  35.8358  42.4637 H              1 <1>                0.0000
     27 H27         26.0350  35.4585  39.8923 H              1 <1>                0.0000
@<TRIPOS>BOND
    1    1    2 1     
    2    1   16 1     
    3    1   17 1     
    4    1   18 1     
    5    2    3 1     
    6    3    4 2     
    7    3    5 1     
    8    5    6 2     
    9    5    9 1     
   10    6    7 1     
   11    6   19 1     
   12    7    8 2     
   13    7   10 1     
   14    8    9 1     
   15   10   11 1     
   16   10   15 1     
   17   10   20 1     
   18   11   12 1     
   19   11   21 1     
   20   11   22 1     
   21   12   13 1     
   22   12   27 1     
   23   13   14 1     
   24   13   23 1     
   25   13   24 1     
   26   14   15 1     
   27   14   25 1     
   28   14   26 1     
@<TRIPOS>SUBSTRUCTURE
      1 ****           1
@<TRIPOS>SET
DONOR_HYDROGENS      STATIC     ATOMS    <user>   **** ""
1 27
ATOM$RED        STATIC     ATOMS    COLORGROUP SYSTEM
1 27
@<TRIPOS>COMMENT
> <Gold.Version>
2022.2.0

> <Gold.Id.Protein>
1qkm|1qkm_protein|mol2

> <Gold.Protein.RotatedTorsions>
[  496  491  490  487 ] final  -47.02 input  -89.99 | X-H torsion

> <Gold.Protein.ActiveResidues>
 MET295  LEU298  THR299  LEU301  ALA302  GLU305  TRP335  MET336  LEU339  MET340 
 GLY342  LEU343  ARG346  PHE356  ILE373  ILE376  PHE377  LEU380  LYS471  GLY472 
 MET473  HIS475  LEU476  LEU477  ASN478  MET479  VAL484  VAL487 

> <Gold.Protein.RotatedAtoms>
   36.4051   34.6907   41.6725 H   0  0  0  0  0  0  0  0  0  0  0  0  # atno 496  bound_to 491 

> <Gold.Score>
     Score     S(PLP)   S(hbond)     S(cho)   S(metal)  DE(clash)   DE(tors)     intcor
     38.96     -39.08       0.00       0.00       0.00       0.00       0.06       0.00

> <Gold.PLP.Fitness>
38.9586

> <Gold.PLP.PLP>
-39.0833

> <Gold.PLP.part.hbond>
0.0000

> <Gold.PLP.part.metal>
0.0000

> <Gold.PLP.part.buried>
-7.6225

> <Gold.PLP.part.nonpolar>
-32.1503

> <Gold.PLP.part.repulsive>
0.8970

> <Gold.PLP.ligand.clash>
0.0000

> <Gold.PLP.ligand.torsion>
0.0625

> <Gold.PLP.Chemscore.Hbond>
0.0000

> <Gold.PLP.Chemscore.CHOScore>
0.0000

> <Gold.PLP.Chemscore.Metal>
0.0000

> <Gold.PLP.Chemscore.Internal.Correction>
0.0002

