#       Name:                EN300-28312681_i001
#       Creating user name   aseyller
#       Creation time:       Sat Apr 22 05:58:53 2023


#       File generated by GOLD software.
#

@<TRIPOS>MOLECULE
EN300-28312681_i001|amine_3|mol2|3604|dock17
    27    28     1
SMALL
USER_CHARGES


@<TRIPOS>ATOM
      1 C1          25.6536  37.0014  41.0769 C.3            1 <1>                0.0000
      2 O2          26.6480  36.9981  40.0188 O.3            1 <1>                0.0000
      3 C3          27.7913  36.3246  40.2557 C.2            1 <1>                0.0000
      4 O4          27.8658  35.5690  41.2043 O.2            1 <1>                0.0000
      5 C5          28.9509  36.5046  39.3642 C.2            1 <1>                0.0000
      6 C6          29.0997  37.4537  38.3892 C.2            1 <1>                0.0000
      7 C7          30.3751  37.1829  37.8458 C.2            1 <1>                0.0000
      8 N8          30.8486  36.1621  38.4995 N.2            1 <1>                0.0000
      9 O9          30.0809  35.7723  39.3481 O.3            1 <1>                0.0000
     10 C10         31.0547  37.9299  36.7272 C.3            1 <1>                0.0000
     11 C11         30.1488  37.9374  35.4931 C.3            1 <1>                0.0000
     12 N12         30.8479  38.5997  34.3823 N.3            1 <1>                0.0000
     13 C13         32.1103  37.9109  34.0768 C.3            1 <1>                0.0000
     14 C14         32.9965  37.9037  35.3251 C.3            1 <1>                0.0000
     15 O15         32.2888  37.2843  36.4025 O.3            1 <1>                0.0000
     16 H16         24.7851  37.5773  40.7573 H              1 <1>                0.0000
     17 H17         25.3505  35.9772  41.2939 H              1 <1>                0.0000
     18 H18         26.0787  37.4523  41.9736 H              1 <1>                0.0000
     19 H19         28.4042  38.2285  38.1020 H              1 <1>                0.0000
     20 H20         31.2509  38.9552  37.0408 H              1 <1>                0.0000
     21 H21         29.9081  36.9120  35.2120 H              1 <1>                0.0000
     22 H22         29.2300  38.4786  35.7192 H              1 <1>                0.0000
     23 H23         31.9011  36.8853  33.7731 H              1 <1>                0.0000
     24 H24         32.6235  38.4329  33.2691 H              1 <1>                0.0000
     25 H25         33.9095  37.3446  35.1202 H              1 <1>                0.0000
     26 H26         33.2499  38.9283  35.5975 H              1 <1>                0.0000
     27 H27         30.2586  38.6539  33.5651 H              1 <1>                0.0000
@<TRIPOS>BOND
    1    1    2 1     
    2    1   16 1     
    3    1   17 1     
    4    1   18 1     
    5    2    3 1     
    6    3    4 2     
    7    3    5 1     
    8    5    6 2     
    9    5    9 1     
   10    6    7 1     
   11    6   19 1     
   12    7    8 2     
   13    7   10 1     
   14    8    9 1     
   15   10   11 1     
   16   10   15 1     
   17   10   20 1     
   18   11   12 1     
   19   11   21 1     
   20   11   22 1     
   21   12   13 1     
   22   12   27 1     
   23   13   14 1     
   24   13   23 1     
   25   13   24 1     
   26   14   15 1     
   27   14   25 1     
   28   14   26 1     
@<TRIPOS>SUBSTRUCTURE
      1 ****           1
@<TRIPOS>SET
DONOR_HYDROGENS      STATIC     ATOMS    <user>   **** ""
1 27
ATOM$RED        STATIC     ATOMS    COLORGROUP SYSTEM
1 27
@<TRIPOS>COMMENT
> <Gold.Version>
2022.2.0

> <Gold.Id.Protein>
1qkm|1qkm_protein|mol2

> <Gold.Protein.RotatedTorsions>
[  496  491  490  487 ] final   28.66 input  -89.99 | X-H torsion

> <Gold.Protein.ActiveResidues>
 MET295  LEU298  THR299  LEU301  ALA302  GLU305  TRP335  MET336  LEU339  MET340 
 GLY342  LEU343  ARG346  PHE356  ILE373  ILE376  PHE377  LEU380  LYS471  GLY472 
 MET473  HIS475  LEU476  LEU477  ASN478  MET479  VAL484  VAL487 

> <Gold.Protein.RotatedAtoms>
   36.3396   33.7764   42.3788 H   0  0  0  0  0  0  0  0  0  0  0  0  # atno 496  bound_to 491 

> <Gold.Score>
     Score     S(PLP)   S(hbond)     S(cho)   S(metal)  DE(clash)   DE(tors)     intcor
     38.90     -39.37       0.00       0.00       0.00       0.00       0.23       0.00

> <Gold.PLP.Fitness>
38.9022

> <Gold.PLP.PLP>
-39.3668

> <Gold.PLP.part.hbond>
0.0000

> <Gold.PLP.part.metal>
0.0000

> <Gold.PLP.part.buried>
-7.1432

> <Gold.PLP.part.nonpolar>
-33.2605

> <Gold.PLP.part.repulsive>
0.3506

> <Gold.PLP.ligand.clash>
0.0000

> <Gold.PLP.ligand.torsion>
0.2324

> <Gold.PLP.Chemscore.Hbond>
0.0000

> <Gold.PLP.Chemscore.CHOScore>
0.0000

> <Gold.PLP.Chemscore.Metal>
0.0000

> <Gold.PLP.Chemscore.Internal.Correction>
0.0002

