#       Name:                EN300-28312681_i001
#       Creating user name   aseyller
#       Creation time:       Sat Apr 22 05:58:47 2023


#       File generated by GOLD software.
#

@<TRIPOS>MOLECULE
EN300-28312681_i001|amine_3|mol2|3604|dock8
    27    28     1
SMALL
USER_CHARGES


@<TRIPOS>ATOM
      1 C1          25.8378  37.0158  41.2529 C.3            1 <1>                0.0000
      2 O2          26.8899  36.9002  40.2589 O.3            1 <1>                0.0000
      3 C3          28.0578  36.3627  40.6637 C.2            1 <1>                0.0000
      4 O4          28.2029  36.0274  41.8226 O.2            1 <1>                0.0000
      5 C5          29.1588  36.1817  39.7009 C.2            1 <1>                0.0000
      6 C6          29.8109  37.1620  39.0029 C.2            1 <1>                0.0000
      7 C7          30.7631  36.4544  38.2361 C.2            1 <1>                0.0000
      8 N8          30.6089  35.1944  38.5225 N.2            1 <1>                0.0000
      9 O9          29.7306  35.0188  39.3344 O.3            1 <1>                0.0000
     10 C10         31.7622  37.0435  37.2738 C.3            1 <1>                0.0000
     11 C11         31.0300  37.8991  36.2368 C.3            1 <1>                0.0000
     12 N12         31.9999  38.4081  35.2562 N.3            1 <1>                0.0000
     13 C13         32.6994  37.2990  34.5914 C.3            1 <1>                0.0000
     14 C14         33.4148  36.4494  35.6450 C.3            1 <1>                0.0000
     15 O15         32.4616  35.9893  36.6068 O.3            1 <1>                0.0000
     16 H16         24.9546  37.4629  40.7968 H              1 <1>                0.0000
     17 H17         25.5880  36.0259  41.6345 H              1 <1>                0.0000
     18 H18         26.1812  37.6456  42.0737 H              1 <1>                0.0000
     19 H19         29.6377  38.2276  39.0313 H              1 <1>                0.0000
     20 H20         32.4726  37.6633  37.8210 H              1 <1>                0.0000
     21 H21         30.2815  37.2922  35.7272 H              1 <1>                0.0000
     22 H22         30.5423  38.7370  36.7350 H              1 <1>                0.0000
     23 H23         31.9777  36.6825  34.0555 H              1 <1>                0.0000
     24 H24         33.4303  37.6988  33.8885 H              1 <1>                0.0000
     25 H25         33.8875  35.5937  35.1629 H              1 <1>                0.0000
     26 H26         34.1738  37.0518  36.1442 H              1 <1>                0.0000
     27 H27         31.5505  39.0086  34.5812 H              1 <1>                0.0000
@<TRIPOS>BOND
    1    1    2 1     
    2    1   16 1     
    3    1   17 1     
    4    1   18 1     
    5    2    3 1     
    6    3    4 2     
    7    3    5 1     
    8    5    6 2     
    9    5    9 1     
   10    6    7 1     
   11    6   19 1     
   12    7    8 2     
   13    7   10 1     
   14    8    9 1     
   15   10   11 1     
   16   10   15 1     
   17   10   20 1     
   18   11   12 1     
   19   11   21 1     
   20   11   22 1     
   21   12   13 1     
   22   12   27 1     
   23   13   14 1     
   24   13   23 1     
   25   13   24 1     
   26   14   15 1     
   27   14   25 1     
   28   14   26 1     
@<TRIPOS>SUBSTRUCTURE
      1 ****           1
@<TRIPOS>SET
DONOR_HYDROGENS      STATIC     ATOMS    <user>   **** ""
1 27
ATOM$RED        STATIC     ATOMS    COLORGROUP SYSTEM
1 27
@<TRIPOS>COMMENT
> <Gold.Version>
2022.2.0

> <Gold.Id.Protein>
1qkm|1qkm_protein|mol2

> <Gold.Protein.RotatedTorsions>
[  496  491  490  487 ] final   59.79 input  -89.99 | X-H torsion

> <Gold.Protein.ActiveResidues>
 MET295  LEU298  THR299  LEU301  ALA302  GLU305  TRP335  MET336  LEU339  MET340 
 GLY342  LEU343  ARG346  PHE356  ILE373  ILE376  PHE377  LEU380  LYS471  GLY472 
 MET473  HIS475  LEU476  LEU477  ASN478  MET479  VAL484  VAL487 

> <Gold.Protein.RotatedAtoms>
   36.5497   33.3220   42.3044 H   0  0  0  0  0  0  0  0  0  0  0  0  # atno 496  bound_to 491 

> <Gold.Score>
     Score     S(PLP)   S(hbond)     S(cho)   S(metal)  DE(clash)   DE(tors)     intcor
     38.69     -41.12       0.00       0.00       0.00       0.00       1.22       0.00

> <Gold.PLP.Fitness>
38.6865

> <Gold.PLP.PLP>
-41.1218

> <Gold.PLP.part.hbond>
0.0000

> <Gold.PLP.part.metal>
0.0000

> <Gold.PLP.part.buried>
-7.0811

> <Gold.PLP.part.nonpolar>
-35.0934

> <Gold.PLP.part.repulsive>
0.3790

> <Gold.PLP.ligand.clash>
0.0000

> <Gold.PLP.ligand.torsion>
1.2183

> <Gold.PLP.Chemscore.Hbond>
0.0000

> <Gold.PLP.Chemscore.CHOScore>
0.0000

> <Gold.PLP.Chemscore.Metal>
0.0000

> <Gold.PLP.Chemscore.Internal.Correction>
0.0011

