#       Name:                EN300-28312681_i001
#       Creating user name   aseyller
#       Creation time:       Sat Apr 22 05:58:47 2023


#       File generated by GOLD software.
#

@<TRIPOS>MOLECULE
EN300-28312681_i001|amine_3|mol2|3604|dock7
    27    28     1
SMALL
USER_CHARGES


@<TRIPOS>ATOM
      1 C1          33.4554  36.6876  34.9225 C.3            1 <1>                0.0000
      2 O2          32.3254  37.2618  35.6308 O.3            1 <1>                0.0000
      3 C3          32.0374  36.7474  36.8429 C.2            1 <1>                0.0000
      4 O4          32.9185  36.2531  37.5180 O.2            1 <1>                0.0000
      5 C5          30.6540  36.7844  37.3494 C.2            1 <1>                0.0000
      6 C6          30.1834  36.2113  38.4999 C.2            1 <1>                0.0000
      7 C7          28.8109  36.5457  38.5071 C.2            1 <1>                0.0000
      8 N8          28.5928  37.2441  37.4310 N.2            1 <1>                0.0000
      9 O9          29.5984  37.3939  36.7769 O.3            1 <1>                0.0000
     10 C10         27.7971  36.1670  39.5559 C.3            1 <1>                0.0000
     11 C11         26.4235  36.7152  39.1605 C.3            1 <1>                0.0000
     12 N12         25.4551  36.4096  40.2237 N.3            1 <1>                0.0000
     13 C13         25.8830  36.9959  41.5022 C.3            1 <1>                0.0000
     14 C14         27.2620  36.4449  41.8740 C.3            1 <1>                0.0000
     15 O15         28.1825  36.7237  40.8155 O.3            1 <1>                0.0000
     16 H16         33.5771  37.1912  33.9636 H              1 <1>                0.0000
     17 H17         34.3599  36.8151  35.5173 H              1 <1>                0.0000
     18 H18         33.2774  35.6253  34.7551 H              1 <1>                0.0000
     19 H19         30.7328  35.6372  39.2313 H              1 <1>                0.0000
     20 H20         27.7460  35.0813  39.6373 H              1 <1>                0.0000
     21 H21         26.4875  37.7950  39.0259 H              1 <1>                0.0000
     22 H22         26.1002  36.2503  38.2291 H              1 <1>                0.0000
     23 H23         25.9383  38.0801  41.4050 H              1 <1>                0.0000
     24 H24         25.1652  36.7358  42.2802 H              1 <1>                0.0000
     25 H25         27.6083  36.9196  42.7920 H              1 <1>                0.0000
     26 H26         27.1951  35.3673  42.0237 H              1 <1>                0.0000
     27 H27         24.5304  36.7257  39.9724 H              1 <1>                0.0000
@<TRIPOS>BOND
    1    1    2 1     
    2    1   16 1     
    3    1   17 1     
    4    1   18 1     
    5    2    3 1     
    6    3    4 2     
    7    3    5 1     
    8    5    6 2     
    9    5    9 1     
   10    6    7 1     
   11    6   19 1     
   12    7    8 2     
   13    7   10 1     
   14    8    9 1     
   15   10   11 1     
   16   10   15 1     
   17   10   20 1     
   18   11   12 1     
   19   11   21 1     
   20   11   22 1     
   21   12   13 1     
   22   12   27 1     
   23   13   14 1     
   24   13   23 1     
   25   13   24 1     
   26   14   15 1     
   27   14   25 1     
   28   14   26 1     
@<TRIPOS>SUBSTRUCTURE
      1 ****           1
@<TRIPOS>SET
DONOR_HYDROGENS      STATIC     ATOMS    <user>   **** ""
1 27
ATOM$RED        STATIC     ATOMS    COLORGROUP SYSTEM
1 27
@<TRIPOS>COMMENT
> <Gold.Version>
2022.2.0

> <Gold.Id.Protein>
1qkm|1qkm_protein|mol2

> <Gold.Protein.RotatedTorsions>
[  496  491  490  487 ] final  115.39 input  -89.99 | X-H torsion

> <Gold.Protein.ActiveResidues>
 MET295  LEU298  THR299  LEU301  ALA302  GLU305  TRP335  MET336  LEU339  MET340 
 GLY342  LEU343  ARG346  PHE356  ILE373  ILE376  PHE377  LEU380  LYS471  GLY472 
 MET473  HIS475  LEU476  LEU477  ASN478  MET479  VAL484  VAL487 

> <Gold.Protein.RotatedAtoms>
   37.0441   32.9395   41.6851 H   0  0  0  0  0  0  0  0  0  0  0  0  # atno 496  bound_to 491 

> <Gold.Score>
     Score     S(PLP)   S(hbond)     S(cho)   S(metal)  DE(clash)   DE(tors)     intcor
     39.78     -39.02       0.51       0.00       0.00       0.00       0.39       0.00

> <Gold.PLP.Fitness>
39.7762

> <Gold.PLP.PLP>
-39.0180

> <Gold.PLP.part.hbond>
-1.0000

> <Gold.PLP.part.metal>
0.0000

> <Gold.PLP.part.buried>
-4.1096

> <Gold.PLP.part.nonpolar>
-34.9397

> <Gold.PLP.part.repulsive>
0.1574

> <Gold.PLP.ligand.clash>
0.0000

> <Gold.PLP.ligand.torsion>
0.3890

> <Gold.PLP.Chemscore.Hbond>
0.5117

> <Gold.PLP.Chemscore.CHOScore>
0.0000

> <Gold.PLP.Chemscore.Metal>
0.0000

> <Gold.Chemscore.Hbonds>
donor molecule, donor type, donor heavy atom, donor atom, acceptor molecule, acceptor atom, score
      L1  H    12    27       P1  1131  0.51

> <Gold.PLP.Chemscore.Internal.Correction>
0.0011

