#       Name:                EN300-28312681_i001
#       Creating user name   aseyller
#       Creation time:       Sat Apr 22 05:58:52 2023


#       File generated by GOLD software.
#

@<TRIPOS>MOLECULE
EN300-28312681_i001|amine_3|mol2|3604|dock16
    27    28     1
SMALL
USER_CHARGES


@<TRIPOS>ATOM
      1 C1          25.5044  36.8607  41.2031 C.3            1 <1>                0.0000
      2 O2          26.6706  36.3732  40.4884 O.3            1 <1>                0.0000
      3 C3          26.9907  37.0009  39.3393 C.2            1 <1>                0.0000
      4 O4          26.1352  37.5935  38.7121 O.2            1 <1>                0.0000
      5 C5          28.3782  36.9684  38.8436 C.2            1 <1>                0.0000
      6 C6          28.8395  37.4686  37.6560 C.2            1 <1>                0.0000
      7 C7          30.2217  37.1781  37.6811 C.2            1 <1>                0.0000
      8 N8          30.4531  36.5691  38.8076 N.2            1 <1>                0.0000
      9 O9          29.4495  36.4459  39.4702 O.3            1 <1>                0.0000
     10 C10         31.2311  37.5084  36.6119 C.3            1 <1>                0.0000
     11 C11         30.8818  36.7517  35.3277 C.3            1 <1>                0.0000
     12 N12         31.9119  37.0171  34.3130 N.3            1 <1>                0.0000
     13 C13         33.2376  36.6046  34.7964 C.3            1 <1>                0.0000
     14 C14         33.5633  37.3628  36.0859 C.3            1 <1>                0.0000
     15 O15         32.5354  37.1179  37.0496 O.3            1 <1>                0.0000
     16 H16         25.3594  36.2698  42.1075 H              1 <1>                0.0000
     17 H17         25.6541  37.9062  41.4723 H              1 <1>                0.0000
     18 H18         24.6245  36.7719  40.5659 H              1 <1>                0.0000
     19 H19         28.2780  37.9683  36.8805 H              1 <1>                0.0000
     20 H20         31.2175  38.5808  36.4175 H              1 <1>                0.0000
     21 H21         30.8418  35.6822  35.5349 H              1 <1>                0.0000
     22 H22         29.9126  37.0880  34.9591 H              1 <1>                0.0000
     23 H23         33.2355  35.5329  34.9950 H              1 <1>                0.0000
     24 H24         33.9883  36.8337  34.0400 H              1 <1>                0.0000
     25 H25         34.5200  37.0187  36.4788 H              1 <1>                0.0000
     26 H26         33.6184  38.4310  35.8760 H              1 <1>                0.0000
     27 H27         31.6869  36.5613  33.4414 H              1 <1>                0.0000
@<TRIPOS>BOND
    1    1    2 1     
    2    1   16 1     
    3    1   17 1     
    4    1   18 1     
    5    2    3 1     
    6    3    4 2     
    7    3    5 1     
    8    5    6 2     
    9    5    9 1     
   10    6    7 1     
   11    6   19 1     
   12    7    8 2     
   13    7   10 1     
   14    8    9 1     
   15   10   11 1     
   16   10   15 1     
   17   10   20 1     
   18   11   12 1     
   19   11   21 1     
   20   11   22 1     
   21   12   13 1     
   22   12   27 1     
   23   13   14 1     
   24   13   23 1     
   25   13   24 1     
   26   14   15 1     
   27   14   25 1     
   28   14   26 1     
@<TRIPOS>SUBSTRUCTURE
      1 ****           1
@<TRIPOS>SET
DONOR_HYDROGENS      STATIC     ATOMS    <user>   **** ""
1 27
ATOM$RED        STATIC     ATOMS    COLORGROUP SYSTEM
1 27
@<TRIPOS>COMMENT
> <Gold.Version>
2022.2.0

> <Gold.Id.Protein>
1qkm|1qkm_protein|mol2

> <Gold.Protein.RotatedTorsions>
[  496  491  490  487 ] final    7.10 input  -89.99 | X-H torsion

> <Gold.Protein.ActiveResidues>
 MET295  LEU298  THR299  LEU301  ALA302  GLU305  TRP335  MET336  LEU339  MET340 
 GLY342  LEU343  ARG346  PHE356  ILE373  ILE376  PHE377  LEU380  LYS471  GLY472 
 MET473  HIS475  LEU476  LEU477  ASN478  MET479  VAL484  VAL487 

> <Gold.Protein.RotatedAtoms>
   36.2677   34.1099   42.2892 H   0  0  0  0  0  0  0  0  0  0  0  0  # atno 496  bound_to 491 

> <Gold.Score>
     Score     S(PLP)   S(hbond)     S(cho)   S(metal)  DE(clash)   DE(tors)     intcor
     37.91     -35.68       1.00       0.00       0.00       0.00       0.38       0.00

> <Gold.PLP.Fitness>
37.9117

> <Gold.PLP.PLP>
-35.6762

> <Gold.PLP.part.hbond>
-1.0000

> <Gold.PLP.part.metal>
0.0000

> <Gold.PLP.part.buried>
-7.3194

> <Gold.PLP.part.nonpolar>
-28.6332

> <Gold.PLP.part.repulsive>
0.2742

> <Gold.PLP.ligand.clash>
0.0000

> <Gold.PLP.ligand.torsion>
0.3824

> <Gold.PLP.Chemscore.Hbond>
1.0000

> <Gold.PLP.Chemscore.CHOScore>
0.0000

> <Gold.PLP.Chemscore.Metal>
0.0000

> <Gold.Chemscore.Hbonds>
donor molecule, donor type, donor heavy atom, donor atom, acceptor molecule, acceptor atom, score
      L1  H    12    27       P1  3187  1.00

> <Gold.PLP.Chemscore.Internal.Correction>
0.0002

