#       Name:                EN300-28312681_i001
#       Creating user name   aseyller
#       Creation time:       Sat Apr 22 05:58:51 2023


#       File generated by GOLD software.
#

@<TRIPOS>MOLECULE
EN300-28312681_i001|amine_3|mol2|3604|dock14
    27    28     1
SMALL
USER_CHARGES


@<TRIPOS>ATOM
      1 C1          33.6206  36.7001  34.5997 C.3            1 <1>                0.0000
      2 O2          32.6002  36.7598  35.6311 O.3            1 <1>                0.0000
      3 C3          31.5768  37.6137  35.4306 C.2            1 <1>                0.0000
      4 O4          31.5410  38.2935  34.4241 O.2            1 <1>                0.0000
      5 C5          30.5011  37.7229  36.4320 C.2            1 <1>                0.0000
      6 C6          30.4670  37.1395  37.6698 C.2            1 <1>                0.0000
      7 C7          29.2320  37.5631  38.2091 C.2            1 <1>                0.0000
      8 N8          28.6704  38.3141  37.3068 N.2            1 <1>                0.0000
      9 O9          29.3557  38.4216  36.3167 O.3            1 <1>                0.0000
     10 C10         28.6736  37.2133  39.5644 C.3            1 <1>                0.0000
     11 C11         29.7026  36.3910  40.3446 C.3            1 <1>                0.0000
     12 N12         29.1238  35.9875  41.6344 N.3            1 <1>                0.0000
     13 C13         27.8985  35.2007  41.4319 C.3            1 <1>                0.0000
     14 C14         26.8876  36.0349  40.6408 C.3            1 <1>                0.0000
     15 O15         27.4785  36.4442  39.4044 O.3            1 <1>                0.0000
     16 H16         34.3837  35.9760  34.8852 H              1 <1>                0.0000
     17 H17         33.1665  36.3967  33.6565 H              1 <1>                0.0000
     18 H18         34.0776  37.6829  34.4835 H              1 <1>                0.0000
     19 H19         31.2104  36.5035  38.1273 H              1 <1>                0.0000
     20 H20         28.4479  38.1283  40.1122 H              1 <1>                0.0000
     21 H21         29.9691  35.5030  39.7714 H              1 <1>                0.0000
     22 H22         30.5941  36.9938  40.5185 H              1 <1>                0.0000
     23 H23         28.1360  34.2936  40.8762 H              1 <1>                0.0000
     24 H24         27.4729  34.9344  42.3995 H              1 <1>                0.0000
     25 H25         25.9997  35.4356  40.4390 H              1 <1>                0.0000
     26 H26         26.6093  36.9151  41.2203 H              1 <1>                0.0000
     27 H27         29.7947  35.4759  42.1877 H              1 <1>                0.0000
@<TRIPOS>BOND
    1    1    2 1     
    2    1   16 1     
    3    1   17 1     
    4    1   18 1     
    5    2    3 1     
    6    3    4 2     
    7    3    5 1     
    8    5    6 2     
    9    5    9 1     
   10    6    7 1     
   11    6   19 1     
   12    7    8 2     
   13    7   10 1     
   14    8    9 1     
   15   10   11 1     
   16   10   15 1     
   17   10   20 1     
   18   11   12 1     
   19   11   21 1     
   20   11   22 1     
   21   12   13 1     
   22   12   27 1     
   23   13   14 1     
   24   13   23 1     
   25   13   24 1     
   26   14   15 1     
   27   14   25 1     
   28   14   26 1     
@<TRIPOS>SUBSTRUCTURE
      1 ****           1
@<TRIPOS>SET
DONOR_HYDROGENS      STATIC     ATOMS    <user>   **** ""
1 27
ATOM$RED        STATIC     ATOMS    COLORGROUP SYSTEM
1 27
@<TRIPOS>COMMENT
> <Gold.Version>
2022.2.0

> <Gold.Id.Protein>
1qkm|1qkm_protein|mol2

> <Gold.Protein.RotatedTorsions>
[  496  491  490  487 ] final  -10.84 input  -89.99 | X-H torsion

> <Gold.Protein.ActiveResidues>
 MET295  LEU298  THR299  LEU301  ALA302  GLU305  TRP335  MET336  LEU339  MET340 
 GLY342  LEU343  ARG346  PHE356  ILE373  ILE376  PHE377  LEU380  LYS471  GLY472 
 MET473  HIS475  LEU476  LEU477  ASN478  MET479  VAL484  VAL487 

> <Gold.Protein.RotatedAtoms>
   36.2632   34.3604   42.1349 H   0  0  0  0  0  0  0  0  0  0  0  0  # atno 496  bound_to 491 

> <Gold.Score>
     Score     S(PLP)   S(hbond)     S(cho)   S(metal)  DE(clash)   DE(tors)     intcor
     38.46     -36.43       0.72       0.00       0.00       0.00       0.06       0.00

> <Gold.PLP.Fitness>
38.4598

> <Gold.PLP.PLP>
-36.4271

> <Gold.PLP.part.hbond>
-1.0000

> <Gold.PLP.part.metal>
0.0000

> <Gold.PLP.part.buried>
-2.5932

> <Gold.PLP.part.nonpolar>
-32.8145

> <Gold.PLP.part.repulsive>
0.1720

> <Gold.PLP.ligand.clash>
0.0000

> <Gold.PLP.ligand.torsion>
0.0602

> <Gold.PLP.Chemscore.Hbond>
0.7176

> <Gold.PLP.Chemscore.CHOScore>
0.0000

> <Gold.PLP.Chemscore.Metal>
0.0000

> <Gold.Chemscore.Hbonds>
donor molecule, donor type, donor heavy atom, donor atom, acceptor molecule, acceptor atom, score
      L1  H    12    27       P1   470  0.72

> <Gold.PLP.Chemscore.Internal.Correction>
0.0002

