#       Name:                plp ligand
#       Creating user name   aseyller
#       Creation time:       Sat Apr 22 05:58:43 2023


#       File generated by GOLD software.
#

@<TRIPOS>MOLECULE
plp ligand
    27    28     1
SMALL
USER_CHARGES


@<TRIPOS>ATOM
      1 C1           5.8390  -0.0903   0.2291 NONPOLAR       1 <1>                0.0000
      2 O2           4.5387   0.5255   0.0331 ACCEPTOR       1 <1>                0.0000
      3 C3           3.4728  -0.2980  -0.0162 NONPOLAR       1 <1>                0.0000
      4 O4           3.6260  -1.4976   0.1013 ACCEPTOR       1 <1>                0.0000
      5 C5           2.1216   0.2565  -0.2127 NONPOLAR       1 <1>                0.0000
      6 C6           0.9474  -0.4433  -0.2844 NONPOLAR       1 <1>                0.0000
      7 C7          -0.0311   0.5573  -0.4760 NONPOLAR       1 <1>                0.0000
      8 N8           0.6003   1.6949  -0.5008 ACCEPTOR       1 <1>                0.0000
      9 O9           1.7918   1.5547  -0.3521 ACCEPTOR       1 <1>                0.0000
     10 C10         -1.5163   0.3482  -0.6234 NONPOLAR       1 <1>                0.0000
     11 C11         -2.2571   1.1913   0.4178 NONPOLAR       1 <1>                0.0000
     12 N12         -3.6996   0.9248   0.3203 DONACC         1 <1>                0.0000
     13 C13         -3.9812  -0.5022   0.5342 NONPOLAR       1 <1>                0.0000
     14 C14         -3.2231  -1.3283  -0.5082 NONPOLAR       1 <1>                0.0000
     15 O15         -1.8266  -1.0329  -0.4195 ACCEPTOR       1 <1>                0.0000
     16 H16          6.6075   0.6824   0.2497                1 <1>                0.0000
     17 H17          5.8449  -0.6339   1.1738                1 <1>                0.0000
     18 H18          6.0406  -0.7816  -0.5892                1 <1>                0.0000
     19 H19          0.8028  -1.5111  -0.2119                1 <1>                0.0000
     20 H20         -1.8285   0.6483  -1.6237                1 <1>                0.0000
     21 H21         -1.9051   0.9292   1.4156                1 <1>                0.0000
     22 H22         -2.0689   2.2486   0.2309                1 <1>                0.0000
     23 H23         -3.6569  -0.7914   1.5338                1 <1>                0.0000
     24 H24         -5.0516  -0.6812   0.4322                1 <1>                0.0000
     25 H25         -3.3834  -2.3896  -0.3183                1 <1>                0.0000
     26 H26         -3.5856  -1.0775  -1.5051                1 <1>                0.0000
     27 H27         -4.2178   1.4970   0.9700                1 <1>                0.0000
@<TRIPOS>BOND
    1    1    2 1     
    2    1   16 1     
    3    1   17 1     
    4    1   18 1     
    5    2    3 1     
    6    3    4 2     
    7    3    5 1     
    8    5    6 2     
    9    5    9 1     
   10    6    7 1     
   11    6   19 1     
   12    7    8 2     
   13    7   10 1     
   14    8    9 1     
   15   10   11 1     
   16   10   15 1     
   17   10   20 1     
   18   11   12 1     
   19   11   21 1     
   20   11   22 1     
   21   12   13 1     
   22   12   27 1     
   23   13   14 1     
   24   13   23 1     
   25   13   24 1     
   26   14   15 1     
   27   14   25 1     
   28   14   26 1     
@<TRIPOS>SUBSTRUCTURE
      1 ****           1
@<TRIPOS>SET
DONOR_HYDROGENS      STATIC     ATOMS    <user>   **** ""
1 27
ATOM$RED        STATIC     ATOMS    COLORGROUP SYSTEM
1 27
