#       Name:                EN300-73977_i001
#       Creating user name   aseyller
#       Creation time:       Fri Apr 21 15:45:50 2023


#       File generated by GOLD software.
#

@<TRIPOS>MOLECULE
EN300-73977_i001|amine_1|mol2|992|dock16
    15    15     1
SMALL
USER_CHARGES


@<TRIPOS>ATOM
      1 N1          26.0811  36.1010  41.3535 N.pl3          1 <1>                0.0000
      2 C2          26.8723  36.3576  40.2278 C.ar           1 <1>                0.0000
      3 C3          26.3164  36.9637  39.1103 C.ar           1 <1>                0.0000
      4 C4          27.0993  37.2158  37.9995 C.ar           1 <1>                0.0000
      5 C5          28.4369  36.8659  37.9983 C.ar           1 <1>                0.0000
      6 C6          28.9985  36.2615  39.1092 C.ar           1 <1>                0.0000
      7 Cl7         30.6785  35.8239  39.1030 Cl             1 <1>                0.0000
      8 C8          28.2210  36.0103  40.2289 C.ar           1 <1>                0.0000
      9 O9          28.7715  35.4165  41.3220 O.3            1 <1>                0.0000
     10 H10         25.2719  37.2382  39.1084 H              1 <1>                0.0000
     11 H11         26.6650  37.6870  37.1303 H              1 <1>                0.0000
     12 H12         29.0448  37.0645  37.1280 H              1 <1>                0.0000
     13 H13         25.1427  36.3470  41.3530 H              1 <1>                0.0000
     14 H14         26.4699  35.6735  42.1325 H              1 <1>                0.0000
     15 H15         28.1233  35.0460  41.9365 H              1 <1>                0.0000
@<TRIPOS>BOND
    1    1    2 1     
    2    1   13 1     
    3    1   14 1     
    4    2    3 ar    
    5    2    8 ar    
    6    3    4 ar    
    7    3   10 1     
    8    4    5 ar    
    9    4   11 1     
   10    5    6 ar    
   11    5   12 1     
   12    6    7 1     
   13    6    8 ar    
   14    8    9 1     
   15    9   15 1     
@<TRIPOS>SUBSTRUCTURE
      1 ****           1
@<TRIPOS>SET
DONOR_HYDROGENS      STATIC     ATOMS    <user>   **** ""
3 13 14 15
ATOM$RED        STATIC     ATOMS    COLORGROUP SYSTEM
3 13 14 15
@<TRIPOS>COMMENT
> <Gold.Version>
2022.2.0

> <Gold.Id.Protein>
1qkm|1qkm_protein|mol2

> <Gold.Protein.RotatedTorsions>
[  496  491  490  487 ] final   41.38 input  -89.99 | X-H torsion

> <Gold.Protein.ActiveResidues>
 MET295  LEU298  THR299  LEU301  ALA302  GLU305  TRP335  MET336  LEU339  MET340 
 GLY342  LEU343  ARG346  PHE356  ILE373  ILE376  PHE377  LEU380  LYS471  GLY472 
 MET473  HIS475  LEU476  LEU477  ASN478  MET479  VAL484  VAL487 

> <Gold.Protein.RotatedAtoms>
   36.4126   33.5805   42.3775 H   0  0  0  0  0  0  0  0  0  0  0  0  # atno 496  bound_to 491 

> <Gold.Score>
     Score     S(PLP)   S(hbond)     S(cho)   S(metal)  DE(clash)   DE(tors)     intcor
     32.99     -30.33       0.89       0.00       0.00       0.00       0.00       0.00

> <Gold.PLP.Fitness>
32.9917

> <Gold.PLP.PLP>
-30.3272

> <Gold.PLP.part.hbond>
-1.6022

> <Gold.PLP.part.metal>
0.0000

> <Gold.PLP.part.buried>
-2.9828

> <Gold.PLP.part.nonpolar>
-27.0123

> <Gold.PLP.part.repulsive>
0.0567

> <Gold.PLP.ligand.clash>
0.0000

> <Gold.PLP.ligand.torsion>
0.0000

> <Gold.PLP.Chemscore.Hbond>
0.8882

> <Gold.PLP.Chemscore.CHOScore>
0.0000

> <Gold.PLP.Chemscore.Metal>
0.0000

> <Gold.Chemscore.Hbonds>
donor molecule, donor type, donor heavy atom, donor atom, acceptor molecule, acceptor atom, score
      L1  H     1    14       P1   582  0.89

> <Gold.PLP.Chemscore.Internal.Correction>
0.0000

