#       Name:                EN300-73977_i001
#       Creating user name   aseyller
#       Creation time:       Fri Apr 21 15:45:48 2023


#       File generated by GOLD software.
#

@<TRIPOS>MOLECULE
EN300-73977_i001|amine_1|mol2|992|dock9
    15    15     1
SMALL
USER_CHARGES


@<TRIPOS>ATOM
      1 N1          29.4047  35.9166  42.1013 N.pl3          1 <1>                0.0000
      2 C2          28.9547  36.2975  40.8318 C.ar           1 <1>                0.0000
      3 C3          29.8507  36.3966  39.7770 C.ar           1 <1>                0.0000
      4 C4          29.4045  36.7734  38.5243 C.ar           1 <1>                0.0000
      5 C5          28.0660  37.0519  38.3183 C.ar           1 <1>                0.0000
      6 C6          27.1664  36.9547  39.3652 C.ar           1 <1>                0.0000
      7 Cl7         25.4867  37.3054  39.1016 Cl             1 <1>                0.0000
      8 C8          27.6055  36.5724  40.6230 C.ar           1 <1>                0.0000
      9 O9          26.7225  36.4760  41.6534 O.3            1 <1>                0.0000
     10 H10         30.8968  36.1797  39.9350 H              1 <1>                0.0000
     11 H11         30.1032  36.8508  37.7045 H              1 <1>                0.0000
     12 H12         27.7218  37.3462  37.3378 H              1 <1>                0.0000
     13 H13         30.3441  35.7215  42.2445 H              1 <1>                0.0000
     14 H14         28.7780  35.8516  42.8387 H              1 <1>                0.0000
     15 H15         26.5885  35.5734  41.9733 H              1 <1>                0.0000
@<TRIPOS>BOND
    1    1    2 1     
    2    1   13 1     
    3    1   14 1     
    4    2    3 ar    
    5    2    8 ar    
    6    3    4 ar    
    7    3   10 1     
    8    4    5 ar    
    9    4   11 1     
   10    5    6 ar    
   11    5   12 1     
   12    6    7 1     
   13    6    8 ar    
   14    8    9 1     
   15    9   15 1     
@<TRIPOS>SUBSTRUCTURE
      1 ****           1
@<TRIPOS>SET
DONOR_HYDROGENS      STATIC     ATOMS    <user>   **** ""
3 13 14 15
ATOM$RED        STATIC     ATOMS    COLORGROUP SYSTEM
3 13 14 15
@<TRIPOS>COMMENT
> <Gold.Version>
2022.2.0

> <Gold.Id.Protein>
1qkm|1qkm_protein|mol2

> <Gold.Protein.RotatedTorsions>
[  496  491  490  487 ] final -135.09 input  -89.99 | X-H torsion

> <Gold.Protein.ActiveResidues>
 MET295  LEU298  THR299  LEU301  ALA302  GLU305  TRP335  MET336  LEU339  MET340 
 GLY342  LEU343  ARG346  PHE356  ILE373  ILE376  PHE377  LEU380  LYS471  GLY472 
 MET473  HIS475  LEU476  LEU477  ASN478  MET479  VAL484  VAL487 

> <Gold.Protein.RotatedAtoms>
   37.1413   34.1472   40.7335 H   0  0  0  0  0  0  0  0  0  0  0  0  # atno 496  bound_to 491 

> <Gold.Score>
     Score     S(PLP)   S(hbond)     S(cho)   S(metal)  DE(clash)   DE(tors)     intcor
     36.10     -31.35       1.59       0.00       0.00       0.00       0.00       0.00

> <Gold.PLP.Fitness>
36.1047

> <Gold.PLP.PLP>
-31.3497

> <Gold.PLP.part.hbond>
-1.9929

> <Gold.PLP.part.metal>
0.0000

> <Gold.PLP.part.buried>
-3.1809

> <Gold.PLP.part.nonpolar>
-27.5773

> <Gold.PLP.part.repulsive>
0.1267

> <Gold.PLP.ligand.clash>
0.0000

> <Gold.PLP.ligand.torsion>
0.0000

> <Gold.PLP.Chemscore.Hbond>
1.5850

> <Gold.PLP.Chemscore.CHOScore>
0.0000

> <Gold.PLP.Chemscore.Metal>
0.0000

> <Gold.Chemscore.Hbonds>
donor molecule, donor type, donor heavy atom, donor atom, acceptor molecule, acceptor atom, score
      L1  H     1    13       P1   470  1.00
      L1  H     9    15       P1   582  0.59

> <Gold.PLP.Chemscore.Internal.Correction>
0.0000

