#       Name:                EN300-73977_i001
#       Creating user name   aseyller
#       Creation time:       Fri Apr 21 15:45:50 2023


#       File generated by GOLD software.
#

@<TRIPOS>MOLECULE
EN300-73977_i001|amine_1|mol2|992|dock18
    15    15     1
SMALL
USER_CHARGES


@<TRIPOS>ATOM
      1 N1          30.2806  36.0120  39.7733 N.pl3          1 <1>                0.0000
      2 C2          30.9909  36.0955  38.5702 C.ar           1 <1>                0.0000
      3 C3          32.1586  35.3657  38.3996 C.ar           1 <1>                0.0000
      4 C4          32.8588  35.4498  37.2109 C.ar           1 <1>                0.0000
      5 C5          32.3986  36.2598  36.1893 C.ar           1 <1>                0.0000
      6 C6          31.2346  36.9903  36.3518 C.ar           1 <1>                0.0000
      7 Cl7         30.6607  38.0060  35.0662 Cl             1 <1>                0.0000
      8 C8          30.5241  36.9070  37.5390 C.ar           1 <1>                0.0000
      9 O9          29.3794  37.6241  37.7004 O.3            1 <1>                0.0000
     10 H10         32.5205  34.7321  39.1959 H              1 <1>                0.0000
     11 H11         33.7678  34.8817  37.0800 H              1 <1>                0.0000
     12 H12         32.9491  36.3228  35.2623 H              1 <1>                0.0000
     13 H13         30.6047  35.4433  40.4893 H              1 <1>                0.0000
     14 H14         29.4667  36.5258  39.8928 H              1 <1>                0.0000
     15 H15         28.6404  37.1107  38.0543 H              1 <1>                0.0000
@<TRIPOS>BOND
    1    1    2 1     
    2    1   13 1     
    3    1   14 1     
    4    2    3 ar    
    5    2    8 ar    
    6    3    4 ar    
    7    3   10 1     
    8    4    5 ar    
    9    4   11 1     
   10    5    6 ar    
   11    5   12 1     
   12    6    7 1     
   13    6    8 ar    
   14    8    9 1     
   15    9   15 1     
@<TRIPOS>SUBSTRUCTURE
      1 ****           1
@<TRIPOS>SET
DONOR_HYDROGENS      STATIC     ATOMS    <user>   **** ""
3 13 14 15
ATOM$RED        STATIC     ATOMS    COLORGROUP SYSTEM
3 13 14 15
@<TRIPOS>COMMENT
> <Gold.Version>
2022.2.0

> <Gold.Id.Protein>
1qkm|1qkm_protein|mol2

> <Gold.Protein.RotatedTorsions>
[  496  491  490  487 ] final   62.55 input  -89.99 | X-H torsion

> <Gold.Protein.ActiveResidues>
 MET295  LEU298  THR299  LEU301  ALA302  GLU305  TRP335  MET336  LEU339  MET340 
 GLY342  LEU343  ARG346  PHE356  ILE373  ILE376  PHE377  LEU380  LYS471  GLY472 
 MET473  HIS475  LEU476  LEU477  ASN478  MET479  VAL484  VAL487 

> <Gold.Protein.RotatedAtoms>
   36.5728   33.2871   42.2865 H   0  0  0  0  0  0  0  0  0  0  0  0  # atno 496  bound_to 491 

> <Gold.Score>
     Score     S(PLP)   S(hbond)     S(cho)   S(metal)  DE(clash)   DE(tors)     intcor
     30.26     -27.26       1.00       0.00       0.00       0.00       0.00       0.00

> <Gold.PLP.Fitness>
30.2626

> <Gold.PLP.PLP>
-27.2626

> <Gold.PLP.part.hbond>
-1.0000

> <Gold.PLP.part.metal>
0.0000

> <Gold.PLP.part.buried>
-2.6040

> <Gold.PLP.part.nonpolar>
-23.9354

> <Gold.PLP.part.repulsive>
0.0491

> <Gold.PLP.ligand.clash>
0.0000

> <Gold.PLP.ligand.torsion>
0.0000

> <Gold.PLP.Chemscore.Hbond>
1.0000

> <Gold.PLP.Chemscore.CHOScore>
0.0000

> <Gold.PLP.Chemscore.Metal>
0.0000

> <Gold.Chemscore.Hbonds>
donor molecule, donor type, donor heavy atom, donor atom, acceptor molecule, acceptor atom, score
      L1  H     1    13       P1   470  1.00

> <Gold.PLP.Chemscore.Internal.Correction>
0.0000

