#       Name:                EN300-73977_i001
#       Creating user name   aseyller
#       Creation time:       Fri Apr 21 15:45:47 2023


#       File generated by GOLD software.
#

@<TRIPOS>MOLECULE
EN300-73977_i001|amine_1|mol2|992|dock2
    15    15     1
SMALL
USER_CHARGES


@<TRIPOS>ATOM
      1 N1          25.4499  36.4014  42.0600 N.pl3          1 <1>                0.0000
      2 C2          26.1744  36.5452  40.8711 C.ar           1 <1>                0.0000
      3 C3          25.6557  37.2977  39.8271 C.ar           1 <1>                0.0000
      4 C4          26.3725  37.4381  38.6537 C.ar           1 <1>                0.0000
      5 C5          27.6068  36.8305  38.5166 C.ar           1 <1>                0.0000
      6 C6          28.1309  36.0789  39.5535 C.ar           1 <1>                0.0000
      7 Cl7         29.6812  35.3178  39.3767 Cl             1 <1>                0.0000
      8 C8          27.4204  35.9379  40.7352 C.ar           1 <1>                0.0000
      9 O9          27.9341  35.1996  41.7559 O.3            1 <1>                0.0000
     10 H10         24.6918  37.7734  39.9313 H              1 <1>                0.0000
     11 H11         25.9671  38.0235  37.8418 H              1 <1>                0.0000
     12 H12         28.1633  36.9427  37.5978 H              1 <1>                0.0000
     13 H13         24.5839  36.8282  42.1548 H              1 <1>                0.0000
     14 H14         25.8117  35.8717  42.7875 H              1 <1>                0.0000
     15 H15         27.2782  34.9241  42.4108 H              1 <1>                0.0000
@<TRIPOS>BOND
    1    1    2 1     
    2    1   13 1     
    3    1   14 1     
    4    2    3 ar    
    5    2    8 ar    
    6    3    4 ar    
    7    3   10 1     
    8    4    5 ar    
    9    4   11 1     
   10    5    6 ar    
   11    5   12 1     
   12    6    7 1     
   13    6    8 ar    
   14    8    9 1     
   15    9   15 1     
@<TRIPOS>SUBSTRUCTURE
      1 ****           1
@<TRIPOS>SET
DONOR_HYDROGENS      STATIC     ATOMS    <user>   **** ""
3 13 14 15
ATOM$RED        STATIC     ATOMS    COLORGROUP SYSTEM
3 13 14 15
@<TRIPOS>COMMENT
> <Gold.Version>
2022.2.0

> <Gold.Id.Protein>
1qkm|1qkm_protein|mol2

> <Gold.Protein.RotatedTorsions>
[  496  491  490  487 ] final -160.77 input  -89.99 | X-H torsion

> <Gold.Protein.ActiveResidues>
 MET295  LEU298  THR299  LEU301  ALA302  GLU305  TRP335  MET336  LEU339  MET340 
 GLY342  LEU343  ARG346  PHE356  ILE373  ILE376  PHE377  LEU380  LYS471  GLY472 
 MET473  HIS475  LEU476  LEU477  ASN478  MET479  VAL484  VAL487 

> <Gold.Protein.RotatedAtoms>
   37.2780   33.7513   40.7500 H   0  0  0  0  0  0  0  0  0  0  0  0  # atno 496  bound_to 491 

> <Gold.Score>
     Score     S(PLP)   S(hbond)     S(cho)   S(metal)  DE(clash)   DE(tors)     intcor
     40.14     -34.14       2.00       0.00       0.00       0.00       0.00       0.00

> <Gold.PLP.Fitness>
40.1442

> <Gold.PLP.PLP>
-34.1442

> <Gold.PLP.part.hbond>
-2.0000

> <Gold.PLP.part.metal>
0.0000

> <Gold.PLP.part.buried>
-4.4442

> <Gold.PLP.part.nonpolar>
-29.4219

> <Gold.PLP.part.repulsive>
1.2544

> <Gold.PLP.ligand.clash>
0.0000

> <Gold.PLP.ligand.torsion>
0.0000

> <Gold.PLP.Chemscore.Hbond>
2.0000

> <Gold.PLP.Chemscore.CHOScore>
0.0000

> <Gold.PLP.Chemscore.Metal>
0.0000

> <Gold.Chemscore.Hbonds>
donor molecule, donor type, donor heavy atom, donor atom, acceptor molecule, acceptor atom, score
      L1  H     1    14       P1   582  1.00
      L1  H     9    15       P1   582  1.00

> <Gold.PLP.Chemscore.Internal.Correction>
0.0000

