#       Name:                EN300-73977_i001
#       Creating user name   aseyller
#       Creation time:       Fri Apr 21 15:45:49 2023


#       File generated by GOLD software.
#

@<TRIPOS>MOLECULE
EN300-73977_i001|amine_1|mol2|992|dock10
    15    15     1
SMALL
USER_CHARGES


@<TRIPOS>ATOM
      1 N1          24.5374  36.6898  41.0365 N.pl3          1 <1>                0.0000
      2 C2          25.8035  36.6932  40.4398 C.ar           1 <1>                0.0000
      3 C3          25.9209  36.6943  39.0573 C.ar           1 <1>                0.0000
      4 C4          27.1722  36.6972  38.4700 C.ar           1 <1>                0.0000
      5 C5          28.3090  36.6993  39.2568 C.ar           1 <1>                0.0000
      6 C6          28.1999  36.6986  40.6363 C.ar           1 <1>                0.0000
      7 Cl7         29.6302  36.7013  41.6202 Cl             1 <1>                0.0000
      8 C8          26.9486  36.7011  41.2325 C.ar           1 <1>                0.0000
      9 O9          26.8393  36.7008  42.5885 O.3            1 <1>                0.0000
     10 H10         25.0347  36.6927  38.4401 H              1 <1>                0.0000
     11 H11         27.2619  36.6974  37.3938 H              1 <1>                0.0000
     12 H12         29.2846  36.7012  38.7937 H              1 <1>                0.0000
     13 H13         23.7405  36.6883  40.4832 H              1 <1>                0.0000
     14 H14         24.4566  36.6849  42.0030 H              1 <1>                0.0000
     15 H15         26.8612  35.8189  42.9845 H              1 <1>                0.0000
@<TRIPOS>BOND
    1    1    2 1     
    2    1   13 1     
    3    1   14 1     
    4    2    3 ar    
    5    2    8 ar    
    6    3    4 ar    
    7    3   10 1     
    8    4    5 ar    
    9    4   11 1     
   10    5    6 ar    
   11    5   12 1     
   12    6    7 1     
   13    6    8 ar    
   14    8    9 1     
   15    9   15 1     
@<TRIPOS>SUBSTRUCTURE
      1 ****           1
@<TRIPOS>SET
DONOR_HYDROGENS      STATIC     ATOMS    <user>   **** ""
3 13 14 15
ATOM$RED        STATIC     ATOMS    COLORGROUP SYSTEM
3 13 14 15
@<TRIPOS>COMMENT
> <Gold.Version>
2022.2.0

> <Gold.Id.Protein>
1qkm|1qkm_protein|mol2

> <Gold.Protein.RotatedTorsions>
[  496  491  490  487 ] final   39.37 input  -89.99 | X-H torsion

> <Gold.Protein.ActiveResidues>
 MET295  LEU298  THR299  LEU301  ALA302  GLU305  TRP335  MET336  LEU339  MET340 
 GLY342  LEU343  ARG346  PHE356  ILE373  ILE376  PHE377  LEU380  LYS471  GLY472 
 MET473  HIS475  LEU476  LEU477  ASN478  MET479  VAL484  VAL487 

> <Gold.Protein.RotatedAtoms>
   36.3998   33.6109   42.3804 H   0  0  0  0  0  0  0  0  0  0  0  0  # atno 496  bound_to 491 

> <Gold.Score>
     Score     S(PLP)   S(hbond)     S(cho)   S(metal)  DE(clash)   DE(tors)     intcor
     34.57     -28.57       2.00       0.00       0.00       0.00       0.00       0.00

> <Gold.PLP.Fitness>
34.5676

> <Gold.PLP.PLP>
-28.5676

> <Gold.PLP.part.hbond>
-1.8764

> <Gold.PLP.part.metal>
0.0000

> <Gold.PLP.part.buried>
2.3684

> <Gold.PLP.part.nonpolar>
-30.1527

> <Gold.PLP.part.repulsive>
0.9298

> <Gold.PLP.ligand.clash>
0.0000

> <Gold.PLP.ligand.torsion>
0.0000

> <Gold.PLP.Chemscore.Hbond>
2.0000

> <Gold.PLP.Chemscore.CHOScore>
0.0000

> <Gold.PLP.Chemscore.Metal>
0.0000

> <Gold.Chemscore.Hbonds>
donor molecule, donor type, donor heavy atom, donor atom, acceptor molecule, acceptor atom, score
      L1  H     1    13       P1  1131  1.00
      L1  H     9    15       P1   582  1.00

> <Gold.PLP.Chemscore.Internal.Correction>
0.0000

