#       Name:                EN300-73977_i001
#       Creating user name   aseyller
#       Creation time:       Fri Apr 21 15:45:51 2023


#       File generated by GOLD software.
#

@<TRIPOS>MOLECULE
EN300-73977_i001|amine_1|mol2|992|dock20
    15    15     1
SMALL
USER_CHARGES


@<TRIPOS>ATOM
      1 N1          29.9982  38.0822  38.5018 N.pl3          1 <1>                0.0000
      2 C2          30.8613  37.1535  37.9088 C.ar           1 <1>                0.0000
      3 C3          31.5899  37.5026  36.7808 C.ar           1 <1>                0.0000
      4 C4          32.4413  36.5839  36.1964 C.ar           1 <1>                0.0000
      5 C5          32.5699  35.3163  36.7332 C.ar           1 <1>                0.0000
      6 C6          31.8469  34.9609  37.8583 C.ar           1 <1>                0.0000
      7 Cl7         32.0117  33.3681  38.5288 Cl             1 <1>                0.0000
      8 C8          30.9951  35.8785  38.4531 C.ar           1 <1>                0.0000
      9 O9          30.2837  35.5311  39.5594 O.3            1 <1>                0.0000
     10 H10         31.4915  38.4920  36.3593 H              1 <1>                0.0000
     11 H11         33.0072  36.8569  35.3181 H              1 <1>                0.0000
     12 H12         33.2362  34.6015  36.2731 H              1 <1>                0.0000
     13 H13         29.9088  38.9713  38.1241 H              1 <1>                0.0000
     14 H14         29.4863  37.8356  39.2879 H              1 <1>                0.0000
     15 H15         30.8244  35.4060  40.3512 H              1 <1>                0.0000
@<TRIPOS>BOND
    1    1    2 1     
    2    1   13 1     
    3    1   14 1     
    4    2    3 ar    
    5    2    8 ar    
    6    3    4 ar    
    7    3   10 1     
    8    4    5 ar    
    9    4   11 1     
   10    5    6 ar    
   11    5   12 1     
   12    6    7 1     
   13    6    8 ar    
   14    8    9 1     
   15    9   15 1     
@<TRIPOS>SUBSTRUCTURE
      1 ****           1
@<TRIPOS>SET
DONOR_HYDROGENS      STATIC     ATOMS    <user>   **** ""
3 13 14 15
ATOM$RED        STATIC     ATOMS    COLORGROUP SYSTEM
3 13 14 15
@<TRIPOS>COMMENT
> <Gold.Version>
2022.2.0

> <Gold.Id.Protein>
1qkm|1qkm_protein|mol2

> <Gold.Protein.RotatedTorsions>
[  496  491  490  487 ] final -146.24 input  -89.99 | X-H torsion

> <Gold.Protein.ActiveResidues>
 MET295  LEU298  THR299  LEU301  ALA302  GLU305  TRP335  MET336  LEU339  MET340 
 GLY342  LEU343  ARG346  PHE356  ILE373  ILE376  PHE377  LEU380  LYS471  GLY472 
 MET473  HIS475  LEU476  LEU477  ASN478  MET479  VAL484  VAL487 

> <Gold.Protein.RotatedAtoms>
   37.2112   33.9783   40.7202 H   0  0  0  0  0  0  0  0  0  0  0  0  # atno 496  bound_to 491 

> <Gold.Score>
     Score     S(PLP)   S(hbond)     S(cho)   S(metal)  DE(clash)   DE(tors)     intcor
     31.68     -28.68       1.00       0.00       0.00       0.00       0.00       0.00

> <Gold.PLP.Fitness>
31.6796

> <Gold.PLP.PLP>
-28.6796

> <Gold.PLP.part.hbond>
-1.0000

> <Gold.PLP.part.metal>
0.0000

> <Gold.PLP.part.buried>
-2.2332

> <Gold.PLP.part.nonpolar>
-25.8473

> <Gold.PLP.part.repulsive>
0.0000

> <Gold.PLP.ligand.clash>
0.0000

> <Gold.PLP.ligand.torsion>
0.0000

> <Gold.PLP.Chemscore.Hbond>
1.0000

> <Gold.PLP.Chemscore.CHOScore>
0.0000

> <Gold.PLP.Chemscore.Metal>
0.0000

> <Gold.Chemscore.Hbonds>
donor molecule, donor type, donor heavy atom, donor atom, acceptor molecule, acceptor atom, score
      L1  H     9    15       P1   470  1.00

> <Gold.PLP.Chemscore.Internal.Correction>
0.0000

