#       Name:                EN300-73977_i001
#       Creating user name   aseyller
#       Creation time:       Fri Apr 21 15:45:47 2023


#       File generated by GOLD software.
#

@<TRIPOS>MOLECULE
EN300-73977_i001|amine_1|mol2|992|dock3
    15    15     1
SMALL
USER_CHARGES


@<TRIPOS>ATOM
      1 N1          30.3762  35.4931  39.7045 N.pl3          1 <1>                0.0000
      2 C2          29.0612  35.9714  39.6735 C.ar           1 <1>                0.0000
      3 C3          28.4329  36.2007  38.4578 C.ar           1 <1>                0.0000
      4 C4          27.1344  36.6735  38.4292 C.ar           1 <1>                0.0000
      5 C5          26.4583  36.9188  39.6099 C.ar           1 <1>                0.0000
      6 C6          27.0780  36.6922  40.8262 C.ar           1 <1>                0.0000
      7 Cl7         26.2250  37.0017  42.3062 Cl             1 <1>                0.0000
      8 C8          28.3782  36.2130  40.8629 C.ar           1 <1>                0.0000
      9 O9          28.9890  35.9892  42.0576 O.3            1 <1>                0.0000
     10 H10         28.9586  36.0100  37.5338 H              1 <1>                0.0000
     11 H11         26.6471  36.8521  37.4822 H              1 <1>                0.0000
     12 H12         25.4439  37.2886  39.5829 H              1 <1>                0.0000
     13 H13         30.8495  35.3214  38.8753 H              1 <1>                0.0000
     14 H14         30.8157  35.3371  40.5550 H              1 <1>                0.0000
     15 H15         29.8060  35.4762  41.9916 H              1 <1>                0.0000
@<TRIPOS>BOND
    1    1    2 1     
    2    1   13 1     
    3    1   14 1     
    4    2    3 ar    
    5    2    8 ar    
    6    3    4 ar    
    7    3   10 1     
    8    4    5 ar    
    9    4   11 1     
   10    5    6 ar    
   11    5   12 1     
   12    6    7 1     
   13    6    8 ar    
   14    8    9 1     
   15    9   15 1     
@<TRIPOS>SUBSTRUCTURE
      1 ****           1
@<TRIPOS>SET
DONOR_HYDROGENS      STATIC     ATOMS    <user>   **** ""
3 13 14 15
ATOM$RED        STATIC     ATOMS    COLORGROUP SYSTEM
3 13 14 15
@<TRIPOS>COMMENT
> <Gold.Version>
2022.2.0

> <Gold.Id.Protein>
1qkm|1qkm_protein|mol2

> <Gold.Protein.RotatedTorsions>
[  496  491  490  487 ] final   41.05 input  -89.99 | X-H torsion

> <Gold.Protein.ActiveResidues>
 MET295  LEU298  THR299  LEU301  ALA302  GLU305  TRP335  MET336  LEU339  MET340 
 GLY342  LEU343  ARG346  PHE356  ILE373  ILE376  PHE377  LEU380  LYS471  GLY472 
 MET473  HIS475  LEU476  LEU477  ASN478  MET479  VAL484  VAL487 

> <Gold.Protein.RotatedAtoms>
   36.4105   33.5855   42.3781 H   0  0  0  0  0  0  0  0  0  0  0  0  # atno 496  bound_to 491 

> <Gold.Score>
     Score     S(PLP)   S(hbond)     S(cho)   S(metal)  DE(clash)   DE(tors)     intcor
     36.84     -30.86       1.99       0.00       0.00       0.00       0.00       0.00

> <Gold.PLP.Fitness>
36.8382

> <Gold.PLP.PLP>
-30.8645

> <Gold.PLP.part.hbond>
-2.0000

> <Gold.PLP.part.metal>
0.0000

> <Gold.PLP.part.buried>
-0.1929

> <Gold.PLP.part.nonpolar>
-28.9228

> <Gold.PLP.part.repulsive>
0.0690

> <Gold.PLP.ligand.clash>
0.0000

> <Gold.PLP.ligand.torsion>
0.0000

> <Gold.PLP.Chemscore.Hbond>
1.9913

> <Gold.PLP.Chemscore.CHOScore>
0.0000

> <Gold.PLP.Chemscore.Metal>
0.0000

> <Gold.Chemscore.Hbonds>
donor molecule, donor type, donor heavy atom, donor atom, acceptor molecule, acceptor atom, score
      L1  H     1    14       P1   470  1.00
      L1  H     9    15       P1   470  0.99

> <Gold.PLP.Chemscore.Internal.Correction>
0.0000

