#       Name:                EN300-73977_i001
#       Creating user name   aseyller
#       Creation time:       Fri Apr 21 15:45:49 2023


#       File generated by GOLD software.
#

@<TRIPOS>MOLECULE
EN300-73977_i001|amine_1|mol2|992|dock11
    15    15     1
SMALL
USER_CHARGES


@<TRIPOS>ATOM
      1 N1          32.9431  35.6395  37.3112 N.pl3          1 <1>                0.0000
      2 C2          31.7659  36.2902  37.6980 C.ar           1 <1>                0.0000
      3 C3          31.3659  37.4490  37.0480 C.ar           1 <1>                0.0000
      4 C4          30.2033  38.0905  37.4318 C.ar           1 <1>                0.0000
      5 C5          29.4361  37.5803  38.4626 C.ar           1 <1>                0.0000
      6 C6          29.8282  36.4248  39.1153 C.ar           1 <1>                0.0000
      7 Cl7         28.8616  35.7880  40.4091 Cl             1 <1>                0.0000
      8 C8          30.9901  35.7730  38.7326 C.ar           1 <1>                0.0000
      9 O9          31.3771  34.6368  39.3728 O.3            1 <1>                0.0000
     10 H10         31.9632  37.8499  36.2424 H              1 <1>                0.0000
     11 H11         29.8937  38.9927  36.9253 H              1 <1>                0.0000
     12 H12         28.5285  38.0850  38.7594 H              1 <1>                0.0000
     13 H13         33.4805  35.9985  36.5878 H              1 <1>                0.0000
     14 H14         33.2238  34.8317  37.7691 H              1 <1>                0.0000
     15 H15         31.5240  34.7508  40.3217 H              1 <1>                0.0000
@<TRIPOS>BOND
    1    1    2 1     
    2    1   13 1     
    3    1   14 1     
    4    2    3 ar    
    5    2    8 ar    
    6    3    4 ar    
    7    3   10 1     
    8    4    5 ar    
    9    4   11 1     
   10    5    6 ar    
   11    5   12 1     
   12    6    7 1     
   13    6    8 ar    
   14    8    9 1     
   15    9   15 1     
@<TRIPOS>SUBSTRUCTURE
      1 ****           1
@<TRIPOS>SET
DONOR_HYDROGENS      STATIC     ATOMS    <user>   **** ""
3 13 14 15
ATOM$RED        STATIC     ATOMS    COLORGROUP SYSTEM
3 13 14 15
@<TRIPOS>COMMENT
> <Gold.Version>
2022.2.0

> <Gold.Id.Protein>
1qkm|1qkm_protein|mol2

> <Gold.Protein.RotatedTorsions>
[  496  491  490  487 ] final  176.40 input  -89.99 | X-H torsion

> <Gold.Protein.ActiveResidues>
 MET295  LEU298  THR299  LEU301  ALA302  GLU305  TRP335  MET336  LEU339  MET340 
 GLY342  LEU343  ARG346  PHE356  ILE373  ILE376  PHE377  LEU380  LYS471  GLY472 
 MET473  HIS475  LEU476  LEU477  ASN478  MET479  VAL484  VAL487 

> <Gold.Protein.RotatedAtoms>
   37.3188   33.4112   40.8984 H   0  0  0  0  0  0  0  0  0  0  0  0  # atno 496  bound_to 491 

> <Gold.Score>
     Score     S(PLP)   S(hbond)     S(cho)   S(metal)  DE(clash)   DE(tors)     intcor
     30.44     -27.44       1.00       0.00       0.00       0.00       0.00       0.00

> <Gold.PLP.Fitness>
30.4356

> <Gold.PLP.PLP>
-27.4356

> <Gold.PLP.part.hbond>
-1.0000

> <Gold.PLP.part.metal>
0.0000

> <Gold.PLP.part.buried>
-1.8796

> <Gold.PLP.part.nonpolar>
-24.9632

> <Gold.PLP.part.repulsive>
0.0222

> <Gold.PLP.ligand.clash>
0.0000

> <Gold.PLP.ligand.torsion>
0.0000

> <Gold.PLP.Chemscore.Hbond>
1.0000

> <Gold.PLP.Chemscore.CHOScore>
0.0000

> <Gold.PLP.Chemscore.Metal>
0.0000

> <Gold.Chemscore.Hbonds>
donor molecule, donor type, donor heavy atom, donor atom, acceptor molecule, acceptor atom, score
      L1  H     9    15       P1   470  1.00

> <Gold.PLP.Chemscore.Internal.Correction>
0.0000

