#       Name:                EN300-73977_i001
#       Creating user name   aseyller
#       Creation time:       Fri Apr 21 15:45:48 2023


#       File generated by GOLD software.
#

@<TRIPOS>MOLECULE
EN300-73977_i001|amine_1|mol2|992|dock8
    15    15     1
SMALL
USER_CHARGES


@<TRIPOS>ATOM
      1 N1          30.8976  35.7089  39.3809 N.pl3          1 <1>                0.0000
      2 C2          29.6219  36.2386  39.1548 C.ar           1 <1>                0.0000
      3 C3          29.3084  36.7959  37.9234 C.ar           1 <1>                0.0000
      4 C4          28.0483  37.3189  37.7022 C.ar           1 <1>                0.0000
      5 C5          27.0974  37.2883  38.7054 C.ar           1 <1>                0.0000
      6 C6          27.4025  36.7338  39.9360 C.ar           1 <1>                0.0000
      7 Cl7         26.2053  36.6976  41.1926 Cl             1 <1>                0.0000
      8 C8          28.6623  36.2025  40.1635 C.ar           1 <1>                0.0000
      9 O9          28.9640  35.6566  41.3725 O.3            1 <1>                0.0000
     10 H10         30.0491  36.8212  37.1378 H              1 <1>                0.0000
     11 H11         27.8060  37.7529  36.7434 H              1 <1>                0.0000
     12 H12         26.1141  37.6984  38.5283 H              1 <1>                0.0000
     13 H13         31.5638  35.7310  38.6761 H              1 <1>                0.0000
     14 H14         31.1168  35.3233  40.2435 H              1 <1>                0.0000
     15 H15         29.9110  35.6292  41.5663 H              1 <1>                0.0000
@<TRIPOS>BOND
    1    1    2 1     
    2    1   13 1     
    3    1   14 1     
    4    2    3 ar    
    5    2    8 ar    
    6    3    4 ar    
    7    3   10 1     
    8    4    5 ar    
    9    4   11 1     
   10    5    6 ar    
   11    5   12 1     
   12    6    7 1     
   13    6    8 ar    
   14    8    9 1     
   15    9   15 1     
@<TRIPOS>SUBSTRUCTURE
      1 ****           1
@<TRIPOS>SET
DONOR_HYDROGENS      STATIC     ATOMS    <user>   **** ""
3 13 14 15
ATOM$RED        STATIC     ATOMS    COLORGROUP SYSTEM
3 13 14 15
@<TRIPOS>COMMENT
> <Gold.Version>
2022.2.0

> <Gold.Id.Protein>
1qkm|1qkm_protein|mol2

> <Gold.Protein.RotatedTorsions>
[  496  491  490  487 ] final  130.24 input  -89.99 | X-H torsion

> <Gold.Protein.ActiveResidues>
 MET295  LEU298  THR299  LEU301  ALA302  GLU305  TRP335  MET336  LEU339  MET340 
 GLY342  LEU343  ARG346  PHE356  ILE373  ILE376  PHE377  LEU380  LYS471  GLY472 
 MET473  HIS475  LEU476  LEU477  ASN478  MET479  VAL484  VAL487 

> <Gold.Protein.RotatedAtoms>
   37.1546   32.9721   41.4704 H   0  0  0  0  0  0  0  0  0  0  0  0  # atno 496  bound_to 491 

> <Gold.Score>
     Score     S(PLP)   S(hbond)     S(cho)   S(metal)  DE(clash)   DE(tors)     intcor
     36.15     -30.18       1.99       0.00       0.00       0.00       0.00       0.00

> <Gold.PLP.Fitness>
36.1505

> <Gold.PLP.PLP>
-30.1768

> <Gold.PLP.part.hbond>
-2.0000

> <Gold.PLP.part.metal>
0.0000

> <Gold.PLP.part.buried>
-2.2554

> <Gold.PLP.part.nonpolar>
-26.0475

> <Gold.PLP.part.repulsive>
0.0583

> <Gold.PLP.ligand.clash>
0.0000

> <Gold.PLP.ligand.torsion>
0.0000

> <Gold.PLP.Chemscore.Hbond>
1.9913

> <Gold.PLP.Chemscore.CHOScore>
0.0000

> <Gold.PLP.Chemscore.Metal>
0.0000

> <Gold.Chemscore.Hbonds>
donor molecule, donor type, donor heavy atom, donor atom, acceptor molecule, acceptor atom, score
      L1  H     1    14       P1   470  1.00
      L1  H     9    15       P1   470  0.99

> <Gold.PLP.Chemscore.Internal.Correction>
0.0000

