#       Name:                EN300-73977_i001
#       Creating user name   aseyller
#       Creation time:       Fri Apr 21 15:45:47 2023


#       File generated by GOLD software.
#

@<TRIPOS>MOLECULE
EN300-73977_i001
    15    15     1
SMALL
USER_CHARGES


@<TRIPOS>ATOM
      1 N1           1.7935  -1.3604   0.0740 N.pl3          1 <1>                0.0000
      2 C2           0.7734  -0.4021   0.0638 C.ar           1 <1>                0.0000
      3 C3           1.0885   0.9491   0.0489 C.ar           1 <1>                0.0000
      4 C4           0.0797   1.8939   0.0393 C.ar           1 <1>                0.0000
      5 C5          -1.2445   1.4965   0.0441 C.ar           1 <1>                0.0000
      6 C6          -1.5666   0.1508   0.0585 C.ar           1 <1>                0.0000
      7 Cl7         -3.2308  -0.3434   0.0645 Cl             1 <1>                0.0000
      8 C8          -0.5605  -0.8026   0.0628 C.ar           1 <1>                0.0000
      9 O9          -0.8752  -2.1260   0.0766 O.3            1 <1>                0.0000
     10 H10          2.1220   1.2625   0.0451 H              1 <1>                0.0000
     11 H11          0.3266   2.9452   0.0284 H              1 <1>                0.0000
     12 H12         -2.0295   2.2382   0.0369 H              1 <1>                0.0000
     13 H13          2.7222  -1.0802   0.0707 H              1 <1>                0.0000
     14 H14          1.5719  -2.3046   0.0886 H              1 <1>                0.0000
     15 H15         -0.9701  -2.5168  -0.8028 H              1 <1>                0.0000
@<TRIPOS>BOND
    1    1    2 1     
    2    1   13 1     
    3    1   14 1     
    4    2    3 ar    
    5    2    8 ar    
    6    3    4 ar    
    7    3   10 1     
    8    4    5 ar    
    9    4   11 1     
   10    5    6 ar    
   11    5   12 1     
   12    6    7 1     
   13    6    8 ar    
   14    8    9 1     
   15    9   15 1     
@<TRIPOS>SUBSTRUCTURE
      1 ****           1
@<TRIPOS>SET
DONOR_HYDROGENS      STATIC     ATOMS    <user>   **** ""
3 13 14 15
ATOM$RED        STATIC     ATOMS    COLORGROUP SYSTEM
3 13 14 15
