#       Name:                EN300-73977_i001
#       Creating user name   aseyller
#       Creation time:       Fri Apr 21 15:45:51 2023


#       File generated by GOLD software.
#

@<TRIPOS>MOLECULE
EN300-73977_i001|amine_1|mol2|992|dock19
    15    15     1
SMALL
USER_CHARGES


@<TRIPOS>ATOM
      1 N1          30.0350  36.9660  37.1715 N.pl3          1 <1>                0.0000
      2 C2          28.9892  36.8839  38.0981 C.ar           1 <1>                0.0000
      3 C3          27.7341  37.3805  37.7763 C.ar           1 <1>                0.0000
      4 C4          26.7028  37.2989  38.6929 C.ar           1 <1>                0.0000
      5 C5          26.9177  36.7228  39.9312 C.ar           1 <1>                0.0000
      6 C6          28.1665  36.2249  40.2592 C.ar           1 <1>                0.0000
      7 Cl7         28.4315  35.5023  41.8153 Cl             1 <1>                0.0000
      8 C8          29.2042  36.2983  39.3433 C.ar           1 <1>                0.0000
      9 O9          30.4325  35.8090  39.6638 O.3            1 <1>                0.0000
     10 H10         27.5633  37.8311  36.8098 H              1 <1>                0.0000
     11 H11         25.7268  37.6866  38.4412 H              1 <1>                0.0000
     12 H12         26.1090  36.6614  40.6444 H              1 <1>                0.0000
     13 H13         29.8828  37.3705  36.3031 H              1 <1>                0.0000
     14 H14         30.9129  36.6221  37.3992 H              1 <1>                0.0000
     15 H15         30.6552  35.8890  40.6014 H              1 <1>                0.0000
@<TRIPOS>BOND
    1    1    2 1     
    2    1   13 1     
    3    1   14 1     
    4    2    3 ar    
    5    2    8 ar    
    6    3    4 ar    
    7    3   10 1     
    8    4    5 ar    
    9    4   11 1     
   10    5    6 ar    
   11    5   12 1     
   12    6    7 1     
   13    6    8 ar    
   14    8    9 1     
   15    9   15 1     
@<TRIPOS>SUBSTRUCTURE
      1 ****           1
@<TRIPOS>SET
DONOR_HYDROGENS      STATIC     ATOMS    <user>   **** ""
3 13 14 15
ATOM$RED        STATIC     ATOMS    COLORGROUP SYSTEM
3 13 14 15
@<TRIPOS>COMMENT
> <Gold.Version>
2022.2.0

> <Gold.Id.Protein>
1qkm|1qkm_protein|mol2

> <Gold.Protein.RotatedTorsions>
[  496  491  490  487 ] final -158.43 input  -89.99 | X-H torsion

> <Gold.Protein.ActiveResidues>
 MET295  LEU298  THR299  LEU301  ALA302  GLU305  TRP335  MET336  LEU339  MET340 
 GLY342  LEU343  ARG346  PHE356  ILE373  ILE376  PHE377  LEU380  LYS471  GLY472 
 MET473  HIS475  LEU476  LEU477  ASN478  MET479  VAL484  VAL487 

> <Gold.Protein.RotatedAtoms>
   37.2692   33.7878   40.7416 H   0  0  0  0  0  0  0  0  0  0  0  0  # atno 496  bound_to 491 

> <Gold.Score>
     Score     S(PLP)   S(hbond)     S(cho)   S(metal)  DE(clash)   DE(tors)     intcor
     32.90     -30.26       0.88       0.00       0.00       0.00       0.00       0.00

> <Gold.PLP.Fitness>
32.9005

> <Gold.PLP.PLP>
-30.2605

> <Gold.PLP.part.hbond>
-1.0000

> <Gold.PLP.part.metal>
0.0000

> <Gold.PLP.part.buried>
-1.7473

> <Gold.PLP.part.nonpolar>
-28.5976

> <Gold.PLP.part.repulsive>
0.0000

> <Gold.PLP.ligand.clash>
0.0000

> <Gold.PLP.ligand.torsion>
0.0000

> <Gold.PLP.Chemscore.Hbond>
0.8800

> <Gold.PLP.Chemscore.CHOScore>
0.0000

> <Gold.PLP.Chemscore.Metal>
0.0000

> <Gold.Chemscore.Hbonds>
donor molecule, donor type, donor heavy atom, donor atom, acceptor molecule, acceptor atom, score
      L1  H     9    15       P1   470  0.88

> <Gold.PLP.Chemscore.Internal.Correction>
0.0000

