#       Name:                EN300-73977_i001
#       Creating user name   aseyller
#       Creation time:       Fri Apr 21 15:45:49 2023


#       File generated by GOLD software.
#

@<TRIPOS>MOLECULE
EN300-73977_i001|amine_1|mol2|992|dock13
    15    15     1
SMALL
USER_CHARGES


@<TRIPOS>ATOM
      1 N1          27.5031  36.7527  39.6766 N.pl3          1 <1>                0.0000
      2 C2          28.5617  37.0107  38.7981 C.ar           1 <1>                0.0000
      3 C3          28.4011  37.9217  37.7639 C.ar           1 <1>                0.0000
      4 C4          29.4476  38.1748  36.8972 C.ar           1 <1>                0.0000
      5 C5          30.6560  37.5224  37.0577 C.ar           1 <1>                0.0000
      6 C6          30.8239  36.6129  38.0869 C.ar           1 <1>                0.0000
      7 Cl7         32.3430  35.7962  38.2845 Cl             1 <1>                0.0000
      8 C8          29.7808  36.3578  38.9634 C.ar           1 <1>                0.0000
      9 O9          29.9441  35.4643  39.9760 O.3            1 <1>                0.0000
     10 H10         27.4583  38.4327  37.6361 H              1 <1>                0.0000
     11 H11         29.3208  38.8836  36.0923 H              1 <1>                0.0000
     12 H12         31.4708  37.7230  36.3778 H              1 <1>                0.0000
     13 H13         26.6557  37.2110  39.5628 H              1 <1>                0.0000
     14 H14         27.6153  36.1126  40.3967 H              1 <1>                0.0000
     15 H15         30.6954  35.6572  40.5534 H              1 <1>                0.0000
@<TRIPOS>BOND
    1    1    2 1     
    2    1   13 1     
    3    1   14 1     
    4    2    3 ar    
    5    2    8 ar    
    6    3    4 ar    
    7    3   10 1     
    8    4    5 ar    
    9    4   11 1     
   10    5    6 ar    
   11    5   12 1     
   12    6    7 1     
   13    6    8 ar    
   14    8    9 1     
   15    9   15 1     
@<TRIPOS>SUBSTRUCTURE
      1 ****           1
@<TRIPOS>SET
DONOR_HYDROGENS      STATIC     ATOMS    <user>   **** ""
3 13 14 15
ATOM$RED        STATIC     ATOMS    COLORGROUP SYSTEM
3 13 14 15
@<TRIPOS>COMMENT
> <Gold.Version>
2022.2.0

> <Gold.Id.Protein>
1qkm|1qkm_protein|mol2

> <Gold.Protein.RotatedTorsions>
[  496  491  490  487 ] final -134.15 input  -89.99 | X-H torsion

> <Gold.Protein.ActiveResidues>
 MET295  LEU298  THR299  LEU301  ALA302  GLU305  TRP335  MET336  LEU339  MET340 
 GLY342  LEU343  ARG346  PHE356  ILE373  ILE376  PHE377  LEU380  LYS471  GLY472 
 MET473  HIS475  LEU476  LEU477  ASN478  MET479  VAL484  VAL487 

> <Gold.Protein.RotatedAtoms>
   37.1347   34.1611   40.7361 H   0  0  0  0  0  0  0  0  0  0  0  0  # atno 496  bound_to 491 

> <Gold.Score>
     Score     S(PLP)   S(hbond)     S(cho)   S(metal)  DE(clash)   DE(tors)     intcor
     28.83     -25.90       0.98       0.00       0.00       0.00       0.00       0.00

> <Gold.PLP.Fitness>
28.8286

> <Gold.PLP.PLP>
-25.9006

> <Gold.PLP.part.hbond>
-1.0000

> <Gold.PLP.part.metal>
0.0000

> <Gold.PLP.part.buried>
-2.1454

> <Gold.PLP.part.nonpolar>
-22.8884

> <Gold.PLP.part.repulsive>
0.0000

> <Gold.PLP.ligand.clash>
0.0000

> <Gold.PLP.ligand.torsion>
0.0000

> <Gold.PLP.Chemscore.Hbond>
0.9760

> <Gold.PLP.Chemscore.CHOScore>
0.0000

> <Gold.PLP.Chemscore.Metal>
0.0000

> <Gold.Chemscore.Hbonds>
donor molecule, donor type, donor heavy atom, donor atom, acceptor molecule, acceptor atom, score
      L1  H     9    15       P1   470  0.98

> <Gold.PLP.Chemscore.Internal.Correction>
0.0000

