#       Name:                EN300-73977_i001
#       Creating user name   aseyller
#       Creation time:       Fri Apr 21 15:45:50 2023


#       File generated by GOLD software.
#

@<TRIPOS>MOLECULE
EN300-73977_i001|amine_1|mol2|992|dock15
    15    15     1
SMALL
USER_CHARGES


@<TRIPOS>ATOM
      1 N1          28.6505  35.4762  40.0177 N.pl3          1 <1>                0.0000
      2 C2          29.4074  36.2148  39.1009 C.ar           1 <1>                0.0000
      3 C3          28.8624  37.3368  38.4930 C.ar           1 <1>                0.0000
      4 C4          29.6113  38.0646  37.5876 C.ar           1 <1>                0.0000
      5 C5          30.9039  37.6781  37.2854 C.ar           1 <1>                0.0000
      6 C6          31.4544  36.5606  37.8879 C.ar           1 <1>                0.0000
      7 Cl7         33.0778  36.0791  37.5052 Cl             1 <1>                0.0000
      8 C8          30.7114  35.8287  38.8009 C.ar           1 <1>                0.0000
      9 O9          31.2510  34.7301  39.3945 O.3            1 <1>                0.0000
     10 H10         27.8530  37.6411  38.7272 H              1 <1>                0.0000
     11 H11         29.1855  38.9372  37.1148 H              1 <1>                0.0000
     12 H12         31.4853  38.2496  36.5770 H              1 <1>                0.0000
     13 H13         27.7436  35.7485  40.2289 H              1 <1>                0.0000
     14 H14         29.0311  34.6897  40.4389 H              1 <1>                0.0000
     15 H15         31.4433  34.8458  40.3351 H              1 <1>                0.0000
@<TRIPOS>BOND
    1    1    2 1     
    2    1   13 1     
    3    1   14 1     
    4    2    3 ar    
    5    2    8 ar    
    6    3    4 ar    
    7    3   10 1     
    8    4    5 ar    
    9    4   11 1     
   10    5    6 ar    
   11    5   12 1     
   12    6    7 1     
   13    6    8 ar    
   14    8    9 1     
   15    9   15 1     
@<TRIPOS>SUBSTRUCTURE
      1 ****           1
@<TRIPOS>SET
DONOR_HYDROGENS      STATIC     ATOMS    <user>   **** ""
3 13 14 15
ATOM$RED        STATIC     ATOMS    COLORGROUP SYSTEM
3 13 14 15
@<TRIPOS>COMMENT
> <Gold.Version>
2022.2.0

> <Gold.Id.Protein>
1qkm|1qkm_protein|mol2

> <Gold.Protein.RotatedTorsions>
[  496  491  490  487 ] final -173.11 input  -89.99 | X-H torsion

> <Gold.Protein.ActiveResidues>
 MET295  LEU298  THR299  LEU301  ALA302  GLU305  TRP335  MET336  LEU339  MET340 
 GLY342  LEU343  ARG346  PHE356  ILE373  ILE376  PHE377  LEU380  LYS471  GLY472 
 MET473  HIS475  LEU476  LEU477  ASN478  MET479  VAL484  VAL487 

> <Gold.Protein.RotatedAtoms>
   37.3103   33.5623   40.8157 H   0  0  0  0  0  0  0  0  0  0  0  0  # atno 496  bound_to 491 

> <Gold.Score>
     Score     S(PLP)   S(hbond)     S(cho)   S(metal)  DE(clash)   DE(tors)     intcor
     30.23     -27.23       1.00       0.00       0.00       0.00       0.00       0.00

> <Gold.PLP.Fitness>
30.2313

> <Gold.PLP.PLP>
-27.2313

> <Gold.PLP.part.hbond>
-1.0000

> <Gold.PLP.part.metal>
0.0000

> <Gold.PLP.part.buried>
-1.6807

> <Gold.PLP.part.nonpolar>
-24.8373

> <Gold.PLP.part.repulsive>
0.0277

> <Gold.PLP.ligand.clash>
0.0000

> <Gold.PLP.ligand.torsion>
0.0000

> <Gold.PLP.Chemscore.Hbond>
1.0000

> <Gold.PLP.Chemscore.CHOScore>
0.0000

> <Gold.PLP.Chemscore.Metal>
0.0000

> <Gold.Chemscore.Hbonds>
donor molecule, donor type, donor heavy atom, donor atom, acceptor molecule, acceptor atom, score
      L1  H     9    15       P1   470  1.00

> <Gold.PLP.Chemscore.Internal.Correction>
0.0000

