#       Name:                EN300-73977_i001
#       Creating user name   aseyller
#       Creation time:       Fri Apr 21 15:45:48 2023


#       File generated by GOLD software.
#

@<TRIPOS>MOLECULE
EN300-73977_i001|amine_1|mol2|992|dock7
    15    15     1
SMALL
USER_CHARGES


@<TRIPOS>ATOM
      1 N1          28.9169  35.7364  41.6380 N.pl3          1 <1>                0.0000
      2 C2          28.4573  36.2132  40.4049 C.ar           1 <1>                0.0000
      3 C3          27.1265  36.5745  40.2511 C.ar           1 <1>                0.0000
      4 C4          26.6745  37.0447  39.0325 C.ar           1 <1>                0.0000
      5 C5          27.5455  37.1569  37.9647 C.ar           1 <1>                0.0000
      6 C6          28.8742  36.7990  38.1105 C.ar           1 <1>                0.0000
      7 Cl7         29.9642  36.9416  36.7668 Cl             1 <1>                0.0000
      8 C8          29.3361  36.3317  39.3310 C.ar           1 <1>                0.0000
      9 O9          30.6421  35.9797  39.4764 O.3            1 <1>                0.0000
     10 H10         26.4438  36.4879  41.0834 H              1 <1>                0.0000
     11 H11         25.6382  37.3248  38.9141 H              1 <1>                0.0000
     12 H12         27.1879  37.5245  37.0142 H              1 <1>                0.0000
     13 H13         28.3047  35.6581  42.3864 H              1 <1>                0.0000
     14 H14         29.8465  35.4803  41.7431 H              1 <1>                0.0000
     15 H15         30.8591  35.6263  40.3499 H              1 <1>                0.0000
@<TRIPOS>BOND
    1    1    2 1     
    2    1   13 1     
    3    1   14 1     
    4    2    3 ar    
    5    2    8 ar    
    6    3    4 ar    
    7    3   10 1     
    8    4    5 ar    
    9    4   11 1     
   10    5    6 ar    
   11    5   12 1     
   12    6    7 1     
   13    6    8 ar    
   14    8    9 1     
   15    9   15 1     
@<TRIPOS>SUBSTRUCTURE
      1 ****           1
@<TRIPOS>SET
DONOR_HYDROGENS      STATIC     ATOMS    <user>   **** ""
3 13 14 15
ATOM$RED        STATIC     ATOMS    COLORGROUP SYSTEM
3 13 14 15
@<TRIPOS>COMMENT
> <Gold.Version>
2022.2.0

> <Gold.Id.Protein>
1qkm|1qkm_protein|mol2

> <Gold.Protein.RotatedTorsions>
[  496  491  490  487 ] final   78.46 input  -89.99 | X-H torsion

> <Gold.Protein.ActiveResidues>
 MET295  LEU298  THR299  LEU301  ALA302  GLU305  TRP335  MET336  LEU339  MET340 
 GLY342  LEU343  ARG346  PHE356  ILE373  ILE376  PHE377  LEU380  LYS471  GLY472 
 MET473  HIS475  LEU476  LEU477  ASN478  MET479  VAL484  VAL487 

> <Gold.Protein.RotatedAtoms>
   36.7138   33.1137   42.1516 H   0  0  0  0  0  0  0  0  0  0  0  0  # atno 496  bound_to 491 

> <Gold.Score>
     Score     S(PLP)   S(hbond)     S(cho)   S(metal)  DE(clash)   DE(tors)     intcor
     34.63     -28.66       1.99       0.00       0.00       0.00       0.00       0.00

> <Gold.PLP.Fitness>
34.6315

> <Gold.PLP.PLP>
-28.6577

> <Gold.PLP.part.hbond>
-2.0000

> <Gold.PLP.part.metal>
0.0000

> <Gold.PLP.part.buried>
-2.2929

> <Gold.PLP.part.nonpolar>
-25.3553

> <Gold.PLP.part.repulsive>
0.0846

> <Gold.PLP.ligand.clash>
0.0000

> <Gold.PLP.ligand.torsion>
0.0000

> <Gold.PLP.Chemscore.Hbond>
1.9913

> <Gold.PLP.Chemscore.CHOScore>
0.0000

> <Gold.PLP.Chemscore.Metal>
0.0000

> <Gold.Chemscore.Hbonds>
donor molecule, donor type, donor heavy atom, donor atom, acceptor molecule, acceptor atom, score
      L1  H     1    14       P1   470  1.00
      L1  H     9    15       P1   470  0.99

> <Gold.PLP.Chemscore.Internal.Correction>
0.0000

