#       Name:                EN300-73977_i001
#       Creating user name   aseyller
#       Creation time:       Fri Apr 21 15:45:49 2023


#       File generated by GOLD software.
#

@<TRIPOS>MOLECULE
EN300-73977_i001|amine_1|mol2|992|dock14
    15    15     1
SMALL
USER_CHARGES


@<TRIPOS>ATOM
      1 N1          27.8310  35.1639  42.2346 N.pl3          1 <1>                0.0000
      2 C2          27.9226  35.7974  40.9899 C.ar           1 <1>                0.0000
      3 C3          29.1306  35.8190  40.3076 C.ar           1 <1>                0.0000
      4 C4          29.2192  36.4455  39.0788 C.ar           1 <1>                0.0000
      5 C5          28.1062  37.0515  38.5260 C.ar           1 <1>                0.0000
      6 C6          26.8979  37.0338  39.2003 C.ar           1 <1>                0.0000
      7 Cl7         25.5031  37.7960  38.5023 Cl             1 <1>                0.0000
      8 C8          26.8000  36.4028  40.4306 C.ar           1 <1>                0.0000
      9 O9          25.6129  36.3841  41.0947 O.3            1 <1>                0.0000
     10 H10         30.0017  35.3464  40.7369 H              1 <1>                0.0000
     11 H11         30.1603  36.4620  38.5493 H              1 <1>                0.0000
     12 H12         28.1800  37.5402  37.5658 H              1 <1>                0.0000
     13 H13         28.6127  34.7391  42.6213 H              1 <1>                0.0000
     14 H14         26.9870  35.1531  42.7124 H              1 <1>                0.0000
     15 H15         24.9285  35.8556  40.6619 H              1 <1>                0.0000
@<TRIPOS>BOND
    1    1    2 1     
    2    1   13 1     
    3    1   14 1     
    4    2    3 ar    
    5    2    8 ar    
    6    3    4 ar    
    7    3   10 1     
    8    4    5 ar    
    9    4   11 1     
   10    5    6 ar    
   11    5   12 1     
   12    6    7 1     
   13    6    8 ar    
   14    8    9 1     
   15    9   15 1     
@<TRIPOS>SUBSTRUCTURE
      1 ****           1
@<TRIPOS>SET
DONOR_HYDROGENS      STATIC     ATOMS    <user>   **** ""
3 13 14 15
ATOM$RED        STATIC     ATOMS    COLORGROUP SYSTEM
3 13 14 15
@<TRIPOS>COMMENT
> <Gold.Version>
2022.2.0

> <Gold.Id.Protein>
1qkm|1qkm_protein|mol2

> <Gold.Protein.RotatedTorsions>
[  496  491  490  487 ] final   12.99 input  -89.99 | X-H torsion

> <Gold.Protein.ActiveResidues>
 MET295  LEU298  THR299  LEU301  ALA302  GLU305  TRP335  MET336  LEU339  MET340 
 GLY342  LEU343  ARG346  PHE356  ILE373  ILE376  PHE377  LEU380  LYS471  GLY472 
 MET473  HIS475  LEU476  LEU477  ASN478  MET479  VAL484  VAL487 

> <Gold.Protein.RotatedAtoms>
   36.2803   34.0207   42.3247 H   0  0  0  0  0  0  0  0  0  0  0  0  # atno 496  bound_to 491 

> <Gold.Score>
     Score     S(PLP)   S(hbond)     S(cho)   S(metal)  DE(clash)   DE(tors)     intcor
     32.04     -29.09       0.98       0.00       0.00       0.00       0.00       0.00

> <Gold.PLP.Fitness>
32.0395

> <Gold.PLP.PLP>
-29.0895

> <Gold.PLP.part.hbond>
-0.7773

> <Gold.PLP.part.metal>
0.0000

> <Gold.PLP.part.buried>
-3.8680

> <Gold.PLP.part.nonpolar>
-25.1414

> <Gold.PLP.part.repulsive>
0.0895

> <Gold.PLP.ligand.clash>
0.0000

> <Gold.PLP.ligand.torsion>
0.0000

> <Gold.PLP.Chemscore.Hbond>
0.9833

> <Gold.PLP.Chemscore.CHOScore>
0.0000

> <Gold.PLP.Chemscore.Metal>
0.0000

> <Gold.Chemscore.Hbonds>
donor molecule, donor type, donor heavy atom, donor atom, acceptor molecule, acceptor atom, score
      L1  H     1    14       P1   582  0.98

> <Gold.PLP.Chemscore.Internal.Correction>
0.0000

