#       Name:                EN300-73977_i001
#       Creating user name   aseyller
#       Creation time:       Fri Apr 21 15:45:48 2023


#       File generated by GOLD software.
#

@<TRIPOS>MOLECULE
EN300-73977_i001|amine_1|mol2|992|dock6
    15    15     1
SMALL
USER_CHARGES


@<TRIPOS>ATOM
      1 N1          29.3993  35.7995  41.8649 N.pl3          1 <1>                0.0000
      2 C2          28.5349  36.1791  40.8316 C.ar           1 <1>                0.0000
      3 C3          28.9567  36.1110  39.5115 C.ar           1 <1>                0.0000
      4 C4          28.1018  36.4868  38.4926 C.ar           1 <1>                0.0000
      5 C5          26.8254  36.9307  38.7847 C.ar           1 <1>                0.0000
      6 C6          26.3974  37.0009  40.0988 C.ar           1 <1>                0.0000
      7 Cl7         24.7938  37.5589  40.4607 Cl             1 <1>                0.0000
      8 C8          27.2472  36.6207  41.1257 C.ar           1 <1>                0.0000
      9 O9          26.8281  36.6888  42.4181 O.3            1 <1>                0.0000
     10 H10         29.9532  35.7647  39.2803 H              1 <1>                0.0000
     11 H11         28.4318  36.4339  37.4657 H              1 <1>                0.0000
     12 H12         26.1608  37.2236  37.9854 H              1 <1>                0.0000
     13 H13         30.2946  35.4882  41.6585 H              1 <1>                0.0000
     14 H14         29.1046  35.8514  42.7876 H              1 <1>                0.0000
     15 H15         26.3044  35.9271  42.7023 H              1 <1>                0.0000
@<TRIPOS>BOND
    1    1    2 1     
    2    1   13 1     
    3    1   14 1     
    4    2    3 ar    
    5    2    8 ar    
    6    3    4 ar    
    7    3   10 1     
    8    4    5 ar    
    9    4   11 1     
   10    5    6 ar    
   11    5   12 1     
   12    6    7 1     
   13    6    8 ar    
   14    8    9 1     
   15    9   15 1     
@<TRIPOS>SUBSTRUCTURE
      1 ****           1
@<TRIPOS>SET
DONOR_HYDROGENS      STATIC     ATOMS    <user>   **** ""
3 13 14 15
ATOM$RED        STATIC     ATOMS    COLORGROUP SYSTEM
3 13 14 15
@<TRIPOS>COMMENT
> <Gold.Version>
2022.2.0

> <Gold.Id.Protein>
1qkm|1qkm_protein|mol2

> <Gold.Protein.RotatedTorsions>
[  496  491  490  487 ] final -105.62 input  -89.99 | X-H torsion

> <Gold.Protein.ActiveResidues>
 MET295  LEU298  THR299  LEU301  ALA302  GLU305  TRP335  MET336  LEU339  MET340 
 GLY342  LEU343  ARG346  PHE356  ILE373  ILE376  PHE377  LEU380  LYS471  GLY472 
 MET473  HIS475  LEU476  LEU477  ASN478  MET479  VAL484  VAL487 

> <Gold.Protein.RotatedAtoms>
   36.9009   34.5220   40.9124 H   0  0  0  0  0  0  0  0  0  0  0  0  # atno 496  bound_to 491 

> <Gold.Score>
     Score     S(PLP)   S(hbond)     S(cho)   S(metal)  DE(clash)   DE(tors)     intcor
     34.08     -28.08       2.00       0.00       0.00       0.00       0.00       0.00

> <Gold.PLP.Fitness>
34.0841

> <Gold.PLP.PLP>
-28.0841

> <Gold.PLP.part.hbond>
-1.9401

> <Gold.PLP.part.metal>
0.0000

> <Gold.PLP.part.buried>
-0.3692

> <Gold.PLP.part.nonpolar>
-25.8797

> <Gold.PLP.part.repulsive>
0.1202

> <Gold.PLP.ligand.clash>
0.0000

> <Gold.PLP.ligand.torsion>
0.0000

> <Gold.PLP.Chemscore.Hbond>
2.0000

> <Gold.PLP.Chemscore.CHOScore>
0.0000

> <Gold.PLP.Chemscore.Metal>
0.0000

> <Gold.Chemscore.Hbonds>
donor molecule, donor type, donor heavy atom, donor atom, acceptor molecule, acceptor atom, score
      L1  H     1    13       P1   470  1.00
      L1  H     9    15       P1   582  1.00

> <Gold.PLP.Chemscore.Internal.Correction>
0.0000

