#       Name:                EN300-73977_i001
#       Creating user name   aseyller
#       Creation time:       Fri Apr 21 15:45:50 2023


#       File generated by GOLD software.
#

@<TRIPOS>MOLECULE
EN300-73977_i001|amine_1|mol2|992|dock17
    15    15     1
SMALL
USER_CHARGES


@<TRIPOS>ATOM
      1 N1          34.8680  36.5959  34.8522 N.pl3          1 <1>                0.0000
      2 C2          33.6685  36.5928  35.5735 C.ar           1 <1>                0.0000
      3 C3          33.5366  35.7940  36.7004 C.ar           1 <1>                0.0000
      4 C4          32.3511  35.7920  37.4111 C.ar           1 <1>                0.0000
      5 C5          31.2947  36.5847  37.0025 C.ar           1 <1>                0.0000
      6 C6          31.4189  37.3843  35.8799 C.ar           1 <1>                0.0000
      7 Cl7         30.0896  38.3781  35.3707 Cl             1 <1>                0.0000
      8 C8          32.6064  37.3958  35.1651 C.ar           1 <1>                0.0000
      9 O9          32.7305  38.1814  34.0615 O.3            1 <1>                0.0000
     10 H10         34.3601  35.1737  37.0220 H              1 <1>                0.0000
     11 H11         32.2498  35.1692  38.2876 H              1 <1>                0.0000
     12 H12         30.3702  36.5797  37.5606 H              1 <1>                0.0000
     13 H13         35.6084  36.0392  35.1400 H              1 <1>                0.0000
     14 H14         34.9576  37.1516  34.0623 H              1 <1>                0.0000
     15 H15         33.6348  38.2474  33.7255 H              1 <1>                0.0000
@<TRIPOS>BOND
    1    1    2 1     
    2    1   13 1     
    3    1   14 1     
    4    2    3 ar    
    5    2    8 ar    
    6    3    4 ar    
    7    3   10 1     
    8    4    5 ar    
    9    4   11 1     
   10    5    6 ar    
   11    5   12 1     
   12    6    7 1     
   13    6    8 ar    
   14    8    9 1     
   15    9   15 1     
@<TRIPOS>SUBSTRUCTURE
      1 ****           1
@<TRIPOS>SET
DONOR_HYDROGENS      STATIC     ATOMS    <user>   **** ""
3 13 14 15
ATOM$RED        STATIC     ATOMS    COLORGROUP SYSTEM
3 13 14 15
@<TRIPOS>COMMENT
> <Gold.Version>
2022.2.0

> <Gold.Id.Protein>
1qkm|1qkm_protein|mol2

> <Gold.Protein.RotatedTorsions>
[  496  491  490  487 ] final   31.79 input  -89.99 | X-H torsion

> <Gold.Protein.ActiveResidues>
 MET295  LEU298  THR299  LEU301  ALA302  GLU305  TRP335  MET336  LEU339  MET340 
 GLY342  LEU343  ARG346  PHE356  ILE373  ILE376  PHE377  LEU380  LYS471  GLY472 
 MET473  HIS475  LEU476  LEU477  ASN478  MET479  VAL484  VAL487 

> <Gold.Protein.RotatedAtoms>
   36.3557   33.7275   42.3823 H   0  0  0  0  0  0  0  0  0  0  0  0  # atno 496  bound_to 491 

> <Gold.Score>
     Score     S(PLP)   S(hbond)     S(cho)   S(metal)  DE(clash)   DE(tors)     intcor
     30.36     -24.58       1.93       0.00       0.00       0.00       0.00       0.00

> <Gold.PLP.Fitness>
30.3591

> <Gold.PLP.PLP>
-24.5803

> <Gold.PLP.part.hbond>
-2.0000

> <Gold.PLP.part.metal>
0.0000

> <Gold.PLP.part.buried>
0.0944

> <Gold.PLP.part.nonpolar>
-22.6204

> <Gold.PLP.part.repulsive>
0.0870

> <Gold.PLP.ligand.clash>
0.0000

> <Gold.PLP.ligand.torsion>
0.0000

> <Gold.PLP.Chemscore.Hbond>
1.9263

> <Gold.PLP.Chemscore.CHOScore>
0.0000

> <Gold.PLP.Chemscore.Metal>
0.0000

> <Gold.Chemscore.Hbonds>
donor molecule, donor type, donor heavy atom, donor atom, acceptor molecule, acceptor atom, score
      L1  H     1    14       P1  3229  1.00
      L1  H     9    15       P1  3229  0.93

> <Gold.PLP.Chemscore.Internal.Correction>
0.0000

