#       Name:                EN300-73977_i001
#       Creating user name   aseyller
#       Creation time:       Fri Apr 21 15:45:47 2023


#       File generated by GOLD software.
#

@<TRIPOS>MOLECULE
EN300-73977_i001|amine_1|mol2|992|dock4
    15    15     1
SMALL
USER_CHARGES


@<TRIPOS>ATOM
      1 N1          26.1028  37.0361  42.7737 N.pl3          1 <1>                0.0000
      2 C2          26.2111  36.8307  41.3934 C.ar           1 <1>                0.0000
      3 C3          25.4573  37.5959  40.5151 C.ar           1 <1>                0.0000
      4 C4          25.5653  37.3912  39.1524 C.ar           1 <1>                0.0000
      5 C5          26.4237  36.4253  38.6608 C.ar           1 <1>                0.0000
      6 C6          27.1790  35.6585  39.5305 C.ar           1 <1>                0.0000
      7 Cl7         28.2555  34.4468  38.9085 Cl             1 <1>                0.0000
      8 C8          27.0801  35.8616  40.8981 C.ar           1 <1>                0.0000
      9 O9          27.8221  35.1091  41.7546 O.3            1 <1>                0.0000
     10 H10         24.7860  38.3511  40.8962 H              1 <1>                0.0000
     11 H11         24.9774  37.9871  38.4701 H              1 <1>                0.0000
     12 H12         26.5047  36.2685  37.5953 H              1 <1>                0.0000
     13 H13         25.5001  37.7141  43.1173 H              1 <1>                0.0000
     14 H14         26.6273  36.4978  43.3868 H              1 <1>                0.0000
     15 H15         27.3251  34.7698  42.5116 H              1 <1>                0.0000
@<TRIPOS>BOND
    1    1    2 1     
    2    1   13 1     
    3    1   14 1     
    4    2    3 ar    
    5    2    8 ar    
    6    3    4 ar    
    7    3   10 1     
    8    4    5 ar    
    9    4   11 1     
   10    5    6 ar    
   11    5   12 1     
   12    6    7 1     
   13    6    8 ar    
   14    8    9 1     
   15    9   15 1     
@<TRIPOS>SUBSTRUCTURE
      1 ****           1
@<TRIPOS>SET
DONOR_HYDROGENS      STATIC     ATOMS    <user>   **** ""
3 13 14 15
ATOM$RED        STATIC     ATOMS    COLORGROUP SYSTEM
3 13 14 15
@<TRIPOS>COMMENT
> <Gold.Version>
2022.2.0

> <Gold.Id.Protein>
1qkm|1qkm_protein|mol2

> <Gold.Protein.RotatedTorsions>
[  496  491  490  487 ] final  142.88 input  -89.99 | X-H torsion

> <Gold.Protein.ActiveResidues>
 MET295  LEU298  THR299  LEU301  ALA302  GLU305  TRP335  MET336  LEU339  MET340 
 GLY342  LEU343  ARG346  PHE356  ILE373  ILE376  PHE377  LEU380  LYS471  GLY472 
 MET473  HIS475  LEU476  LEU477  ASN478  MET479  VAL484  VAL487 

> <Gold.Protein.RotatedAtoms>
   37.2296   33.0456   41.2912 H   0  0  0  0  0  0  0  0  0  0  0  0  # atno 496  bound_to 491 

> <Gold.Score>
     Score     S(PLP)   S(hbond)     S(cho)   S(metal)  DE(clash)   DE(tors)     intcor
     36.06     -31.86       1.40       0.00       0.00       0.00       0.00       0.00

> <Gold.PLP.Fitness>
36.0600

> <Gold.PLP.PLP>
-31.8634

> <Gold.PLP.part.hbond>
-2.1080

> <Gold.PLP.part.metal>
0.0000

> <Gold.PLP.part.buried>
-3.7572

> <Gold.PLP.part.nonpolar>
-28.6430

> <Gold.PLP.part.repulsive>
1.2956

> <Gold.PLP.ligand.clash>
0.0000

> <Gold.PLP.ligand.torsion>
0.0000

> <Gold.PLP.Chemscore.Hbond>
1.3988

> <Gold.PLP.Chemscore.CHOScore>
0.0000

> <Gold.PLP.Chemscore.Metal>
0.0000

> <Gold.Chemscore.Hbonds>
donor molecule, donor type, donor heavy atom, donor atom, acceptor molecule, acceptor atom, score
      L1  H     1    14       P1   582  0.40
      L1  H     9    15       P1   582  1.00

> <Gold.PLP.Chemscore.Internal.Correction>
0.0000

