#       Name:                EN300-73977_i001
#       Creating user name   aseyller
#       Creation time:       Fri Apr 21 15:45:47 2023


#       File generated by GOLD software.
#

@<TRIPOS>MOLECULE
EN300-73977_i001|amine_1|mol2|992|dock1
    15    15     1
SMALL
USER_CHARGES


@<TRIPOS>ATOM
      1 N1          28.3224  35.5012  42.1807 N.pl3          1 <1>                0.0000
      2 C2          27.8020  36.0682  41.0116 C.ar           1 <1>                0.0000
      3 C3          26.4344  36.2633  40.8822 C.ar           1 <1>                0.0000
      4 C4          25.9225  36.8230  39.7267 C.ar           1 <1>                0.0000
      5 C5          26.7700  37.1901  38.6979 C.ar           1 <1>                0.0000
      6 C6          28.1351  36.9990  38.8198 C.ar           1 <1>                0.0000
      7 Cl7         29.1953  37.4615  37.5252 Cl             1 <1>                0.0000
      8 C8          28.6564  36.4433  39.9776 C.ar           1 <1>                0.0000
      9 O9          29.9982  36.2550  40.0994 O.3            1 <1>                0.0000
     10 H10         25.7700  35.9776  41.6842 H              1 <1>                0.0000
     11 H11         24.8577  36.9736  39.6272 H              1 <1>                0.0000
     12 H12         26.3655  37.6267  37.7967 H              1 <1>                0.0000
     13 H13         27.7266  35.2441  42.9018 H              1 <1>                0.0000
     14 H14         29.2782  35.3616  42.2683 H              1 <1>                0.0000
     15 H15         30.2602  35.8108  40.9174 H              1 <1>                0.0000
@<TRIPOS>BOND
    1    1    2 1     
    2    1   13 1     
    3    1   14 1     
    4    2    3 ar    
    5    2    8 ar    
    6    3    4 ar    
    7    3   10 1     
    8    4    5 ar    
    9    4   11 1     
   10    5    6 ar    
   11    5   12 1     
   12    6    7 1     
   13    6    8 ar    
   14    8    9 1     
   15    9   15 1     
@<TRIPOS>SUBSTRUCTURE
      1 ****           1
@<TRIPOS>SET
DONOR_HYDROGENS      STATIC     ATOMS    <user>   **** ""
3 13 14 15
ATOM$RED        STATIC     ATOMS    COLORGROUP SYSTEM
3 13 14 15
@<TRIPOS>COMMENT
> <Gold.Version>
2022.2.0

> <Gold.Id.Protein>
1qkm|1qkm_protein|mol2

> <Gold.Protein.RotatedTorsions>
[  496  491  490  487 ] final -174.49 input  -89.99 | X-H torsion

> <Gold.Protein.ActiveResidues>
 MET295  LEU298  THR299  LEU301  ALA302  GLU305  TRP335  MET336  LEU339  MET340 
 GLY342  LEU343  ARG346  PHE356  ILE373  ILE376  PHE377  LEU380  LYS471  GLY472 
 MET473  HIS475  LEU476  LEU477  ASN478  MET479  VAL484  VAL487 

> <Gold.Protein.RotatedAtoms>
   37.3124   33.5417   40.8252 H   0  0  0  0  0  0  0  0  0  0  0  0  # atno 496  bound_to 491 

> <Gold.Score>
     Score     S(PLP)   S(hbond)     S(cho)   S(metal)  DE(clash)   DE(tors)     intcor
     38.81     -33.23       1.86       0.00       0.00       0.00       0.00       0.00

> <Gold.PLP.Fitness>
38.8063

> <Gold.PLP.PLP>
-33.2277

> <Gold.PLP.part.hbond>
-2.0000

> <Gold.PLP.part.metal>
0.0000

> <Gold.PLP.part.buried>
-3.4749

> <Gold.PLP.part.nonpolar>
-28.5877

> <Gold.PLP.part.repulsive>
0.0932

> <Gold.PLP.ligand.clash>
0.0000

> <Gold.PLP.ligand.torsion>
0.0000

> <Gold.PLP.Chemscore.Hbond>
1.8596

> <Gold.PLP.Chemscore.CHOScore>
0.0000

> <Gold.PLP.Chemscore.Metal>
0.0000

> <Gold.Chemscore.Hbonds>
donor molecule, donor type, donor heavy atom, donor atom, acceptor molecule, acceptor atom, score
      L1  H     1    13       P1   582  1.00
      L1  H     9    15       P1   470  0.86

> <Gold.PLP.Chemscore.Internal.Correction>
0.0000

