#       Name:                EN300-85007_i002
#       Creating user name   aseyller
#       Creation time:       Fri Apr 21 12:24:24 2023


#       File generated by GOLD software.
#

@<TRIPOS>MOLECULE
EN300-85007_i002|amine_3|mol2|25|dock6
    42    43     1
SMALL
USER_CHARGES


@<TRIPOS>ATOM
      1 C1          32.3007  35.2105  35.6614 C.3            1 <1>                0.0000
      2 C2          32.6906  36.4678  36.4413 C.3            1 <1>                0.0000
      3 C3          33.9217  36.1736  37.3008 C.3            1 <1>                0.0000
      4 C4          33.0114  37.5973  35.4605 C.3            1 <1>                0.0000
      5 O5          31.5876  36.8681  37.2966 O.3            1 <1>                0.0000
      6 C6          31.0165  35.9074  38.0477 C.2            1 <1>                0.0000
      7 O7          31.6779  34.9633  38.4321 O.2            1 <1>                0.0000
      8 N8          29.7114  35.9930  38.3731 N.am           1 <1>                0.0000
      9 C9          28.9812  35.0133  39.1818 C.3            1 <1>                0.0000
     10 C10         27.5444  35.5532  39.2689 C.3            1 <1>                0.0000
     11 C11         27.1662  35.8315  40.7251 C.3            1 <1>                0.0000
     12 C12         28.2573  36.6791  41.3823 C.3            1 <1>                0.0000
     13 N13         29.1894  35.8030  42.1045 N.4            1 <1>                1.0000
     14 C14         27.5727  36.8406  38.4761 C.ar           1 <1>                0.0000
     15 C15         26.5768  37.7594  38.2045 C.ar           1 <1>                0.0000
     16 C16         26.8540  38.8785  37.4421 C.ar           1 <1>                0.0000
     17 C17         28.1315  39.0771  36.9510 C.ar           1 <1>                0.0000
     18 C18         29.1278  38.1630  37.2190 C.ar           1 <1>                0.0000
     19 C19         28.8570  37.0332  37.9934 C.ar           1 <1>                0.0000
     20 H20         32.0722  34.4058  36.3602 H              1 <1>                0.0000
     21 H21         31.4237  35.4201  35.0491 H              1 <1>                0.0000
     22 H22         33.1287  34.9099  35.0194 H              1 <1>                0.0000
     23 H23         34.7497  35.8730  36.6587 H              1 <1>                0.0000
     24 H24         34.1993  37.0693  37.8564 H              1 <1>                0.0000
     25 H25         33.6931  35.3689  37.9995 H              1 <1>                0.0000
     26 H26         32.1343  37.8069  34.8482 H              1 <1>                0.0000
     27 H27         33.2890  38.4931  36.0161 H              1 <1>                0.0000
     28 H28         33.8393  37.2968  34.8184 H              1 <1>                0.0000
     29 H29         28.9899  34.0386  38.6939 H              1 <1>                0.0000
     30 H30         29.4196  34.9426  40.1772 H              1 <1>                0.0000
     31 H31         26.8448  34.8458  38.8238 H              1 <1>                0.0000
     32 H32         26.2188  36.3696  40.7580 H              1 <1>                0.0000
     33 H33         27.0668  34.8877  41.2613 H              1 <1>                0.0000
     34 H34         28.7990  37.2323  40.6152 H              1 <1>                0.0000
     35 H35         27.8012  37.3797  42.0817 H              1 <1>                0.0000
     36 H36         25.5798  37.6025  38.5886 H              1 <1>                0.0000
     37 H37         26.0749  39.5958  37.2302 H              1 <1>                0.0000
     38 H38         28.3493  39.9512  36.3552 H              1 <1>                0.0000
     39 H39         30.1231  38.3236  36.8320 H              1 <1>                0.0000
     40 H40         30.1246  35.9447  41.7535 H              1 <1>                0.0000
     41 H41         29.1628  36.0225  43.0891 H              1 <1>                0.0000
     42 H42         28.9209  34.8402  41.9673 H              1 <1>                0.0000
@<TRIPOS>BOND
    1    1    2 1     
    2    1   20 1     
    3    1   21 1     
    4    1   22 1     
    5    2    3 1     
    6    2    4 1     
    7    2    5 1     
    8    3   23 1     
    9    3   24 1     
   10    3   25 1     
   11    4   26 1     
   12    4   27 1     
   13    4   28 1     
   14    5    6 1     
   15    6    7 2     
   16    6    8 am    
   17    8    9 1     
   18    8   19 1     
   19    9   10 1     
   20    9   29 1     
   21    9   30 1     
   22   10   11 1     
   23   10   14 1     
   24   10   31 1     
   25   11   12 1     
   26   11   32 1     
   27   11   33 1     
   28   12   13 1     
   29   12   34 1     
   30   12   35 1     
   31   13   40 1     
   32   13   41 1     
   33   13   42 1     
   34   14   15 ar    
   35   14   19 ar    
   36   15   16 ar    
   37   15   36 1     
   38   16   17 ar    
   39   16   37 1     
   40   17   18 ar    
   41   17   38 1     
   42   18   19 ar    
   43   18   39 1     
@<TRIPOS>SUBSTRUCTURE
      1 ****           1
@<TRIPOS>SET
DONOR_HYDROGENS      STATIC     ATOMS    <user>   **** ""
3 40 41 42
ATOM$RED        STATIC     ATOMS    COLORGROUP SYSTEM
3 40 41 42
@<TRIPOS>COMMENT
> <Gold.Version>
2022.2.0

> <Gold.Id.Protein>
1qkm|1qkm_protein|mol2

> <Gold.Protein.RotatedTorsions>
[  496  491  490  487 ] final  -85.25 input  -89.99 | X-H torsion

> <Gold.Protein.ActiveResidues>
 MET295  LEU298  THR299  LEU301  ALA302  GLU305  TRP335  MET336  LEU339  MET340 
 GLY342  LEU343  ARG346  PHE356  ILE373  ILE376  PHE377  LEU380  LYS471  GLY472 
 MET473  HIS475  LEU476  LEU477  ASN478  MET479  VAL484  VAL487 

> <Gold.Protein.RotatedAtoms>
   36.7136   34.6816   41.1375 H   0  0  0  0  0  0  0  0  0  0  0  0  # atno 496  bound_to 491 

> <Gold.Score>
     Score     S(PLP)   S(hbond)     S(cho)   S(metal)  DE(clash)   DE(tors)     intcor
     59.38     -58.41       0.69       0.00       0.00       0.00       0.76       0.42

> <Gold.PLP.Fitness>
59.3768

> <Gold.PLP.PLP>
-58.4063

> <Gold.PLP.part.hbond>
-1.0000

> <Gold.PLP.part.metal>
0.0000

> <Gold.PLP.part.buried>
-5.3199

> <Gold.PLP.part.nonpolar>
-53.4523

> <Gold.PLP.part.repulsive>
0.1855

> <Gold.PLP.ligand.clash>
0.0000

> <Gold.PLP.ligand.torsion>
0.7559

> <Gold.PLP.Chemscore.Hbond>
0.6880

> <Gold.PLP.Chemscore.CHOScore>
0.0000

> <Gold.PLP.Chemscore.Metal>
0.0000

> <Gold.Chemscore.Hbonds>
donor molecule, donor type, donor heavy atom, donor atom, acceptor molecule, acceptor atom, score
      L1  H    13    40       P1   470  0.69

> <Gold.PLP.Chemscore.Internal.Correction>
0.4182

