#       Name:                EN300-85007_i002
#       Creating user name   aseyller
#       Creation time:       Fri Apr 21 12:24:26 2023


#       File generated by GOLD software.
#

@<TRIPOS>MOLECULE
EN300-85007_i002|amine_3|mol2|25|dock8
    42    43     1
SMALL
USER_CHARGES


@<TRIPOS>ATOM
      1 C1          26.3553  36.9942  40.0016 C.3            1 <1>                0.0000
      2 C2          27.7302  36.3354  39.8721 C.3            1 <1>                0.0000
      3 C3          28.3037  36.0736  41.2662 C.3            1 <1>                0.0000
      4 C4          27.5918  35.0100  39.1204 C.3            1 <1>                0.0000
      5 O5          28.6220  37.2165  39.1394 O.3            1 <1>                0.0000
      6 C6          29.8305  36.7244  38.8071 C.2            1 <1>                0.0000
      7 O7          30.2450  35.7167  39.3448 O.2            1 <1>                0.0000
      8 N8          30.5804  37.3496  37.8780 N.am           1 <1>                0.0000
      9 C9          31.9064  36.9111  37.4346 C.3            1 <1>                0.0000
     10 C10         32.3390  37.9409  36.3781 C.3            1 <1>                0.0000
     11 C11         32.5520  37.2597  35.0247 C.3            1 <1>                0.0000
     12 C12         33.6014  36.1557  35.1689 C.3            1 <1>                0.0000
     13 N13         34.9302  36.6998  34.8588 N.4            1 <1>                1.0000
     14 C14         31.1857  38.9160  36.3021 C.ar           1 <1>                0.0000
     15 C15         31.0052  40.0473  35.5293 C.ar           1 <1>                0.0000
     16 C16         29.8429  40.7867  35.6419 C.ar           1 <1>                0.0000
     17 C17         28.8597  40.3916  36.5306 C.ar           1 <1>                0.0000
     18 C18         29.0357  39.2641  37.3038 C.ar           1 <1>                0.0000
     19 C19         30.2045  38.5086  37.1914 C.ar           1 <1>                0.0000
     20 H20         26.4540  37.9385  40.5371 H              1 <1>                0.0000
     21 H21         25.9468  37.1807  39.0084 H              1 <1>                0.0000
     22 H22         25.6859  36.3329  40.5516 H              1 <1>                0.0000
     23 H23         27.6342  35.4123  41.8162 H              1 <1>                0.0000
     24 H24         29.2832  35.6044  41.1739 H              1 <1>                0.0000
     25 H25         28.4023  37.0179  41.8016 H              1 <1>                0.0000
     26 H26         27.1833  35.1965  38.1273 H              1 <1>                0.0000
     27 H27         28.5713  34.5406  39.0281 H              1 <1>                0.0000
     28 H28         26.9223  34.3486  39.6704 H              1 <1>                0.0000
     29 H29         32.6046  36.9122  38.2717 H              1 <1>                0.0000
     30 H30         31.8475  35.9170  36.9917 H              1 <1>                0.0000
     31 H31         33.2496  38.4500  36.6940 H              1 <1>                0.0000
     32 H32         31.6118  36.8253  34.6847 H              1 <1>                0.0000
     33 H33         32.8961  37.9955  34.2978 H              1 <1>                0.0000
     34 H34         33.5930  35.7779  36.1913 H              1 <1>                0.0000
     35 H35         33.3713  35.3435  34.4795 H              1 <1>                0.0000
     36 H36         31.7742  40.3545  34.8361 H              1 <1>                0.0000
     37 H37         29.7030  41.6709  35.0377 H              1 <1>                0.0000
     38 H38         27.9511  40.9686  36.6195 H              1 <1>                0.0000
     39 H39         28.2644  38.9614  37.9964 H              1 <1>                0.0000
     40 H40         34.8401  37.4416  34.1809 H              1 <1>                0.0000
     41 H41         35.3497  37.0632  35.7014 H              1 <1>                0.0000
     42 H42         35.5135  35.9681  34.4813 H              1 <1>                0.0000
@<TRIPOS>BOND
    1    1    2 1     
    2    1   20 1     
    3    1   21 1     
    4    1   22 1     
    5    2    3 1     
    6    2    4 1     
    7    2    5 1     
    8    3   23 1     
    9    3   24 1     
   10    3   25 1     
   11    4   26 1     
   12    4   27 1     
   13    4   28 1     
   14    5    6 1     
   15    6    7 2     
   16    6    8 am    
   17    8    9 1     
   18    8   19 1     
   19    9   10 1     
   20    9   29 1     
   21    9   30 1     
   22   10   11 1     
   23   10   14 1     
   24   10   31 1     
   25   11   12 1     
   26   11   32 1     
   27   11   33 1     
   28   12   13 1     
   29   12   34 1     
   30   12   35 1     
   31   13   40 1     
   32   13   41 1     
   33   13   42 1     
   34   14   15 ar    
   35   14   19 ar    
   36   15   16 ar    
   37   15   36 1     
   38   16   17 ar    
   39   16   37 1     
   40   17   18 ar    
   41   17   38 1     
   42   18   19 ar    
   43   18   39 1     
@<TRIPOS>SUBSTRUCTURE
      1 ****           1
@<TRIPOS>SET
DONOR_HYDROGENS      STATIC     ATOMS    <user>   **** ""
3 40 41 42
ATOM$RED        STATIC     ATOMS    COLORGROUP SYSTEM
3 40 41 42
@<TRIPOS>COMMENT
> <Gold.Version>
2022.2.0

> <Gold.Id.Protein>
1qkm|1qkm_protein|mol2

> <Gold.Protein.RotatedTorsions>
[  496  491  490  487 ] final  120.74 input  -89.99 | X-H torsion

> <Gold.Protein.ActiveResidues>
 MET295  LEU298  THR299  LEU301  ALA302  GLU305  TRP335  MET336  LEU339  MET340 
 GLY342  LEU343  ARG346  PHE356  ILE373  ILE376  PHE377  LEU380  LYS471  GLY472 
 MET473  HIS475  LEU476  LEU477  ASN478  MET479  VAL484  VAL487 

> <Gold.Protein.RotatedAtoms>
   37.0863   32.9444   41.6080 H   0  0  0  0  0  0  0  0  0  0  0  0  # atno 496  bound_to 491 

> <Gold.Score>
     Score     S(PLP)   S(hbond)     S(cho)   S(metal)  DE(clash)   DE(tors)     intcor
     55.42     -52.92       1.00       0.00       0.00       0.00       0.46       0.42

> <Gold.PLP.Fitness>
55.4232

> <Gold.PLP.PLP>
-52.9227

> <Gold.PLP.part.hbond>
-1.0000

> <Gold.PLP.part.metal>
0.0000

> <Gold.PLP.part.buried>
-0.3343

> <Gold.PLP.part.nonpolar>
-52.4321

> <Gold.PLP.part.repulsive>
0.1908

> <Gold.PLP.ligand.clash>
0.0000

> <Gold.PLP.ligand.torsion>
0.4588

> <Gold.PLP.Chemscore.Hbond>
1.0000

> <Gold.PLP.Chemscore.CHOScore>
0.0000

> <Gold.PLP.Chemscore.Metal>
0.0000

> <Gold.Chemscore.Hbonds>
donor molecule, donor type, donor heavy atom, donor atom, acceptor molecule, acceptor atom, score
      L1  H    13    40       P1  3229  1.00

> <Gold.PLP.Chemscore.Internal.Correction>
0.4182

