#       Name:                EN300-85007_i002
#       Creating user name   aseyller
#       Creation time:       Fri Apr 21 12:24:21 2023


#       File generated by GOLD software.
#

@<TRIPOS>MOLECULE
EN300-85007_i002|amine_3|mol2|25|dock4
    42    43     1
SMALL
USER_CHARGES


@<TRIPOS>ATOM
      1 C1          26.2761  37.2951  40.7714 C.3            1 <1>                0.0000
      2 C2          27.4761  36.3464  40.7368 C.3            1 <1>                0.0000
      3 C3          28.4429  36.7055  41.8669 C.3            1 <1>                0.0000
      4 C4          26.9928  34.9061  40.9174 C.3            1 <1>                0.0000
      5 O5          28.1559  36.4724  39.4599 O.3            1 <1>                0.0000
      6 C6          29.3466  35.8556  39.3378 C.2            1 <1>                0.0000
      7 O7          29.6021  34.8865  40.0249 O.2            1 <1>                0.0000
      8 N8          30.2550  36.3131  38.4535 N.am           1 <1>                0.0000
      9 C9          31.5799  35.7280  38.2314 C.3            1 <1>                0.0000
     10 C10         32.2259  36.5961  37.1392 C.3            1 <1>                0.0000
     11 C11         32.5373  35.7522  35.9015 C.3            1 <1>                0.0000
     12 C12         33.6194  36.4449  35.0709 C.3            1 <1>                0.0000
     13 N13         32.9894  37.2128  33.9886 N.4            1 <1>                1.0000
     14 C14         31.1817  37.6410  36.8160 C.ar           1 <1>                0.0000
     15 C15         31.1966  38.6882  35.9144 C.ar           1 <1>                0.0000
     16 C16         30.0999  39.5217  35.8004 C.ar           1 <1>                0.0000
     17 C17         28.9862  39.3052  36.5912 C.ar           1 <1>                0.0000
     18 C18         28.9672  38.2622  37.4922 C.ar           1 <1>                0.0000
     19 C19         30.0688  37.4123  37.6090 C.ar           1 <1>                0.0000
     20 H20         26.6206  38.3213  40.6427 H              1 <1>                0.0000
     21 H21         25.5874  37.0393  39.9663 H              1 <1>                0.0000
     22 H22         25.7659  37.2007  41.7299 H              1 <1>                0.0000
     23 H23         27.9326  36.6110  42.8254 H              1 <1>                0.0000
     24 H24         29.2978  36.0297  41.8421 H              1 <1>                0.0000
     25 H25         28.7872  37.7316  41.7382 H              1 <1>                0.0000
     26 H26         26.3040  34.6503  40.1123 H              1 <1>                0.0000
     27 H27         27.8476  34.2302  40.8926 H              1 <1>                0.0000
     28 H28         26.4824  34.8115  41.8759 H              1 <1>                0.0000
     29 H29         32.1703  35.7707  39.1467 H              1 <1>                0.0000
     30 H30         31.4857  34.6976  37.8890 H              1 <1>                0.0000
     31 H31         33.1340  37.0670  37.5155 H              1 <1>                0.0000
     32 H32         32.8910  34.7689  36.2118 H              1 <1>                0.0000
     33 H33         31.6342  35.6406  35.3013 H              1 <1>                0.0000
     34 H34         34.1915  37.1185  35.7089 H              1 <1>                0.0000
     35 H35         34.2857  35.6951  34.6443 H              1 <1>                0.0000
     36 H36         32.0673  38.8559  35.2979 H              1 <1>                0.0000
     37 H37         30.1128  40.3400  35.0957 H              1 <1>                0.0000
     38 H38         28.1287  39.9558  36.5030 H              1 <1>                0.0000
     39 H39         28.0947  38.0990  38.1074 H              1 <1>                0.0000
     40 H40         32.4564  36.5899  33.4005 H              1 <1>                0.0000
     41 H41         32.3758  37.9095  34.3837 H              1 <1>                0.0000
     42 H42         33.7032  37.6664  33.4384 H              1 <1>                0.0000
@<TRIPOS>BOND
    1    1    2 1     
    2    1   20 1     
    3    1   21 1     
    4    1   22 1     
    5    2    3 1     
    6    2    4 1     
    7    2    5 1     
    8    3   23 1     
    9    3   24 1     
   10    3   25 1     
   11    4   26 1     
   12    4   27 1     
   13    4   28 1     
   14    5    6 1     
   15    6    7 2     
   16    6    8 am    
   17    8    9 1     
   18    8   19 1     
   19    9   10 1     
   20    9   29 1     
   21    9   30 1     
   22   10   11 1     
   23   10   14 1     
   24   10   31 1     
   25   11   12 1     
   26   11   32 1     
   27   11   33 1     
   28   12   13 1     
   29   12   34 1     
   30   12   35 1     
   31   13   40 1     
   32   13   41 1     
   33   13   42 1     
   34   14   15 ar    
   35   14   19 ar    
   36   15   16 ar    
   37   15   36 1     
   38   16   17 ar    
   39   16   37 1     
   40   17   18 ar    
   41   17   38 1     
   42   18   19 ar    
   43   18   39 1     
@<TRIPOS>SUBSTRUCTURE
      1 ****           1
@<TRIPOS>SET
DONOR_HYDROGENS      STATIC     ATOMS    <user>   **** ""
3 40 41 42
ATOM$RED        STATIC     ATOMS    COLORGROUP SYSTEM
3 40 41 42
@<TRIPOS>COMMENT
> <Gold.Version>
2022.2.0

> <Gold.Id.Protein>
1qkm|1qkm_protein|mol2

> <Gold.Protein.RotatedTorsions>
[  496  491  490  487 ] final   -6.61 input  -89.99 | X-H torsion

> <Gold.Protein.ActiveResidues>
 MET295  LEU298  THR299  LEU301  ALA302  GLU305  TRP335  MET336  LEU339  MET340 
 GLY342  LEU343  ARG346  PHE356  ILE373  ILE376  PHE377  LEU380  LYS471  GLY472 
 MET473  HIS475  LEU476  LEU477  ASN478  MET479  VAL484  VAL487 

> <Gold.Protein.RotatedAtoms>
   36.2596   34.3050   42.1771 H   0  0  0  0  0  0  0  0  0  0  0  0  # atno 496  bound_to 491 

> <Gold.Score>
     Score     S(PLP)   S(hbond)     S(cho)   S(metal)  DE(clash)   DE(tors)     intcor
     58.80     -55.39       1.61       0.00       0.00       0.00       0.94       0.46

> <Gold.PLP.Fitness>
58.8004

> <Gold.PLP.PLP>
-55.3868

> <Gold.PLP.part.hbond>
-1.8675

> <Gold.PLP.part.metal>
0.0000

> <Gold.PLP.part.buried>
-0.5953

> <Gold.PLP.part.nonpolar>
-55.0384

> <Gold.PLP.part.repulsive>
0.8047

> <Gold.PLP.ligand.clash>
0.0000

> <Gold.PLP.ligand.torsion>
0.9390

> <Gold.PLP.Chemscore.Hbond>
1.6113

> <Gold.PLP.Chemscore.CHOScore>
0.0000

> <Gold.PLP.Chemscore.Metal>
0.0000

> <Gold.Chemscore.Hbonds>
donor molecule, donor type, donor heavy atom, donor atom, acceptor molecule, acceptor atom, score
      L1  H    13    40       P1  3187  0.86
      L1  H    13    42       P1  3229  0.75

> <Gold.PLP.Chemscore.Internal.Correction>
0.4579

