#       Name:                EN300-85007_i002
#       Creating user name   aseyller
#       Creation time:       Fri Apr 21 12:24:18 2023


#       File generated by GOLD software.
#

@<TRIPOS>MOLECULE
EN300-85007_i002|amine_3|mol2|25|dock1
    42    43     1
SMALL
USER_CHARGES


@<TRIPOS>ATOM
      1 C1          25.5006  37.5895  39.2718 C.3            1 <1>                0.0000
      2 C2          26.6347  36.5894  39.5054 C.3            1 <1>                0.0000
      3 C3          26.6122  36.1240  40.9627 C.3            1 <1>                0.0000
      4 C4          26.4497  35.3836  38.5820 C.3            1 <1>                0.0000
      5 O5          27.9081  37.2265  39.2204 O.3            1 <1>                0.0000
      6 C6          28.9943  36.4317  39.1825 C.2            1 <1>                0.0000
      7 O7          29.0378  35.4292  39.8678 O.2            1 <1>                0.0000
      8 N8          30.0333  36.7480  38.3844 N.am           1 <1>                0.0000
      9 C9          31.2649  35.9643  38.2584 C.3            1 <1>                0.0000
     10 C10         32.1268  36.7288  37.2403 C.3            1 <1>                0.0000
     11 C11         32.4051  35.8562  36.0147 C.3            1 <1>                0.0000
     12 C12         33.6127  36.4114  35.2570 C.3            1 <1>                0.0000
     13 N13         33.1631  37.0200  33.9978 N.4            1 <1>                1.0000
     14 C14         31.2885  37.9270  36.8554 C.ar           1 <1>                0.0000
     15 C15         31.5412  38.9659  35.9798 C.ar           1 <1>                0.0000
     16 C16         30.6008  39.9618  35.7946 C.ar           1 <1>                0.0000
     17 C17         29.4051  39.9165  36.4879 C.ar           1 <1>                0.0000
     18 C18         29.1490  38.8823  37.3625 C.ar           1 <1>                0.0000
     19 C19         30.0915  37.8694  37.5506 C.ar           1 <1>                0.0000
     20 H20         25.6325  38.4485  39.9296 H              1 <1>                0.0000
     21 H21         25.5167  37.9210  38.2336 H              1 <1>                0.0000
     22 H22         24.5448  37.1114  39.4857 H              1 <1>                0.0000
     23 H23         25.6563  35.6458  41.1767 H              1 <1>                0.0000
     24 H24         27.4202  35.4116  41.1292 H              1 <1>                0.0000
     25 H25         26.7440  36.9830  41.6205 H              1 <1>                0.0000
     26 H26         26.4658  35.7152  37.5438 H              1 <1>                0.0000
     27 H27         27.2578  34.6712  38.7484 H              1 <1>                0.0000
     28 H28         25.4939  34.9054  38.7959 H              1 <1>                0.0000
     29 H29         31.7765  35.9067  39.2192 H              1 <1>                0.0000
     30 H30         31.0404  34.9640  37.8881 H              1 <1>                0.0000
     31 H31         33.0626  37.0486  37.6987 H              1 <1>                0.0000
     32 H32         32.6151  34.8357  36.3354 H              1 <1>                0.0000
     33 H33         31.5329  35.8594  35.3609 H              1 <1>                0.0000
     34 H34         34.1097  37.1652  35.8677 H              1 <1>                0.0000
     35 H35         34.3096  35.6017  35.0407 H              1 <1>                0.0000
     36 H36         32.4756  38.9998  35.4396 H              1 <1>                0.0000
     37 H37         30.7996  40.7735  35.1104 H              1 <1>                0.0000
     38 H38         28.6696  40.6941  36.3439 H              1 <1>                0.0000
     39 H39         28.2136  38.8531  37.9015 H              1 <1>                0.0000
     40 H40         33.9449  37.4658  33.5417 H              1 <1>                0.0000
     41 H41         32.7851  36.3047  33.3948 H              1 <1>                0.0000
     42 H42         32.4504  37.7073  34.1921 H              1 <1>                0.0000
@<TRIPOS>BOND
    1    1    2 1     
    2    1   20 1     
    3    1   21 1     
    4    1   22 1     
    5    2    3 1     
    6    2    4 1     
    7    2    5 1     
    8    3   23 1     
    9    3   24 1     
   10    3   25 1     
   11    4   26 1     
   12    4   27 1     
   13    4   28 1     
   14    5    6 1     
   15    6    7 2     
   16    6    8 am    
   17    8    9 1     
   18    8   19 1     
   19    9   10 1     
   20    9   29 1     
   21    9   30 1     
   22   10   11 1     
   23   10   14 1     
   24   10   31 1     
   25   11   12 1     
   26   11   32 1     
   27   11   33 1     
   28   12   13 1     
   29   12   34 1     
   30   12   35 1     
   31   13   40 1     
   32   13   41 1     
   33   13   42 1     
   34   14   15 ar    
   35   14   19 ar    
   36   15   16 ar    
   37   15   36 1     
   38   16   17 ar    
   39   16   37 1     
   40   17   18 ar    
   41   17   38 1     
   42   18   19 ar    
   43   18   39 1     
@<TRIPOS>SUBSTRUCTURE
      1 ****           1
@<TRIPOS>SET
DONOR_HYDROGENS      STATIC     ATOMS    <user>   **** ""
3 40 41 42
ATOM$RED        STATIC     ATOMS    COLORGROUP SYSTEM
3 40 41 42
@<TRIPOS>COMMENT
> <Gold.Version>
2022.2.0

> <Gold.Id.Protein>
1qkm|1qkm_protein|mol2

> <Gold.Protein.RotatedTorsions>
[  496  491  490  487 ] final   94.52 input  -89.99 | X-H torsion

> <Gold.Protein.ActiveResidues>
 MET295  LEU298  THR299  LEU301  ALA302  GLU305  TRP335  MET336  LEU339  MET340 
 GLY342  LEU343  ARG346  PHE356  ILE373  ILE376  PHE377  LEU380  LYS471  GLY472 
 MET473  HIS475  LEU476  LEU477  ASN478  MET479  VAL484  VAL487 

> <Gold.Protein.RotatedAtoms>
   36.8619   32.9948   41.9688 H   0  0  0  0  0  0  0  0  0  0  0  0  # atno 496  bound_to 491 

> <Gold.Score>
     Score     S(PLP)   S(hbond)     S(cho)   S(metal)  DE(clash)   DE(tors)     intcor
     66.54     -62.10       2.00       0.00       0.00       0.00       1.00       0.46

> <Gold.PLP.Fitness>
66.5448

> <Gold.PLP.PLP>
-62.0956

> <Gold.PLP.part.hbond>
-2.0000

> <Gold.PLP.part.metal>
0.0000

> <Gold.PLP.part.buried>
-3.0899

> <Gold.PLP.part.nonpolar>
-57.4870

> <Gold.PLP.part.repulsive>
0.1673

> <Gold.PLP.ligand.clash>
0.0000

> <Gold.PLP.ligand.torsion>
1.0043

> <Gold.PLP.Chemscore.Hbond>
2.0000

> <Gold.PLP.Chemscore.CHOScore>
0.0000

> <Gold.PLP.Chemscore.Metal>
0.0000

> <Gold.Chemscore.Hbonds>
donor molecule, donor type, donor heavy atom, donor atom, acceptor molecule, acceptor atom, score
      L1  H    13    40       P1  3229  1.00
      L1  H    13    41       P1  3187  1.00

> <Gold.PLP.Chemscore.Internal.Correction>
0.4579

