#       Name:                EN300-85007_i002
#       Creating user name   aseyller
#       Creation time:       Fri Apr 21 12:24:34 2023


#       File generated by GOLD software.
#

@<TRIPOS>MOLECULE
EN300-85007_i002|amine_3|mol2|25|dock14
    42    43     1
SMALL
USER_CHARGES


@<TRIPOS>ATOM
      1 C1          26.0100  37.2011  40.5700 C.3            1 <1>                0.0000
      2 C2          26.3728  37.2030  39.0836 C.3            1 <1>                0.0000
      3 C3          26.1364  35.8089  38.4991 C.3            1 <1>                0.0000
      4 C4          25.4990  38.2199  38.3467 C.3            1 <1>                0.0000
      5 O5          27.7708  37.5627  38.9271 O.3            1 <1>                0.0000
      6 C6          28.6835  36.6641  39.3427 C.2            1 <1>                0.0000
      7 O7          28.4225  35.9140  40.2624 O.2            1 <1>                0.0000
      8 N8          29.8864  36.5965  38.7386 N.am           1 <1>                0.0000
      9 C9          30.9571  35.6640  39.1006 C.3            1 <1>                0.0000
     10 C10         32.1090  35.9772  38.1317 C.3            1 <1>                0.0000
     11 C11         32.4342  34.7516  37.2755 C.3            1 <1>                0.0000
     12 C12         32.5562  33.5194  38.1742 C.3            1 <1>                0.0000
     13 N13         31.2737  32.8036  38.2003 N.4            1 <1>                1.0000
     14 C14         31.5840  37.1007  37.2665 C.ar           1 <1>                0.0000
     15 C15         32.1716  37.7918  36.2239 C.ar           1 <1>                0.0000
     16 C16         31.4760  38.7962  35.5775 C.ar           1 <1>                0.0000
     17 C17         30.1892  39.1085  35.9766 C.ar           1 <1>                0.0000
     18 C18         29.5994  38.4221  37.0163 C.ar           1 <1>                0.0000
     19 C19         30.2934  37.4022  37.6703 C.ar           1 <1>                0.0000
     20 H20         26.6326  36.4766  41.0949 H              1 <1>                0.0000
     21 H21         26.1784  38.1942  40.9864 H              1 <1>                0.0000
     22 H22         24.9606  36.9310  40.6875 H              1 <1>                0.0000
     23 H23         25.0869  35.5389  38.6166 H              1 <1>                0.0000
     24 H24         26.3949  35.8103  37.4402 H              1 <1>                0.0000
     25 H25         26.7589  35.0845  39.0241 H              1 <1>                0.0000
     26 H26         25.6674  39.2130  38.7630 H              1 <1>                0.0000
     27 H27         25.7575  38.2213  37.2877 H              1 <1>                0.0000
     28 H28         24.4495  37.9499  38.4641 H              1 <1>                0.0000
     29 H29         31.2729  35.8322  40.1303 H              1 <1>                0.0000
     30 H30         30.6225  34.6350  38.9702 H              1 <1>                0.0000
     31 H31         32.9922  36.3001  38.6829 H              1 <1>                0.0000
     32 H32         31.6370  34.5940  36.5490 H              1 <1>                0.0000
     33 H33         33.3763  34.9140  36.7516 H              1 <1>                0.0000
     34 H34         33.3321  32.8606  37.7841 H              1 <1>                0.0000
     35 H35         32.8188  33.8314  39.1850 H              1 <1>                0.0000
     36 H36         33.1766  37.5468  35.9139 H              1 <1>                0.0000
     37 H37         31.9363  39.3358  34.7631 H              1 <1>                0.0000
     38 H38         29.6447  39.8931  35.4722 H              1 <1>                0.0000
     39 H39         28.5945  38.6713  37.3236 H              1 <1>                0.0000
     40 H40         30.7581  33.0671  39.0266 H              1 <1>                0.0000
     41 H41         30.7382  33.0429  37.3792 H              1 <1>                0.0000
     42 H42         31.4437  31.8091  38.2127 H              1 <1>                0.0000
@<TRIPOS>BOND
    1    1    2 1     
    2    1   20 1     
    3    1   21 1     
    4    1   22 1     
    5    2    3 1     
    6    2    4 1     
    7    2    5 1     
    8    3   23 1     
    9    3   24 1     
   10    3   25 1     
   11    4   26 1     
   12    4   27 1     
   13    4   28 1     
   14    5    6 1     
   15    6    7 2     
   16    6    8 am    
   17    8    9 1     
   18    8   19 1     
   19    9   10 1     
   20    9   29 1     
   21    9   30 1     
   22   10   11 1     
   23   10   14 1     
   24   10   31 1     
   25   11   12 1     
   26   11   32 1     
   27   11   33 1     
   28   12   13 1     
   29   12   34 1     
   30   12   35 1     
   31   13   40 1     
   32   13   41 1     
   33   13   42 1     
   34   14   15 ar    
   35   14   19 ar    
   36   15   16 ar    
   37   15   36 1     
   38   16   17 ar    
   39   16   37 1     
   40   17   18 ar    
   41   17   38 1     
   42   18   19 ar    
   43   18   39 1     
@<TRIPOS>SUBSTRUCTURE
      1 ****           1
@<TRIPOS>SET
DONOR_HYDROGENS      STATIC     ATOMS    <user>   **** ""
3 40 41 42
ATOM$RED        STATIC     ATOMS    COLORGROUP SYSTEM
3 40 41 42
@<TRIPOS>COMMENT
> <Gold.Version>
2022.2.0

> <Gold.Id.Protein>
1qkm|1qkm_protein|mol2

> <Gold.Protein.RotatedTorsions>
[  496  491  490  487 ] final  113.60 input  -89.99 | X-H torsion

> <Gold.Protein.ActiveResidues>
 MET295  LEU298  THR299  LEU301  ALA302  GLU305  TRP335  MET336  LEU339  MET340 
 GLY342  LEU343  ARG346  PHE356  ILE373  ILE376  PHE377  LEU380  LYS471  GLY472 
 MET473  HIS475  LEU476  LEU477  ASN478  MET479  VAL484  VAL487 

> <Gold.Protein.RotatedAtoms>
   37.0294   32.9397   41.7107 H   0  0  0  0  0  0  0  0  0  0  0  0  # atno 496  bound_to 491 

> <Gold.Score>
     Score     S(PLP)   S(hbond)     S(cho)   S(metal)  DE(clash)   DE(tors)     intcor
     52.11     -53.27       0.00       0.00       0.00       0.00       0.79       0.42

> <Gold.PLP.Fitness>
52.1110

> <Gold.PLP.PLP>
-53.2730

> <Gold.PLP.part.hbond>
0.0000

> <Gold.PLP.part.metal>
0.0000

> <Gold.PLP.part.buried>
-1.3079

> <Gold.PLP.part.nonpolar>
-52.2277

> <Gold.PLP.part.repulsive>
0.0826

> <Gold.PLP.ligand.clash>
0.0000

> <Gold.PLP.ligand.torsion>
0.7900

> <Gold.PLP.Chemscore.Hbond>
0.0000

> <Gold.PLP.Chemscore.CHOScore>
0.0000

> <Gold.PLP.Chemscore.Metal>
0.0000

> <Gold.PLP.Chemscore.Internal.Correction>
0.4182

