#       Name:                EN300-85007_i002
#       Creating user name   aseyller
#       Creation time:       Fri Apr 21 12:24:39 2023


#       File generated by GOLD software.
#

@<TRIPOS>MOLECULE
EN300-85007_i002|amine_3|mol2|25|dock18
    42    43     1
SMALL
USER_CHARGES


@<TRIPOS>ATOM
      1 C1          32.7582  38.1321  36.5584 C.3            1 <1>                0.0000
      2 C2          32.3762  36.6547  36.4473 C.3            1 <1>                0.0000
      3 C3          31.6718  36.4091  35.1116 C.3            1 <1>                0.0000
      4 C4          33.6390  35.7943  36.5238 C.3            1 <1>                0.0000
      5 O5          31.4837  36.3023  37.5372 O.3            1 <1>                0.0000
      6 C6          30.2645  36.8738  37.5380 C.2            1 <1>                0.0000
      7 O7          30.0379  37.8228  36.8137 O.2            1 <1>                0.0000
      8 N8          29.2955  36.3932  38.3420 N.am           1 <1>                0.0000
      9 C9          29.4483  35.2580  39.2558 C.3            1 <1>                0.0000
     10 C10         28.0802  35.1045  39.9403 C.3            1 <1>                0.0000
     11 C11         28.2150  35.2991  41.4519 C.3            1 <1>                0.0000
     12 C12         28.3956  36.7867  41.7606 C.3            1 <1>                0.0000
     13 N13         29.7032  36.9998  42.3953 N.4            1 <1>                1.0000
     14 C14         27.2295  36.2017  39.3411 C.ar           1 <1>                0.0000
     15 C15         25.9130  36.5545  39.5698 C.ar           1 <1>                0.0000
     16 C16         25.3497  37.6152  38.8856 C.ar           1 <1>                0.0000
     17 C17         26.1071  38.3237  37.9708 C.ar           1 <1>                0.0000
     18 C18         27.4205  37.9751  37.7393 C.ar           1 <1>                0.0000
     19 C19         27.9983  36.9086  38.4308 C.ar           1 <1>                0.0000
     20 H20         31.8585  38.7450  36.5040 H              1 <1>                0.0000
     21 H21         33.2600  38.3071  37.5101 H              1 <1>                0.0000
     22 H22         33.4281  38.3967  35.7404 H              1 <1>                0.0000
     23 H23         32.3418  36.6736  34.2934 H              1 <1>                0.0000
     24 H24         31.3996  35.3566  35.0324 H              1 <1>                0.0000
     25 H25         30.7722  37.0220  35.0571 H              1 <1>                0.0000
     26 H26         34.1408  35.9693  37.4754 H              1 <1>                0.0000
     27 H27         33.3669  34.7418  36.4447 H              1 <1>                0.0000
     28 H28         34.3090  36.0588  35.7057 H              1 <1>                0.0000
     29 H29         29.6956  34.3545  38.6984 H              1 <1>                0.0000
     30 H30         30.2198  35.4697  39.9960 H              1 <1>                0.0000
     31 H31         27.6527  34.1264  39.7203 H              1 <1>                0.0000
     32 H32         27.3161  34.9317  41.9471 H              1 <1>                0.0000
     33 H33         29.0813  34.7451  41.8137 H              1 <1>                0.0000
     34 H34         28.3439  37.3588  40.8343 H              1 <1>                0.0000
     35 H35         27.6060  37.1162  42.4358 H              1 <1>                0.0000
     36 H36         25.3230  35.9998  40.2842 H              1 <1>                0.0000
     37 H37         24.3207  37.8898  39.0648 H              1 <1>                0.0000
     38 H38         25.6681  39.1527  37.4357 H              1 <1>                0.0000
     39 H39         28.0063  38.5320  37.0230 H              1 <1>                0.0000
     40 H40         30.2646  36.1673  42.2966 H              1 <1>                0.0000
     41 H41         30.1706  37.7754  41.9503 H              1 <1>                0.0000
     42 H42         29.5724  37.2031  43.3749 H              1 <1>                0.0000
@<TRIPOS>BOND
    1    1    2 1     
    2    1   20 1     
    3    1   21 1     
    4    1   22 1     
    5    2    3 1     
    6    2    4 1     
    7    2    5 1     
    8    3   23 1     
    9    3   24 1     
   10    3   25 1     
   11    4   26 1     
   12    4   27 1     
   13    4   28 1     
   14    5    6 1     
   15    6    7 2     
   16    6    8 am    
   17    8    9 1     
   18    8   19 1     
   19    9   10 1     
   20    9   29 1     
   21    9   30 1     
   22   10   11 1     
   23   10   14 1     
   24   10   31 1     
   25   11   12 1     
   26   11   32 1     
   27   11   33 1     
   28   12   13 1     
   29   12   34 1     
   30   12   35 1     
   31   13   40 1     
   32   13   41 1     
   33   13   42 1     
   34   14   15 ar    
   35   14   19 ar    
   36   15   16 ar    
   37   15   36 1     
   38   16   17 ar    
   39   16   37 1     
   40   17   18 ar    
   41   17   38 1     
   42   18   19 ar    
   43   18   39 1     
@<TRIPOS>SUBSTRUCTURE
      1 ****           1
@<TRIPOS>SET
DONOR_HYDROGENS      STATIC     ATOMS    <user>   **** ""
3 40 41 42
ATOM$RED        STATIC     ATOMS    COLORGROUP SYSTEM
3 40 41 42
@<TRIPOS>COMMENT
> <Gold.Version>
2022.2.0

> <Gold.Id.Protein>
1qkm|1qkm_protein|mol2

> <Gold.Protein.RotatedTorsions>
[  496  491  490  487 ] final   40.98 input  -89.99 | X-H torsion

> <Gold.Protein.ActiveResidues>
 MET295  LEU298  THR299  LEU301  ALA302  GLU305  TRP335  MET336  LEU339  MET340 
 GLY342  LEU343  ARG346  PHE356  ILE373  ILE376  PHE377  LEU380  LYS471  GLY472 
 MET473  HIS475  LEU476  LEU477  ASN478  MET479  VAL484  VAL487 

> <Gold.Protein.RotatedAtoms>
   36.4100   33.5866   42.3782 H   0  0  0  0  0  0  0  0  0  0  0  0  # atno 496  bound_to 491 

> <Gold.Score>
     Score     S(PLP)   S(hbond)     S(cho)   S(metal)  DE(clash)   DE(tors)     intcor
     53.92     -51.99       1.00       0.00       0.00       0.05       0.72       0.42

> <Gold.PLP.Fitness>
53.9171

> <Gold.PLP.PLP>
-51.9865

> <Gold.PLP.part.hbond>
-1.0000

> <Gold.PLP.part.metal>
0.0000

> <Gold.PLP.part.buried>
-1.1738

> <Gold.PLP.part.nonpolar>
-50.7955

> <Gold.PLP.part.repulsive>
0.1094

> <Gold.PLP.ligand.clash>
0.0531

> <Gold.PLP.ligand.torsion>
0.7172

> <Gold.PLP.Chemscore.Hbond>
1.0000

> <Gold.PLP.Chemscore.CHOScore>
0.0000

> <Gold.PLP.Chemscore.Metal>
0.0000

> <Gold.Chemscore.Hbonds>
donor molecule, donor type, donor heavy atom, donor atom, acceptor molecule, acceptor atom, score
      L1  H    13    40       P1   470  1.00

> <Gold.PLP.Chemscore.Internal.Correction>
0.4182

