#       Name:                EN300-85007_i002
#       Creating user name   aseyller
#       Creation time:       Fri Apr 21 12:24:30 2023


#       File generated by GOLD software.
#

@<TRIPOS>MOLECULE
EN300-85007_i002|amine_3|mol2|25|dock11
    42    43     1
SMALL
USER_CHARGES


@<TRIPOS>ATOM
      1 C1          33.7338  35.7526  38.4325 C.3            1 <1>                0.0000
      2 C2          32.8427  36.1470  37.2530 C.3            1 <1>                0.0000
      3 C3          33.6289  37.0482  36.2987 C.3            1 <1>                0.0000
      4 C4          32.3925  34.8875  36.5103 C.3            1 <1>                0.0000
      5 O5          31.6779  36.8616  37.7442 O.3            1 <1>                0.0000
      6 C6          30.7090  36.1270  38.3227 C.2            1 <1>                0.0000
      7 O7          30.9871  35.0796  38.8724 O.2            1 <1>                0.0000
      8 N8          29.4309  36.5534  38.2921 N.am           1 <1>                0.0000
      9 C9          28.2940  35.8435  38.8843 C.3            1 <1>                0.0000
     10 C10         27.0695  36.7244  38.5869 C.3            1 <1>                0.0000
     11 C11         26.4184  37.1908  39.8905 C.3            1 <1>                0.0000
     12 C12         26.4028  36.0364  40.8944 C.3            1 <1>                0.0000
     13 N13         25.9437  36.5290  42.2000 N.4            1 <1>                1.0000
     14 C14         27.6262  37.9050  37.8235 C.ar           1 <1>                0.0000
     15 C15         27.0010  39.0182  37.2946 C.ar           1 <1>                0.0000
     16 C16         27.7392  39.9772  36.6269 C.ar           1 <1>                0.0000
     17 C17         29.1063  39.8205  36.4890 C.ar           1 <1>                0.0000
     18 C18         29.7340  38.7115  37.0146 C.ar           1 <1>                0.0000
     19 C19         28.9960  37.7413  37.6956 C.ar           1 <1>                0.0000
     20 H20         34.0545  36.6500  38.9616 H              1 <1>                0.0000
     21 H21         33.1737  35.1106  39.1123 H              1 <1>                0.0000
     22 H22         34.6081  35.2163  38.0639 H              1 <1>                0.0000
     23 H23         34.5033  36.5118  35.9301 H              1 <1>                0.0000
     24 H24         32.9940  37.3293  35.4585 H              1 <1>                0.0000
     25 H25         33.9496  37.9456  36.8279 H              1 <1>                0.0000
     26 H26         31.8324  34.2455  37.1901 H              1 <1>                0.0000
     27 H27         31.7575  35.1685  35.6701 H              1 <1>                0.0000
     28 H28         33.2668  34.3510  36.1416 H              1 <1>                0.0000
     29 H29         28.1767  34.8640  38.4206 H              1 <1>                0.0000
     30 H30         28.4324  35.7392  39.9604 H              1 <1>                0.0000
     31 H31         26.3490  36.1801  37.9765 H              1 <1>                0.0000
     32 H32         26.9878  38.0237  40.3033 H              1 <1>                0.0000
     33 H33         25.3963  37.5129  39.6911 H              1 <1>                0.0000
     34 H34         25.7268  35.2574  40.5418 H              1 <1>                0.0000
     35 H35         27.4083  35.6274  40.9935 H              1 <1>                0.0000
     36 H36         25.9333  39.1387  37.4029 H              1 <1>                0.0000
     37 H37         27.2495  40.8466  36.2136 H              1 <1>                0.0000
     38 H38         29.6840  40.5692  35.9675 H              1 <1>                0.0000
     39 H39         30.8018  38.5946  36.9029 H              1 <1>                0.0000
     40 H40         26.4399  37.3759  42.4334 H              1 <1>                0.0000
     41 H41         24.9537  36.7199  42.1581 H              1 <1>                0.0000
     42 H42         26.1217  35.8295  42.9050 H              1 <1>                0.0000
@<TRIPOS>BOND
    1    1    2 1     
    2    1   20 1     
    3    1   21 1     
    4    1   22 1     
    5    2    3 1     
    6    2    4 1     
    7    2    5 1     
    8    3   23 1     
    9    3   24 1     
   10    3   25 1     
   11    4   26 1     
   12    4   27 1     
   13    4   28 1     
   14    5    6 1     
   15    6    7 2     
   16    6    8 am    
   17    8    9 1     
   18    8   19 1     
   19    9   10 1     
   20    9   29 1     
   21    9   30 1     
   22   10   11 1     
   23   10   14 1     
   24   10   31 1     
   25   11   12 1     
   26   11   32 1     
   27   11   33 1     
   28   12   13 1     
   29   12   34 1     
   30   12   35 1     
   31   13   40 1     
   32   13   41 1     
   33   13   42 1     
   34   14   15 ar    
   35   14   19 ar    
   36   15   16 ar    
   37   15   36 1     
   38   16   17 ar    
   39   16   37 1     
   40   17   18 ar    
   41   17   38 1     
   42   18   19 ar    
   43   18   39 1     
@<TRIPOS>SUBSTRUCTURE
      1 ****           1
@<TRIPOS>SET
DONOR_HYDROGENS      STATIC     ATOMS    <user>   **** ""
3 40 41 42
ATOM$RED        STATIC     ATOMS    COLORGROUP SYSTEM
3 40 41 42
@<TRIPOS>COMMENT
> <Gold.Version>
2022.2.0

> <Gold.Id.Protein>
1qkm|1qkm_protein|mol2

> <Gold.Protein.RotatedTorsions>
[  496  491  490  487 ] final  105.61 input  -89.99 | X-H torsion

> <Gold.Protein.ActiveResidues>
 MET295  LEU298  THR299  LEU301  ALA302  GLU305  TRP335  MET336  LEU339  MET340 
 GLY342  LEU343  ARG346  PHE356  ILE373  ILE376  PHE377  LEU380  LYS471  GLY472 
 MET473  HIS475  LEU476  LEU477  ASN478  MET479  VAL484  VAL487 

> <Gold.Protein.RotatedAtoms>
   36.9614   32.9509   41.8227 H   0  0  0  0  0  0  0  0  0  0  0  0  # atno 496  bound_to 491 

> <Gold.Score>
     Score     S(PLP)   S(hbond)     S(cho)   S(metal)  DE(clash)   DE(tors)     intcor
     55.77     -50.91       2.00       0.00       0.00       0.00       0.78       0.42

> <Gold.PLP.Fitness>
55.7658

> <Gold.PLP.PLP>
-50.9127

> <Gold.PLP.part.hbond>
-0.9986

> <Gold.PLP.part.metal>
0.0000

> <Gold.PLP.part.buried>
-4.4346

> <Gold.PLP.part.nonpolar>
-45.2395

> <Gold.PLP.part.repulsive>
0.2028

> <Gold.PLP.ligand.clash>
0.0000

> <Gold.PLP.ligand.torsion>
0.7825

> <Gold.PLP.Chemscore.Hbond>
2.0000

> <Gold.PLP.Chemscore.CHOScore>
0.0000

> <Gold.PLP.Chemscore.Metal>
0.0000

> <Gold.Chemscore.Hbonds>
donor molecule, donor type, donor heavy atom, donor atom, acceptor molecule, acceptor atom, score
      L1  H    13    42       P1   582  2.00

> <Gold.PLP.Chemscore.Internal.Correction>
0.4182

