#       Name:                EN300-85007_i002
#       Creating user name   aseyller
#       Creation time:       Fri Apr 21 12:24:23 2023


#       File generated by GOLD software.
#

@<TRIPOS>MOLECULE
EN300-85007_i002|amine_3|mol2|25|dock5
    42    43     1
SMALL
USER_CHARGES


@<TRIPOS>ATOM
      1 C1          32.1578  38.1474  34.1927 C.3            1 <1>                0.0000
      2 C2          32.4530  37.2274  35.3791 C.3            1 <1>                0.0000
      3 C3          32.2236  35.7723  34.9657 C.3            1 <1>                0.0000
      4 C4          33.9076  37.4101  35.8166 C.3            1 <1>                0.0000
      5 O5          31.5701  37.5620  36.4823 O.3            1 <1>                0.0000
      6 C6          31.5399  36.7070  37.5221 C.2            1 <1>                0.0000
      7 O7          32.5277  36.0579  37.8038 O.2            1 <1>                0.0000
      8 N8          30.4140  36.5713  38.2505 N.am           1 <1>                0.0000
      9 C9          30.2602  35.6763  39.4004 C.3            1 <1>                0.0000
     10 C10         28.8143  35.8823  39.8809 C.3            1 <1>                0.0000
     11 C11         28.7993  36.4101  41.3169 C.3            1 <1>                0.0000
     12 C12         27.3565  36.6888  41.7428 C.3            1 <1>                0.0000
     13 N13         26.5263  35.5103  41.4602 N.4            1 <1>                1.0000
     14 C14         28.2416  36.9129  38.9341 C.ar           1 <1>                0.0000
     15 C15         26.9873  37.4898  38.8739 C.ar           1 <1>                0.0000
     16 C16         26.6997  38.4252  37.8977 C.ar           1 <1>                0.0000
     17 C17         27.6708  38.7831  36.9804 C.ar           1 <1>                0.0000
     18 C18         28.9231  38.2099  37.0365 C.ar           1 <1>                0.0000
     19 C19         29.2231  37.2686  38.0233 C.ar           1 <1>                0.0000
     20 H20         31.1214  38.0171  33.8811 H              1 <1>                0.0000
     21 H21         32.3212  39.1840  34.4873 H              1 <1>                0.0000
     22 H22         32.8205  37.8962  33.3646 H              1 <1>                0.0000
     23 H23         32.8863  35.5211  34.1375 H              1 <1>                0.0000
     24 H24         32.4338  35.1170  35.8109 H              1 <1>                0.0000
     25 H25         31.1873  35.6422  34.6540 H              1 <1>                0.0000
     26 H26         34.0710  38.4467  36.1112 H              1 <1>                0.0000
     27 H27         34.1179  36.7548  36.6619 H              1 <1>                0.0000
     28 H28         34.5704  37.1590  34.9885 H              1 <1>                0.0000
     29 H29         30.4137  34.6407  39.0967 H              1 <1>                0.0000
     30 H30         30.9627  35.9483  40.1880 H              1 <1>                0.0000
     31 H31         28.2549  34.9492  39.8138 H              1 <1>                0.0000
     32 H32         29.2373  35.6659  41.9822 H              1 <1>                0.0000
     33 H33         29.3788  37.3318  41.3712 H              1 <1>                0.0000
     34 H34         27.3283  36.9055  42.8107 H              1 <1>                0.0000
     35 H35         26.9728  37.5450  41.1880 H              1 <1>                0.0000
     36 H36         26.2302  37.2089  39.5908 H              1 <1>                0.0000
     37 H37         25.7190  38.8752  37.8514 H              1 <1>                0.0000
     38 H38         27.4471  39.5138  36.2173 H              1 <1>                0.0000
     39 H39         29.6768  38.4931  36.3168 H              1 <1>                0.0000
     40 H40         26.2216  35.0974  42.3289 H              1 <1>                0.0000
     41 H41         25.7211  35.7881  40.9192 H              1 <1>                0.0000
     42 H42         27.0658  34.8362  40.9382 H              1 <1>                0.0000
@<TRIPOS>BOND
    1    1    2 1     
    2    1   20 1     
    3    1   21 1     
    4    1   22 1     
    5    2    3 1     
    6    2    4 1     
    7    2    5 1     
    8    3   23 1     
    9    3   24 1     
   10    3   25 1     
   11    4   26 1     
   12    4   27 1     
   13    4   28 1     
   14    5    6 1     
   15    6    7 2     
   16    6    8 am    
   17    8    9 1     
   18    8   19 1     
   19    9   10 1     
   20    9   29 1     
   21    9   30 1     
   22   10   11 1     
   23   10   14 1     
   24   10   31 1     
   25   11   12 1     
   26   11   32 1     
   27   11   33 1     
   28   12   13 1     
   29   12   34 1     
   30   12   35 1     
   31   13   40 1     
   32   13   41 1     
   33   13   42 1     
   34   14   15 ar    
   35   14   19 ar    
   36   15   16 ar    
   37   15   36 1     
   38   16   17 ar    
   39   16   37 1     
   40   17   18 ar    
   41   17   38 1     
   42   18   19 ar    
   43   18   39 1     
@<TRIPOS>SUBSTRUCTURE
      1 ****           1
@<TRIPOS>SET
DONOR_HYDROGENS      STATIC     ATOMS    <user>   **** ""
3 40 41 42
ATOM$RED        STATIC     ATOMS    COLORGROUP SYSTEM
3 40 41 42
@<TRIPOS>COMMENT
> <Gold.Version>
2022.2.0

> <Gold.Id.Protein>
1qkm|1qkm_protein|mol2

> <Gold.Protein.RotatedTorsions>
[  496  491  490  487 ] final   57.32 input  -89.99 | X-H torsion

> <Gold.Protein.ActiveResidues>
 MET295  LEU298  THR299  LEU301  ALA302  GLU305  TRP335  MET336  LEU339  MET340 
 GLY342  LEU343  ARG346  PHE356  ILE373  ILE376  PHE377  LEU380  LYS471  GLY472 
 MET473  HIS475  LEU476  LEU477  ASN478  MET479  VAL484  VAL487 

> <Gold.Protein.RotatedAtoms>
   36.5296   33.3541   42.3189 H   0  0  0  0  0  0  0  0  0  0  0  0  # atno 496  bound_to 491 

> <Gold.Score>
     Score     S(PLP)   S(hbond)     S(cho)   S(metal)  DE(clash)   DE(tors)     intcor
     61.26     -55.78       2.00       0.00       0.00       0.00       0.49       0.46

> <Gold.PLP.Fitness>
61.2644

> <Gold.PLP.PLP>
-55.7824

> <Gold.PLP.part.hbond>
-1.0000

> <Gold.PLP.part.metal>
0.0000

> <Gold.PLP.part.buried>
-2.0478

> <Gold.PLP.part.nonpolar>
-52.4843

> <Gold.PLP.part.repulsive>
0.0642

> <Gold.PLP.ligand.clash>
0.0000

> <Gold.PLP.ligand.torsion>
0.4880

> <Gold.PLP.Chemscore.Hbond>
2.0000

> <Gold.PLP.Chemscore.CHOScore>
0.0000

> <Gold.PLP.Chemscore.Metal>
0.0000

> <Gold.Chemscore.Hbonds>
donor molecule, donor type, donor heavy atom, donor atom, acceptor molecule, acceptor atom, score
      L1  H    13    40       P1   582  2.00

> <Gold.PLP.Chemscore.Internal.Correction>
0.4579

