#       Name:                EN300-85007_i002
#       Creating user name   aseyller
#       Creation time:       Fri Apr 21 12:24:36 2023


#       File generated by GOLD software.
#

@<TRIPOS>MOLECULE
EN300-85007_i002|amine_3|mol2|25|dock16
    42    43     1
SMALL
USER_CHARGES


@<TRIPOS>ATOM
      1 C1          32.7110  35.3158  34.9675 C.3            1 <1>                0.0000
      2 C2          33.2153  36.5684  35.6869 C.3            1 <1>                0.0000
      3 C3          34.5213  36.2467  36.4162 C.3            1 <1>                0.0000
      4 C4          33.4625  37.6792  34.6643 C.3            1 <1>                0.0000
      5 O5          32.2199  37.0082  36.6483 O.3            1 <1>                0.0000
      6 C6          31.7364  36.0802  37.4956 C.2            1 <1>                0.0000
      7 O7          32.4348  35.1459  37.8363 O.2            1 <1>                0.0000
      8 N8          30.4780  36.1875  37.9660 N.am           1 <1>                0.0000
      9 C9          29.8430  35.2437  38.8897 C.3            1 <1>                0.0000
     10 C10         28.4276  35.7972  39.1218 C.3            1 <1>                0.0000
     11 C11         28.2212  36.1318  40.6004 C.3            1 <1>                0.0000
     12 C12         26.7901  36.6281  40.8161 C.3            1 <1>                0.0000
     13 N13         26.5062  36.6932  42.2559 N.4            1 <1>                1.0000
     14 C14         28.3682  37.0543  38.2833 C.ar           1 <1>                0.0000
     15 C15         27.3505  37.9699  38.0943 C.ar           1 <1>                0.0000
     16 C16         27.5413  39.0580  37.2635 C.ar           1 <1>                0.0000
     17 C17         28.7541  39.2288  36.6213 C.ar           1 <1>                0.0000
     18 C18         29.7717  38.3178  36.8066 C.ar           1 <1>                0.0000
     19 C19         29.5887  37.2193  37.6488 C.ar           1 <1>                0.0000
     20 H20         32.5349  34.5245  35.6961 H              1 <1>                0.0000
     21 H21         31.7806  35.5450  34.4480 H              1 <1>                0.0000
     22 H22         33.4581  34.9856  34.2459 H              1 <1>                0.0000
     23 H23         35.2686  35.9165  35.6946 H              1 <1>                0.0000
     24 H24         34.8806  37.1391  36.9287 H              1 <1>                0.0000
     25 H25         34.3452  35.4554  37.1447 H              1 <1>                0.0000
     26 H26         32.5321  37.9084  34.1448 H              1 <1>                0.0000
     27 H27         33.8217  38.5716  35.1768 H              1 <1>                0.0000
     28 H28         34.2097  37.3491  33.9426 H              1 <1>                0.0000
     29 H29         29.7921  34.2516  38.4409 H              1 <1>                0.0000
     30 H30         30.3933  35.2065  39.8298 H              1 <1>                0.0000
     31 H31         27.6790  35.0791  38.7872 H              1 <1>                0.0000
     32 H32         28.3906  35.2387  41.2021 H              1 <1>                0.0000
     33 H33         28.9244  36.9095  40.8985 H              1 <1>                0.0000
     34 H34         26.6800  37.6205  40.3788 H              1 <1>                0.0000
     35 H35         26.0914  35.9411  40.3387 H              1 <1>                0.0000
     36 H36         26.4040  37.8347  38.5964 H              1 <1>                0.0000
     37 H37         26.7452  39.7728  37.1162 H              1 <1>                0.0000
     38 H38         28.9042  40.0787  35.9719 H              1 <1>                0.0000
     39 H39         30.7162  38.4565  36.3015 H              1 <1>                0.0000
     40 H40         25.6709  37.2376  42.4098 H              1 <1>                0.0000
     41 H41         26.3701  35.7598  42.6143 H              1 <1>                0.0000
     42 H42         27.2828  37.1265  42.7326 H              1 <1>                0.0000
@<TRIPOS>BOND
    1    1    2 1     
    2    1   20 1     
    3    1   21 1     
    4    1   22 1     
    5    2    3 1     
    6    2    4 1     
    7    2    5 1     
    8    3   23 1     
    9    3   24 1     
   10    3   25 1     
   11    4   26 1     
   12    4   27 1     
   13    4   28 1     
   14    5    6 1     
   15    6    7 2     
   16    6    8 am    
   17    8    9 1     
   18    8   19 1     
   19    9   10 1     
   20    9   29 1     
   21    9   30 1     
   22   10   11 1     
   23   10   14 1     
   24   10   31 1     
   25   11   12 1     
   26   11   32 1     
   27   11   33 1     
   28   12   13 1     
   29   12   34 1     
   30   12   35 1     
   31   13   40 1     
   32   13   41 1     
   33   13   42 1     
   34   14   15 ar    
   35   14   19 ar    
   36   15   16 ar    
   37   15   36 1     
   38   16   17 ar    
   39   16   37 1     
   40   17   18 ar    
   41   17   38 1     
   42   18   19 ar    
   43   18   39 1     
@<TRIPOS>SUBSTRUCTURE
      1 ****           1
@<TRIPOS>SET
DONOR_HYDROGENS      STATIC     ATOMS    <user>   **** ""
3 40 41 42
ATOM$RED        STATIC     ATOMS    COLORGROUP SYSTEM
3 40 41 42
@<TRIPOS>COMMENT
> <Gold.Version>
2022.2.0

> <Gold.Id.Protein>
1qkm|1qkm_protein|mol2

> <Gold.Protein.RotatedTorsions>
[  496  491  490  487 ] final   68.03 input  -89.99 | X-H torsion

> <Gold.Protein.ActiveResidues>
 MET295  LEU298  THR299  LEU301  ALA302  GLU305  TRP335  MET336  LEU339  MET340 
 GLY342  LEU343  ARG346  PHE356  ILE373  ILE376  PHE377  LEU380  LYS471  GLY472 
 MET473  HIS475  LEU476  LEU477  ASN478  MET479  VAL484  VAL487 

> <Gold.Protein.RotatedAtoms>
   36.6200   33.2219   42.2459 H   0  0  0  0  0  0  0  0  0  0  0  0  # atno 496  bound_to 491 

> <Gold.Score>
     Score     S(PLP)   S(hbond)     S(cho)   S(metal)  DE(clash)   DE(tors)     intcor
     53.65     -48.22       2.00       0.00       0.00       0.00       0.49       0.42

> <Gold.PLP.Fitness>
53.6534

> <Gold.PLP.PLP>
-48.2215

> <Gold.PLP.part.hbond>
-1.0000

> <Gold.PLP.part.metal>
0.0000

> <Gold.PLP.part.buried>
-0.7787

> <Gold.PLP.part.nonpolar>
-48.1185

> <Gold.PLP.part.repulsive>
0.1129

> <Gold.PLP.ligand.clash>
0.0000

> <Gold.PLP.ligand.torsion>
0.4931

> <Gold.PLP.Chemscore.Hbond>
2.0000

> <Gold.PLP.Chemscore.CHOScore>
0.0000

> <Gold.PLP.Chemscore.Metal>
0.0000

> <Gold.Chemscore.Hbonds>
donor molecule, donor type, donor heavy atom, donor atom, acceptor molecule, acceptor atom, score
      L1  H    13    41       P1   582  2.00

> <Gold.PLP.Chemscore.Internal.Correction>
0.4182

