#       Name:                EN300-85007_i002
#       Creating user name   aseyller
#       Creation time:       Fri Apr 21 12:24:27 2023


#       File generated by GOLD software.
#

@<TRIPOS>MOLECULE
EN300-85007_i002|amine_3|mol2|25|dock9
    42    43     1
SMALL
USER_CHARGES


@<TRIPOS>ATOM
      1 C1          26.8214  35.4029  38.2786 C.3            1 <1>                0.0000
      2 C2          27.0797  36.4331  39.3800 C.3            1 <1>                0.0000
      3 C3          26.1257  37.6165  39.2055 C.3            1 <1>                0.0000
      4 C4          26.8465  35.7873  40.7472 C.3            1 <1>                0.0000
      5 O5          28.4517  36.9006  39.2932 O.3            1 <1>                0.0000
      6 C6          28.8827  37.3102  38.0851 C.2            1 <1>                0.0000
      7 O7          28.0996  37.7963  37.2934 O.2            1 <1>                0.0000
      8 N8          30.1828  37.1811  37.7541 N.am           1 <1>                0.0000
      9 C9          31.2181  36.6126  38.6213 C.3            1 <1>                0.0000
     10 C10         32.5161  36.6852  37.8005 C.3            1 <1>                0.0000
     11 C11         33.0803  35.2820  37.5691 C.3            1 <1>                0.0000
     12 C12         31.9313  34.3083  37.3000 C.3            1 <1>                0.0000
     13 N13         31.6028  33.5852  38.5358 N.4            1 <1>                1.0000
     14 C14         32.1017  37.3103  36.4874 C.ar           1 <1>                0.0000
     15 C15         32.8382  37.6235  35.3608 C.ar           1 <1>                0.0000
     16 C16         32.2213  38.2000  34.2664 C.ar           1 <1>                0.0000
     17 C17         30.8641  38.4630  34.3012 C.ar           1 <1>                0.0000
     18 C18         30.1257  38.1527  35.4230 C.ar           1 <1>                0.0000
     19 C19         30.7405  37.5647  36.5302 C.ar           1 <1>                0.0000
     20 H20         26.9876  35.8631  37.3046 H              1 <1>                0.0000
     21 H21         27.5010  34.5599  38.4030 H              1 <1>                0.0000
     22 H22         25.7915  35.0521  38.3437 H              1 <1>                0.0000
     23 H23         25.0958  37.2656  39.2706 H              1 <1>                0.0000
     24 H24         26.3098  38.3504  39.9901 H              1 <1>                0.0000
     25 H25         26.2919  38.0765  38.2314 H              1 <1>                0.0000
     26 H26         27.5261  34.9443  40.8716 H              1 <1>                0.0000
     27 H27         27.0306  36.5212  41.5319 H              1 <1>                0.0000
     28 H28         25.8166  35.4363  40.8124 H              1 <1>                0.0000
     29 H29         31.3137  37.2027  39.5329 H              1 <1>                0.0000
     30 H30         30.9814  35.5767  38.8637 H              1 <1>                0.0000
     31 H31         33.2512  37.3111  38.3064 H              1 <1>                0.0000
     32 H32         33.7520  35.2975  36.7107 H              1 <1>                0.0000
     33 H33         33.6293  34.9606  38.4542 H              1 <1>                0.0000
     34 H34         31.0568  34.8633  36.9604 H              1 <1>                0.0000
     35 H35         32.2309  33.5962  36.5311 H              1 <1>                0.0000
     36 H36         33.8980  37.4177  35.3356 H              1 <1>                0.0000
     37 H37         32.7979  38.4447  33.3866 H              1 <1>                0.0000
     38 H38         30.3811  38.9135  33.4466 H              1 <1>                0.0000
     39 H39         29.0663  38.3613  35.4440 H              1 <1>                0.0000
     40 H40         32.3212  32.9032  38.7276 H              1 <1>                0.0000
     41 H41         31.5459  34.2385  39.3027 H              1 <1>                0.0000
     42 H42         30.7156  33.1174  38.4261 H              1 <1>                0.0000
@<TRIPOS>BOND
    1    1    2 1     
    2    1   20 1     
    3    1   21 1     
    4    1   22 1     
    5    2    3 1     
    6    2    4 1     
    7    2    5 1     
    8    3   23 1     
    9    3   24 1     
   10    3   25 1     
   11    4   26 1     
   12    4   27 1     
   13    4   28 1     
   14    5    6 1     
   15    6    7 2     
   16    6    8 am    
   17    8    9 1     
   18    8   19 1     
   19    9   10 1     
   20    9   29 1     
   21    9   30 1     
   22   10   11 1     
   23   10   14 1     
   24   10   31 1     
   25   11   12 1     
   26   11   32 1     
   27   11   33 1     
   28   12   13 1     
   29   12   34 1     
   30   12   35 1     
   31   13   40 1     
   32   13   41 1     
   33   13   42 1     
   34   14   15 ar    
   35   14   19 ar    
   36   15   16 ar    
   37   15   36 1     
   38   16   17 ar    
   39   16   37 1     
   40   17   18 ar    
   41   17   38 1     
   42   18   19 ar    
   43   18   39 1     
@<TRIPOS>SUBSTRUCTURE
      1 ****           1
@<TRIPOS>SET
DONOR_HYDROGENS      STATIC     ATOMS    <user>   **** ""
3 40 41 42
ATOM$RED        STATIC     ATOMS    COLORGROUP SYSTEM
3 40 41 42
@<TRIPOS>COMMENT
> <Gold.Version>
2022.2.0

> <Gold.Id.Protein>
1qkm|1qkm_protein|mol2

> <Gold.Protein.RotatedTorsions>
[  496  491  490  487 ] final   -1.52 input  -89.99 | X-H torsion

> <Gold.Protein.ActiveResidues>
 MET295  LEU298  THR299  LEU301  ALA302  GLU305  TRP335  MET336  LEU339  MET340 
 GLY342  LEU343  ARG346  PHE356  ILE373  ILE376  PHE377  LEU380  LYS471  GLY472 
 MET473  HIS475  LEU476  LEU477  ASN478  MET479  VAL484  VAL487 

> <Gold.Protein.RotatedAtoms>
   36.2591   34.2351   42.2233 H   0  0  0  0  0  0  0  0  0  0  0  0  # atno 496  bound_to 491 

> <Gold.Score>
     Score     S(PLP)   S(hbond)     S(cho)   S(metal)  DE(clash)   DE(tors)     intcor
     55.77     -57.11       0.00       0.00       0.00       0.00       0.88       0.42

> <Gold.PLP.Fitness>
55.7683

> <Gold.PLP.PLP>
-57.1127

> <Gold.PLP.part.hbond>
0.0000

> <Gold.PLP.part.metal>
0.0000

> <Gold.PLP.part.buried>
-5.7658

> <Gold.PLP.part.nonpolar>
-52.1102

> <Gold.PLP.part.repulsive>
0.0470

> <Gold.PLP.ligand.clash>
0.0000

> <Gold.PLP.ligand.torsion>
0.8813

> <Gold.PLP.Chemscore.Hbond>
0.0000

> <Gold.PLP.Chemscore.CHOScore>
0.0000

> <Gold.PLP.Chemscore.Metal>
0.0000

> <Gold.PLP.Chemscore.Internal.Correction>
0.4182

