#       Name:                EN300-85007_i002
#       Creating user name   aseyller
#       Creation time:       Fri Apr 21 12:24:29 2023


#       File generated by GOLD software.
#

@<TRIPOS>MOLECULE
EN300-85007_i002|amine_3|mol2|25|dock10
    42    43     1
SMALL
USER_CHARGES


@<TRIPOS>ATOM
      1 C1          28.6142  36.8550  41.7099 C.3            1 <1>                0.0000
      2 C2          27.7980  36.3941  40.5007 C.3            1 <1>                0.0000
      3 C3          27.8723  34.8702  40.3860 C.3            1 <1>                0.0000
      4 C4          26.3396  36.8217  40.6768 C.3            1 <1>                0.0000
      5 O5          28.3369  36.9970  39.2947 O.3            1 <1>                0.0000
      6 C6          29.5700  36.6104  38.9164 C.2            1 <1>                0.0000
      7 O7          30.2825  36.0066  39.6936 O.2            1 <1>                0.0000
      8 N8          30.0138  36.8931  37.6755 N.am           1 <1>                0.0000
      9 C9          29.2492  37.6126  36.6535 C.3            1 <1>                0.0000
     10 C10         30.1771  37.6809  35.4295 C.3            1 <1>                0.0000
     11 C11         30.4816  39.1369  35.0712 C.3            1 <1>                0.0000
     12 C12         30.6702  39.9491  36.3540 C.3            1 <1>                0.0000
     13 N13         29.4058  40.6087  36.7062 N.4            1 <1>                1.0000
     14 C14         31.4382  36.9708  35.8677 C.ar           1 <1>                0.0000
     15 C15         32.6181  36.7207  35.1932 C.ar           1 <1>                0.0000
     16 C16         33.6448  36.0395  35.8195 C.ar           1 <1>                0.0000
     17 C17         33.4888  35.6082  37.1242 C.ar           1 <1>                0.0000
     18 C18         32.3134  35.8550  37.8007 C.ar           1 <1>                0.0000
     19 C19         31.2740  36.5478  37.1767 C.ar           1 <1>                0.0000
     20 H20         29.6532  36.5503  41.5843 H              1 <1>                0.0000
     21 H21         28.5613  37.9406  41.7915 H              1 <1>                0.0000
     22 H22         28.2098  36.4024  42.6152 H              1 <1>                0.0000
     23 H23         27.4678  34.4175  41.2914 H              1 <1>                0.0000
     24 H24         27.2909  34.5418  39.5246 H              1 <1>                0.0000
     25 H25         28.9113  34.5655  40.2605 H              1 <1>                0.0000
     26 H26         26.2866  37.9073  40.7585 H              1 <1>                0.0000
     27 H27         25.7580  36.4934  39.8153 H              1 <1>                0.0000
     28 H28         25.9350  36.3691  41.5822 H              1 <1>                0.0000
     29 H29         28.3387  37.0660  36.4076 H              1 <1>                0.0000
     30 H30         29.0062  38.6170  37.0002 H              1 <1>                0.0000
     31 H31         29.7251  37.1678  34.5807 H              1 <1>                0.0000
     32 H32         31.3934  39.1814  34.4755 H              1 <1>                0.0000
     33 H33         29.6522  39.5509  34.4975 H              1 <1>                0.0000
     34 H34         30.9711  39.2844  37.1638 H              1 <1>                0.0000
     35 H35         31.4417  40.7027  36.1967 H              1 <1>                0.0000
     36 H36         32.7381  37.0579  34.1743 H              1 <1>                0.0000
     37 H37         34.5664  35.8443  35.2913 H              1 <1>                0.0000
     38 H38         34.2903  35.0758  37.6146 H              1 <1>                0.0000
     39 H39         32.1976  35.5149  38.8192 H              1 <1>                0.0000
     40 H40         29.1784  41.2967  36.0041 H              1 <1>                0.0000
     41 H41         28.6693  39.9205  36.7536 H              1 <1>                0.0000
     42 H42         29.5010  41.0617  37.6027 H              1 <1>                0.0000
@<TRIPOS>BOND
    1    1    2 1     
    2    1   20 1     
    3    1   21 1     
    4    1   22 1     
    5    2    3 1     
    6    2    4 1     
    7    2    5 1     
    8    3   23 1     
    9    3   24 1     
   10    3   25 1     
   11    4   26 1     
   12    4   27 1     
   13    4   28 1     
   14    5    6 1     
   15    6    7 2     
   16    6    8 am    
   17    8    9 1     
   18    8   19 1     
   19    9   10 1     
   20    9   29 1     
   21    9   30 1     
   22   10   11 1     
   23   10   14 1     
   24   10   31 1     
   25   11   12 1     
   26   11   32 1     
   27   11   33 1     
   28   12   13 1     
   29   12   34 1     
   30   12   35 1     
   31   13   40 1     
   32   13   41 1     
   33   13   42 1     
   34   14   15 ar    
   35   14   19 ar    
   36   15   16 ar    
   37   15   36 1     
   38   16   17 ar    
   39   16   37 1     
   40   17   18 ar    
   41   17   38 1     
   42   18   19 ar    
   43   18   39 1     
@<TRIPOS>SUBSTRUCTURE
      1 ****           1
@<TRIPOS>SET
DONOR_HYDROGENS      STATIC     ATOMS    <user>   **** ""
3 40 41 42
ATOM$RED        STATIC     ATOMS    COLORGROUP SYSTEM
3 40 41 42
@<TRIPOS>COMMENT
> <Gold.Version>
2022.2.0

> <Gold.Id.Protein>
1qkm|1qkm_protein|mol2

> <Gold.Protein.RotatedTorsions>
[  496  491  490  487 ] final  -19.19 input  -89.99 | X-H torsion

> <Gold.Protein.ActiveResidues>
 MET295  LEU298  THR299  LEU301  ALA302  GLU305  TRP335  MET336  LEU339  MET340 
 GLY342  LEU343  ARG346  PHE356  ILE373  ILE376  PHE377  LEU380  LYS471  GLY472 
 MET473  HIS475  LEU476  LEU477  ASN478  MET479  VAL484  VAL487 

> <Gold.Protein.RotatedAtoms>
   36.2788   34.4609   42.0427 H   0  0  0  0  0  0  0  0  0  0  0  0  # atno 496  bound_to 491 

> <Gold.Score>
     Score     S(PLP)   S(hbond)     S(cho)   S(metal)  DE(clash)   DE(tors)     intcor
     54.96     -55.78       0.00       0.00       0.00       0.00       0.62       0.42

> <Gold.PLP.Fitness>
54.9573

> <Gold.PLP.PLP>
-55.7835

> <Gold.PLP.part.hbond>
0.0000

> <Gold.PLP.part.metal>
0.0000

> <Gold.PLP.part.buried>
-3.4142

> <Gold.PLP.part.nonpolar>
-53.6275

> <Gold.PLP.part.repulsive>
1.1073

> <Gold.PLP.ligand.clash>
0.0000

> <Gold.PLP.ligand.torsion>
0.6222

> <Gold.PLP.Chemscore.Hbond>
0.0000

> <Gold.PLP.Chemscore.CHOScore>
0.0000

> <Gold.PLP.Chemscore.Metal>
0.0000

> <Gold.PLP.Chemscore.Internal.Correction>
0.4182

