#       Name:                EN300-85007_i002
#       Creating user name   aseyller
#       Creation time:       Fri Apr 21 12:24:40 2023


#       File generated by GOLD software.
#

@<TRIPOS>MOLECULE
EN300-85007_i002|amine_3|mol2|25|dock19
    42    43     1
SMALL
USER_CHARGES


@<TRIPOS>ATOM
      1 C1          33.5526  35.2277  38.0590 C.3            1 <1>                0.0000
      2 C2          32.3201  35.3632  37.1626 C.3            1 <1>                0.0000
      3 C3          32.6973  36.1203  35.8876 C.3            1 <1>                0.0000
      4 C4          31.8015  33.9716  36.7948 C.3            1 <1>                0.0000
      5 O5          31.2844  36.0940  37.8709 O.3            1 <1>                0.0000
      6 C6          30.5962  35.4209  38.8124 C.2            1 <1>                0.0000
      7 O7          31.1208  34.4995  39.4060 O.2            1 <1>                0.0000
      8 N8          29.3256  35.7692  39.0965 N.am           1 <1>                0.0000
      9 C9          28.4786  35.1141  40.0967 C.3            1 <1>                0.0000
     10 C10         27.1386  35.8662  40.0451 C.3            1 <1>                0.0000
     11 C11         26.8389  36.5159  41.3975 C.3            1 <1>                0.0000
     12 C12         25.4348  37.1231  41.3716 C.3            1 <1>                0.0000
     13 N13         24.4681  36.1433  41.8846 N.4            1 <1>                1.0000
     14 C14         27.3370  36.9250  38.9838 C.ar           1 <1>                0.0000
     15 C15         26.4805  37.8968  38.5023 C.ar           1 <1>                0.0000
     16 C16         26.9010  38.7634  37.5111 C.ar           1 <1>                0.0000
     17 C17         28.1822  38.6560  37.0015 C.ar           1 <1>                0.0000
     18 C18         29.0397  37.6880  37.4785 C.ar           1 <1>                0.0000
     19 C19         28.6242  36.8127  38.4839 C.ar           1 <1>                0.0000
     20 H20         33.9219  36.2193  38.3209 H              1 <1>                0.0000
     21 H21         33.2838  34.6884  38.9672 H              1 <1>                0.0000
     22 H22         34.3300  34.6792  37.5272 H              1 <1>                0.0000
     23 H23         33.4748  35.5717  35.3559 H              1 <1>                0.0000
     24 H24         31.8192  36.2168  35.2491 H              1 <1>                0.0000
     25 H25         33.0667  37.1117  36.1497 H              1 <1>                0.0000
     26 H26         31.5327  33.4323  37.7030 H              1 <1>                0.0000
     27 H27         30.9234  34.0680  36.1563 H              1 <1>                0.0000
     28 H28         32.5789  33.4229  36.2631 H              1 <1>                0.0000
     29 H29         28.3331  34.0647  39.8402 H              1 <1>                0.0000
     30 H30         28.9246  35.2038  41.0871 H              1 <1>                0.0000
     31 H31         26.3330  35.1886  39.7628 H              1 <1>                0.0000
     32 H32         26.8944  35.7620  42.1830 H              1 <1>                0.0000
     33 H33         27.5704  37.2998  41.5941 H              1 <1>                0.0000
     34 H34         25.4136  38.0159  41.9965 H              1 <1>                0.0000
     35 H35         25.1732  37.3899  40.3477 H              1 <1>                0.0000
     36 H36         25.4803  37.9789  38.9012 H              1 <1>                0.0000
     37 H37         26.2307  39.5222  37.1353 H              1 <1>                0.0000
     38 H38         28.5118  39.3326  36.2270 H              1 <1>                0.0000
     39 H39         30.0387  37.6089  37.0758 H              1 <1>                0.0000
     40 H40         23.7864  36.6133  42.4611 H              1 <1>                0.0000
     41 H41         24.0017  35.6941  41.1107 H              1 <1>                0.0000
     42 H42         24.9521  35.4492  42.4342 H              1 <1>                0.0000
@<TRIPOS>BOND
    1    1    2 1     
    2    1   20 1     
    3    1   21 1     
    4    1   22 1     
    5    2    3 1     
    6    2    4 1     
    7    2    5 1     
    8    3   23 1     
    9    3   24 1     
   10    3   25 1     
   11    4   26 1     
   12    4   27 1     
   13    4   28 1     
   14    5    6 1     
   15    6    7 2     
   16    6    8 am    
   17    8    9 1     
   18    8   19 1     
   19    9   10 1     
   20    9   29 1     
   21    9   30 1     
   22   10   11 1     
   23   10   14 1     
   24   10   31 1     
   25   11   12 1     
   26   11   32 1     
   27   11   33 1     
   28   12   13 1     
   29   12   34 1     
   30   12   35 1     
   31   13   40 1     
   32   13   41 1     
   33   13   42 1     
   34   14   15 ar    
   35   14   19 ar    
   36   15   16 ar    
   37   15   36 1     
   38   16   17 ar    
   39   16   37 1     
   40   17   18 ar    
   41   17   38 1     
   42   18   19 ar    
   43   18   39 1     
@<TRIPOS>SUBSTRUCTURE
      1 ****           1
@<TRIPOS>SET
DONOR_HYDROGENS      STATIC     ATOMS    <user>   **** ""
3 40 41 42
ATOM$RED        STATIC     ATOMS    COLORGROUP SYSTEM
3 40 41 42
@<TRIPOS>COMMENT
> <Gold.Version>
2022.2.0

> <Gold.Id.Protein>
1qkm|1qkm_protein|mol2

> <Gold.Protein.RotatedTorsions>
[  496  491  490  487 ] final -104.33 input  -89.99 | X-H torsion

> <Gold.Protein.ActiveResidues>
 MET295  LEU298  THR299  LEU301  ALA302  GLU305  TRP335  MET336  LEU339  MET340 
 GLY342  LEU343  ARG346  PHE356  ILE373  ILE376  PHE377  LEU380  LYS471  GLY472 
 MET473  HIS475  LEU476  LEU477  ASN478  MET479  VAL484  VAL487 

> <Gold.Protein.RotatedAtoms>
   36.8892   34.5349   40.9246 H   0  0  0  0  0  0  0  0  0  0  0  0  # atno 496  bound_to 491 

> <Gold.Score>
     Score     S(PLP)   S(hbond)     S(cho)   S(metal)  DE(clash)   DE(tors)     intcor
     56.79     -49.35       2.90       0.00       0.00       0.01       0.83       0.42

> <Gold.PLP.Fitness>
56.7914

> <Gold.PLP.PLP>
-49.3507

> <Gold.PLP.part.hbond>
-2.3718

> <Gold.PLP.part.metal>
0.0000

> <Gold.PLP.part.buried>
-2.2800

> <Gold.PLP.part.nonpolar>
-50.2330

> <Gold.PLP.part.repulsive>
5.3410

> <Gold.PLP.ligand.clash>
0.0129

> <Gold.PLP.ligand.torsion>
0.8263

> <Gold.PLP.Chemscore.Hbond>
2.8960

> <Gold.PLP.Chemscore.CHOScore>
0.0000

> <Gold.PLP.Chemscore.Metal>
0.0000

> <Gold.Chemscore.Hbonds>
donor molecule, donor type, donor heavy atom, donor atom, acceptor molecule, acceptor atom, score
      L1  H    13    41       P1  1131  0.90
      L1  H    13    42       P1   582  2.00

> <Gold.PLP.Chemscore.Internal.Correction>
0.4182

