#       Name:                EN300-85007_i002
#       Creating user name   aseyller
#       Creation time:       Fri Apr 21 12:24:31 2023


#       File generated by GOLD software.
#

@<TRIPOS>MOLECULE
EN300-85007_i002|amine_3|mol2|25|dock12
    42    43     1
SMALL
USER_CHARGES


@<TRIPOS>ATOM
      1 C1          26.1976  37.3339  40.4117 C.3            1 <1>                0.0000
      2 C2          26.9283  36.0984  39.8819 C.3            1 <1>                0.0000
      3 C3          27.1281  35.0965  41.0209 C.3            1 <1>                0.0000
      4 C4          26.0970  35.4507  38.7728 C.3            1 <1>                0.0000
      5 O5          28.2213  36.4916  39.3509 O.3            1 <1>                0.0000
      6 C6          28.2214  37.2145  38.2149 C.2            1 <1>                0.0000
      7 O7          27.2918  37.9567  37.9670 O.2            1 <1>                0.0000
      8 N8          29.2527  37.1150  37.3529 N.am           1 <1>                0.0000
      9 C9          29.3652  37.8485  36.0894 C.3            1 <1>                0.0000
     10 C10         30.7023  37.3973  35.4791 C.3            1 <1>                0.0000
     11 C11         31.6466  38.5907  35.3212 C.3            1 <1>                0.0000
     12 C12         32.4044  38.4699  33.9975 C.3            1 <1>                0.0000
     13 N13         33.0670  37.1605  33.9305 N.4            1 <1>                1.0000
     14 C14         31.2627  36.4098  36.4778 C.ar           1 <1>                0.0000
     15 C15         32.4356  35.6790  36.4689 C.ar           1 <1>                0.0000
     16 C16         32.7306  34.8270  37.5165 C.ar           1 <1>                0.0000
     17 C17         31.8487  34.7072  38.5750 C.ar           1 <1>                0.0000
     18 C18         30.6774  35.4338  38.5879 C.ar           1 <1>                0.0000
     19 C19         30.3752  36.3011  37.5361 C.ar           1 <1>                0.0000
     20 H20         26.7899  37.7953  41.2018 H              1 <1>                0.0000
     21 H21         26.0553  38.0476  39.6003 H              1 <1>                0.0000
     22 H22         25.2270  37.0388  40.8104 H              1 <1>                0.0000
     23 H23         26.1574  34.8014  41.4196 H              1 <1>                0.0000
     24 H24         27.6487  34.2164  40.6435 H              1 <1>                0.0000
     25 H25         27.7203  35.5580  41.8111 H              1 <1>                0.0000
     26 H26         25.9547  36.1644  37.9614 H              1 <1>                0.0000
     27 H27         26.6176  34.5705  38.3954 H              1 <1>                0.0000
     28 H28         25.1263  35.1556  39.1715 H              1 <1>                0.0000
     29 H29         28.5401  37.5883  35.4263 H              1 <1>                0.0000
     30 H30         29.3778  38.9224  36.2753 H              1 <1>                0.0000
     31 H31         30.5368  36.9144  34.5160 H              1 <1>                0.0000
     32 H32         31.0683  39.5147  35.3258 H              1 <1>                0.0000
     33 H33         32.3577  38.6030  36.1472 H              1 <1>                0.0000
     34 H34         31.7039  38.5655  33.1679 H              1 <1>                0.0000
     35 H35         33.1529  39.2596  33.9340 H              1 <1>                0.0000
     36 H36         33.1229  35.7736  35.6413 H              1 <1>                0.0000
     37 H37         33.6473  34.2561  37.5083 H              1 <1>                0.0000
     38 H38         32.0781  34.0418  39.3941 H              1 <1>                0.0000
     39 H39         29.9926  35.3352  39.4171 H              1 <1>                0.0000
     40 H40         32.5337  36.5437  33.3362 H              1 <1>                0.0000
     41 H41         33.9956  37.2726  33.5519 H              1 <1>                0.0000
     42 H42         33.1270  36.7661  34.8572 H              1 <1>                0.0000
@<TRIPOS>BOND
    1    1    2 1     
    2    1   20 1     
    3    1   21 1     
    4    1   22 1     
    5    2    3 1     
    6    2    4 1     
    7    2    5 1     
    8    3   23 1     
    9    3   24 1     
   10    3   25 1     
   11    4   26 1     
   12    4   27 1     
   13    4   28 1     
   14    5    6 1     
   15    6    7 2     
   16    6    8 am    
   17    8    9 1     
   18    8   19 1     
   19    9   10 1     
   20    9   29 1     
   21    9   30 1     
   22   10   11 1     
   23   10   14 1     
   24   10   31 1     
   25   11   12 1     
   26   11   32 1     
   27   11   33 1     
   28   12   13 1     
   29   12   34 1     
   30   12   35 1     
   31   13   40 1     
   32   13   41 1     
   33   13   42 1     
   34   14   15 ar    
   35   14   19 ar    
   36   15   16 ar    
   37   15   36 1     
   38   16   17 ar    
   39   16   37 1     
   40   17   18 ar    
   41   17   38 1     
   42   18   19 ar    
   43   18   39 1     
@<TRIPOS>SUBSTRUCTURE
      1 ****           1
@<TRIPOS>SET
DONOR_HYDROGENS      STATIC     ATOMS    <user>   **** ""
3 40 41 42
ATOM$RED        STATIC     ATOMS    COLORGROUP SYSTEM
3 40 41 42
@<TRIPOS>COMMENT
> <Gold.Version>
2022.2.0

> <Gold.Id.Protein>
1qkm|1qkm_protein|mol2

> <Gold.Protein.RotatedTorsions>
[  496  491  490  487 ] final  -53.58 input  -89.99 | X-H torsion

> <Gold.Protein.ActiveResidues>
 MET295  LEU298  THR299  LEU301  ALA302  GLU305  TRP335  MET336  LEU339  MET340 
 GLY342  LEU343  ARG346  PHE356  ILE373  ILE376  PHE377  LEU380  LYS471  GLY472 
 MET473  HIS475  LEU476  LEU477  ASN478  MET479  VAL484  VAL487 

> <Gold.Protein.RotatedAtoms>
   36.4493   34.7172   41.5778 H   0  0  0  0  0  0  0  0  0  0  0  0  # atno 496  bound_to 491 

> <Gold.Score>
     Score     S(PLP)   S(hbond)     S(cho)   S(metal)  DE(clash)   DE(tors)     intcor
     54.57     -50.30       1.98       0.00       0.00       0.00       1.05       0.42

> <Gold.PLP.Fitness>
54.5663

> <Gold.PLP.PLP>
-50.2956

> <Gold.PLP.part.hbond>
-2.0000

> <Gold.PLP.part.metal>
0.0000

> <Gold.PLP.part.buried>
-1.8364

> <Gold.PLP.part.nonpolar>
-47.6691

> <Gold.PLP.part.repulsive>
0.1014

> <Gold.PLP.ligand.clash>
0.0049

> <Gold.PLP.ligand.torsion>
1.0461

> <Gold.PLP.Chemscore.Hbond>
1.9833

> <Gold.PLP.Chemscore.CHOScore>
0.0000

> <Gold.PLP.Chemscore.Metal>
0.0000

> <Gold.Chemscore.Hbonds>
donor molecule, donor type, donor heavy atom, donor atom, acceptor molecule, acceptor atom, score
      L1  H    13    40       P1  3187  0.99
      L1  H    13    41       P1  3229  0.99

> <Gold.PLP.Chemscore.Internal.Correction>
0.4182

