#       Name:                EN300-85007_i002
#       Creating user name   aseyller
#       Creation time:       Fri Apr 21 12:24:32 2023


#       File generated by GOLD software.
#

@<TRIPOS>MOLECULE
EN300-85007_i002|amine_3|mol2|25|dock13
    42    43     1
SMALL
USER_CHARGES


@<TRIPOS>ATOM
      1 C1          31.8307  36.5065  35.2263 C.3            1 <1>                0.0000
      2 C2          31.7572  37.8779  35.9008 C.3            1 <1>                0.0000
      3 C3          33.1455  38.2712  36.4095 C.3            1 <1>                0.0000
      4 C4          31.2710  38.9181  34.8896 C.3            1 <1>                0.0000
      5 O5          30.8313  37.8189  37.0177 O.3            1 <1>                0.0000
      6 C6          30.9261  36.7529  37.8348 C.2            1 <1>                0.0000
      7 O7          31.9990  36.2063  37.9983 O.2            1 <1>                0.0000
      8 N8          29.8312  36.2921  38.4714 N.am           1 <1>                0.0000
      9 C9          29.8095  35.1443  39.3820 C.3            1 <1>                0.0000
     10 C10         28.3478  35.0231  39.8430 C.3            1 <1>                0.0000
     11 C11         28.2503  35.1992  41.3597 C.3            1 <1>                0.0000
     12 C12         28.1868  36.6902  41.6970 C.3            1 <1>                0.0000
     13 N13         26.8470  37.0217  42.2001 N.4            1 <1>                1.0000
     14 C14         27.6303  36.1497  39.1340 C.ar           1 <1>                0.0000
     15 C15         26.3041  36.5373  39.1599 C.ar           1 <1>                0.0000
     16 C16         25.8827  37.6201  38.4112 C.ar           1 <1>                0.0000
     17 C17         26.7920  38.3157  37.6354 C.ar           1 <1>                0.0000
     18 C18         28.1157  37.9323  37.6063 C.ar           1 <1>                0.0000
     19 C19         28.5502  36.8432  38.3644 C.ar           1 <1>                0.0000
     20 H20         32.1771  35.7655  35.9468 H              1 <1>                0.0000
     21 H21         30.8417  36.2263  34.8640 H              1 <1>                0.0000
     22 H22         32.5258  36.5507  34.3880 H              1 <1>                0.0000
     23 H23         33.8406  38.3155  35.5710 H              1 <1>                0.0000
     24 H24         33.0931  39.2482  36.8900 H              1 <1>                0.0000
     25 H25         33.4919  37.5302  37.1298 H              1 <1>                0.0000
     26 H26         30.2819  38.6379  34.5273 H              1 <1>                0.0000
     27 H27         31.2185  39.8951  35.3701 H              1 <1>                0.0000
     28 H28         31.9660  38.9624  34.0511 H              1 <1>                0.0000
     29 H29         30.1167  34.2396  38.8574 H              1 <1>                0.0000
     30 H30         30.4615  35.3269  40.2362 H              1 <1>                0.0000
     31 H31         27.9341  34.0596  39.5456 H              1 <1>                0.0000
     32 H32         27.3502  34.7052  41.7257 H              1 <1>                0.0000
     33 H33         29.1262  34.7563  41.8340 H              1 <1>                0.0000
     34 H34         28.9292  36.9218  42.4607 H              1 <1>                0.0000
     35 H35         28.3931  37.2746  40.8005 H              1 <1>                0.0000
     36 H36         25.5954  35.9928  39.7660 H              1 <1>                0.0000
     37 H37         24.8460  37.9220  38.4319 H              1 <1>                0.0000
     38 H38         26.4639  39.1619  37.0501 H              1 <1>                0.0000
     39 H39         28.8207  38.4792  36.9978 H              1 <1>                0.0000
     40 H40         26.4887  36.2472  42.7383 H              1 <1>                0.0000
     41 H41         26.9012  37.8417  42.7858 H              1 <1>                0.0000
     42 H42         26.2312  37.2043  41.4220 H              1 <1>                0.0000
@<TRIPOS>BOND
    1    1    2 1     
    2    1   20 1     
    3    1   21 1     
    4    1   22 1     
    5    2    3 1     
    6    2    4 1     
    7    2    5 1     
    8    3   23 1     
    9    3   24 1     
   10    3   25 1     
   11    4   26 1     
   12    4   27 1     
   13    4   28 1     
   14    5    6 1     
   15    6    7 2     
   16    6    8 am    
   17    8    9 1     
   18    8   19 1     
   19    9   10 1     
   20    9   29 1     
   21    9   30 1     
   22   10   11 1     
   23   10   14 1     
   24   10   31 1     
   25   11   12 1     
   26   11   32 1     
   27   11   33 1     
   28   12   13 1     
   29   12   34 1     
   30   12   35 1     
   31   13   40 1     
   32   13   41 1     
   33   13   42 1     
   34   14   15 ar    
   35   14   19 ar    
   36   15   16 ar    
   37   15   36 1     
   38   16   17 ar    
   39   16   37 1     
   40   17   18 ar    
   41   17   38 1     
   42   18   19 ar    
   43   18   39 1     
@<TRIPOS>SUBSTRUCTURE
      1 ****           1
@<TRIPOS>SET
DONOR_HYDROGENS      STATIC     ATOMS    <user>   **** ""
3 40 41 42
ATOM$RED        STATIC     ATOMS    COLORGROUP SYSTEM
3 40 41 42
@<TRIPOS>COMMENT
> <Gold.Version>
2022.2.0

> <Gold.Id.Protein>
1qkm|1qkm_protein|mol2

> <Gold.Protein.RotatedTorsions>
[  496  491  490  487 ] final  -38.01 input  -89.99 | X-H torsion

> <Gold.Protein.ActiveResidues>
 MET295  LEU298  THR299  LEU301  ALA302  GLU305  TRP335  MET336  LEU339  MET340 
 GLY342  LEU343  ARG346  PHE356  ILE373  ILE376  PHE377  LEU380  LYS471  GLY472 
 MET473  HIS475  LEU476  LEU477  ASN478  MET479  VAL484  VAL487 

> <Gold.Protein.RotatedAtoms>
   36.3526   34.6362   41.7999 H   0  0  0  0  0  0  0  0  0  0  0  0  # atno 496  bound_to 491 

> <Gold.Score>
     Score     S(PLP)   S(hbond)     S(cho)   S(metal)  DE(clash)   DE(tors)     intcor
     55.52     -54.11       2.00       0.00       0.00       2.59       1.21       0.42

> <Gold.PLP.Fitness>
55.5209

> <Gold.PLP.PLP>
-54.1076

> <Gold.PLP.part.hbond>
-0.9984

> <Gold.PLP.part.metal>
0.0000

> <Gold.PLP.part.buried>
-2.9240

> <Gold.PLP.part.nonpolar>
-51.6175

> <Gold.PLP.part.repulsive>
0.1032

> <Gold.PLP.ligand.clash>
2.5896

> <Gold.PLP.ligand.torsion>
1.2076

> <Gold.PLP.Chemscore.Hbond>
2.0000

> <Gold.PLP.Chemscore.CHOScore>
0.0000

> <Gold.PLP.Chemscore.Metal>
0.0000

> <Gold.Chemscore.Hbonds>
donor molecule, donor type, donor heavy atom, donor atom, acceptor molecule, acceptor atom, score
      L1  H    13    40       P1   582  2.00

> <Gold.PLP.Chemscore.Internal.Correction>
0.4182

