#       Name:                EN300-85007_i002
#       Creating user name   aseyller
#       Creation time:       Fri Apr 21 12:24:19 2023


#       File generated by GOLD software.
#

@<TRIPOS>MOLECULE
EN300-85007_i002|amine_3|mol2|25|dock2
    42    43     1
SMALL
USER_CHARGES


@<TRIPOS>ATOM
      1 C1          32.3883  35.1923  35.9672 C.3            1 <1>                0.0000
      2 C2          32.7425  36.5741  36.5205 C.3            1 <1>                0.0000
      3 C3          34.0217  36.4772  37.3543 C.3            1 <1>                0.0000
      4 C4          32.9624  37.5469  35.3603 C.3            1 <1>                0.0000
      5 O5          31.6558  37.0542  37.3554 O.3            1 <1>                0.0000
      6 C6          31.1995  36.2169  38.3062 C.2            1 <1>                0.0000
      7 O7          31.9446  35.3930  38.7986 O.2            1 <1>                0.0000
      8 N8          29.9165  36.2928  38.7117 N.am           1 <1>                0.0000
      9 C9          29.3069  35.4391  39.7348 C.3            1 <1>                0.0000
     10 C10         27.8473  35.9115  39.8365 C.3            1 <1>                0.0000
     11 C11         27.5507  36.4284  41.2457 C.3            1 <1>                0.0000
     12 C12         26.1095  36.9380  41.3092 C.3            1 <1>                0.0000
     13 N13         25.1844  35.7982  41.2546 N.4            1 <1>                1.0000
     14 C14         27.7394  37.0342  38.8293 C.ar           1 <1>                0.0000
     15 C15         26.6704  37.8365  38.4781 C.ar           1 <1>                0.0000
     16 C16         26.8232  38.8122  37.5110 C.ar           1 <1>                0.0000
     17 C17         28.0493  38.9841  36.8949 C.ar           1 <1>                0.0000
     18 C18         29.1181  38.1858  37.2418 C.ar           1 <1>                0.0000
     19 C19         28.9733  37.2020  38.2220 C.ar           1 <1>                0.0000
     20 H20         32.2317  34.4992  36.7939 H              1 <1>                0.0000
     21 H21         31.4770  35.2613  35.3733 H              1 <1>                0.0000
     22 H22         33.2040  34.8318  35.3406 H              1 <1>                0.0000
     23 H23         34.8375  36.1167  36.7275 H              1 <1>                0.0000
     24 H24         34.2740  37.4616  37.7485 H              1 <1>                0.0000
     25 H25         33.8650  35.7841  38.1808 H              1 <1>                0.0000
     26 H26         32.0511  37.6160  34.7664 H              1 <1>                0.0000
     27 H27         33.2146  38.5314  35.7545 H              1 <1>                0.0000
     28 H28         33.7781  37.1866  34.7336 H              1 <1>                0.0000
     29 H29         29.3455  34.3941  39.4273 H              1 <1>                0.0000
     30 H30         29.8148  35.5720  40.6899 H              1 <1>                0.0000
     31 H31         27.1664  35.1003  39.5789 H              1 <1>                0.0000
     32 H32         27.6823  35.6196  41.9646 H              1 <1>                0.0000
     33 H33         28.2349  37.2425  41.4855 H              1 <1>                0.0000
     34 H34         25.9581  37.4845  42.2400 H              1 <1>                0.0000
     35 H35         25.9206  37.6000  40.4642 H              1 <1>                0.0000
     36 H36         25.7136  37.7006  38.9600 H              1 <1>                0.0000
     37 H37         25.9870  39.4384  37.2370 H              1 <1>                0.0000
     38 H38         28.1698  39.7462  36.1392 H              1 <1>                0.0000
     39 H39         30.0728  38.3247  36.7564 H              1 <1>                0.0000
     40 H40         25.1228  35.3709  42.1665 H              1 <1>                0.0000
     41 H41         24.2708  36.1198  40.9715 H              1 <1>                0.0000
     42 H42         25.5239  35.1210  40.5881 H              1 <1>                0.0000
@<TRIPOS>BOND
    1    1    2 1     
    2    1   20 1     
    3    1   21 1     
    4    1   22 1     
    5    2    3 1     
    6    2    4 1     
    7    2    5 1     
    8    3   23 1     
    9    3   24 1     
   10    3   25 1     
   11    4   26 1     
   12    4   27 1     
   13    4   28 1     
   14    5    6 1     
   15    6    7 2     
   16    6    8 am    
   17    8    9 1     
   18    8   19 1     
   19    9   10 1     
   20    9   29 1     
   21    9   30 1     
   22   10   11 1     
   23   10   14 1     
   24   10   31 1     
   25   11   12 1     
   26   11   32 1     
   27   11   33 1     
   28   12   13 1     
   29   12   34 1     
   30   12   35 1     
   31   13   40 1     
   32   13   41 1     
   33   13   42 1     
   34   14   15 ar    
   35   14   19 ar    
   36   15   16 ar    
   37   15   36 1     
   38   16   17 ar    
   39   16   37 1     
   40   17   18 ar    
   41   17   38 1     
   42   18   19 ar    
   43   18   39 1     
@<TRIPOS>SUBSTRUCTURE
      1 ****           1
@<TRIPOS>SET
DONOR_HYDROGENS      STATIC     ATOMS    <user>   **** ""
3 40 41 42
ATOM$RED        STATIC     ATOMS    COLORGROUP SYSTEM
3 40 41 42
@<TRIPOS>COMMENT
> <Gold.Version>
2022.2.0

> <Gold.Id.Protein>
1qkm|1qkm_protein|mol2

> <Gold.Protein.RotatedTorsions>
[  496  491  490  487 ] final -103.90 input  -89.99 | X-H torsion

> <Gold.Protein.ActiveResidues>
 MET295  LEU298  THR299  LEU301  ALA302  GLU305  TRP335  MET336  LEU339  MET340 
 GLY342  LEU343  ARG346  PHE356  ILE373  ILE376  PHE377  LEU380  LYS471  GLY472 
 MET473  HIS475  LEU476  LEU477  ASN478  MET479  VAL484  VAL487 

> <Gold.Protein.RotatedAtoms>
   36.8853   34.5391   40.9287 H   0  0  0  0  0  0  0  0  0  0  0  0  # atno 496  bound_to 491 

> <Gold.Score>
     Score     S(PLP)   S(hbond)     S(cho)   S(metal)  DE(clash)   DE(tors)     intcor
     66.46     -58.59       2.79       0.00       0.00       0.00       0.48       0.46

> <Gold.PLP.Fitness>
66.4591

> <Gold.PLP.PLP>
-58.5861

> <Gold.PLP.part.hbond>
-2.0000

> <Gold.PLP.part.metal>
0.0000

> <Gold.PLP.part.buried>
-4.2277

> <Gold.PLP.part.nonpolar>
-53.7859

> <Gold.PLP.part.repulsive>
0.2076

> <Gold.PLP.ligand.clash>
0.0000

> <Gold.PLP.ligand.torsion>
0.4773

> <Gold.PLP.Chemscore.Hbond>
2.7899

> <Gold.PLP.Chemscore.CHOScore>
0.0000

> <Gold.PLP.Chemscore.Metal>
0.0000

> <Gold.Chemscore.Hbonds>
donor molecule, donor type, donor heavy atom, donor atom, acceptor molecule, acceptor atom, score
      L1  H    13    40       P1   582  2.00
      L1  H    13    41       P1  1131  0.79

> <Gold.PLP.Chemscore.Internal.Correction>
0.4579

