#       Name:                EN300-85007_i002
#       Creating user name   aseyller
#       Creation time:       Fri Apr 21 12:24:41 2023


#       File generated by GOLD software.
#

@<TRIPOS>MOLECULE
EN300-85007_i002|amine_3|mol2|25|dock20
    42    43     1
SMALL
USER_CHARGES


@<TRIPOS>ATOM
      1 C1          33.7100  36.7075  35.2384 C.3            1 <1>                0.0000
      2 C2          32.4699  37.5971  35.3461 C.3            1 <1>                0.0000
      3 C3          32.8749  39.0611  35.1630 C.3            1 <1>                0.0000
      4 C4          31.4659  37.2061  34.2598 C.3            1 <1>                0.0000
      5 O5          31.8614  37.4231  36.6529 O.3            1 <1>                0.0000
      6 C6          30.5859  37.8313  36.7926 C.2            1 <1>                0.0000
      7 O7          30.1676  38.7567  36.1254 O.2            1 <1>                0.0000
      8 N8          29.7731  37.2135  37.6725 N.am           1 <1>                0.0000
      9 C9          30.1616  36.0903  38.5295 C.3            1 <1>                0.0000
     10 C10         28.9012  35.7473  39.3404 C.3            1 <1>                0.0000
     11 C11         29.1638  35.9283  40.8368 C.3            1 <1>                0.0000
     12 C12         28.0617  35.2303  41.6362 C.3            1 <1>                0.0000
     13 N13         27.0900  36.2276  42.1044 N.4            1 <1>                1.0000
     14 C14         27.8611  36.7361  38.8640 C.ar           1 <1>                0.0000
     15 C15         26.5408  36.9105  39.2329 C.ar           1 <1>                0.0000
     16 C16         25.7802  37.9022  38.6424 C.ar           1 <1>                0.0000
     17 C17         26.3440  38.7206  37.6807 C.ar           1 <1>                0.0000
     18 C18         27.6604  38.5500  37.3094 C.ar           1 <1>                0.0000
     19 C19         28.4368  37.5543  37.9055 C.ar           1 <1>                0.0000
     20 H20         34.4252  36.9862  36.0123 H              1 <1>                0.0000
     21 H21         33.4215  35.6646  35.3688 H              1 <1>                0.0000
     22 H22         34.1669  36.8382  34.2575 H              1 <1>                0.0000
     23 H23         33.3318  39.1918  34.1820 H              1 <1>                0.0000
     24 H24         31.9914  39.6949  35.2398 H              1 <1>                0.0000
     25 H25         33.5902  39.3397  35.9369 H              1 <1>                0.0000
     26 H26         31.1773  36.1632  34.3903 H              1 <1>                0.0000
     27 H27         30.5823  37.8398  34.3366 H              1 <1>                0.0000
     28 H28         31.9227  37.3367  33.2788 H              1 <1>                0.0000
     29 H29         30.4636  35.2375  37.9214 H              1 <1>                0.0000
     30 H30         30.9714  36.3859  39.1964 H              1 <1>                0.0000
     31 H31         28.5814  34.7263  39.1322 H              1 <1>                0.0000
     32 H32         30.1296  35.4918  41.0917 H              1 <1>                0.0000
     33 H33         29.1704  36.9913  41.0785 H              1 <1>                0.0000
     34 H34         27.5575  34.5023  41.0006 H              1 <1>                0.0000
     35 H35         28.5016  34.7212  42.4936 H              1 <1>                0.0000
     36 H36         26.1022  36.2702  39.9838 H              1 <1>                0.0000
     37 H37         24.7484  38.0373  38.9311 H              1 <1>                0.0000
     38 H38         25.7507  39.4958  37.2186 H              1 <1>                0.0000
     39 H39         28.0945  39.1919  36.5571 H              1 <1>                0.0000
     40 H40         27.5794  37.0511  42.4213 H              1 <1>                0.0000
     41 H41         26.4706  36.4750  41.3472 H              1 <1>                0.0000
     42 H42         26.5525  35.8417  42.8661 H              1 <1>                0.0000
@<TRIPOS>BOND
    1    1    2 1     
    2    1   20 1     
    3    1   21 1     
    4    1   22 1     
    5    2    3 1     
    6    2    4 1     
    7    2    5 1     
    8    3   23 1     
    9    3   24 1     
   10    3   25 1     
   11    4   26 1     
   12    4   27 1     
   13    4   28 1     
   14    5    6 1     
   15    6    7 2     
   16    6    8 am    
   17    8    9 1     
   18    8   19 1     
   19    9   10 1     
   20    9   29 1     
   21    9   30 1     
   22   10   11 1     
   23   10   14 1     
   24   10   31 1     
   25   11   12 1     
   26   11   32 1     
   27   11   33 1     
   28   12   13 1     
   29   12   34 1     
   30   12   35 1     
   31   13   40 1     
   32   13   41 1     
   33   13   42 1     
   34   14   15 ar    
   35   14   19 ar    
   36   15   16 ar    
   37   15   36 1     
   38   16   17 ar    
   39   16   37 1     
   40   17   18 ar    
   41   17   38 1     
   42   18   19 ar    
   43   18   39 1     
@<TRIPOS>SUBSTRUCTURE
      1 ****           1
@<TRIPOS>SET
DONOR_HYDROGENS      STATIC     ATOMS    <user>   **** ""
3 40 41 42
ATOM$RED        STATIC     ATOMS    COLORGROUP SYSTEM
3 40 41 42
@<TRIPOS>COMMENT
> <Gold.Version>
2022.2.0

> <Gold.Id.Protein>
1qkm|1qkm_protein|mol2

> <Gold.Protein.RotatedTorsions>
[  496  491  490  487 ] final   45.66 input  -89.99 | X-H torsion

> <Gold.Protein.ActiveResidues>
 MET295  LEU298  THR299  LEU301  ALA302  GLU305  TRP335  MET336  LEU339  MET340 
 GLY342  LEU343  ARG346  PHE356  ILE373  ILE376  PHE377  LEU380  LYS471  GLY472 
 MET473  HIS475  LEU476  LEU477  ASN478  MET479  VAL484  VAL487 

> <Gold.Protein.RotatedAtoms>
   36.4415   33.5170   42.3679 H   0  0  0  0  0  0  0  0  0  0  0  0  # atno 496  bound_to 491 

> <Gold.Score>
     Score     S(PLP)   S(hbond)     S(cho)   S(metal)  DE(clash)   DE(tors)     intcor
     54.04     -49.71       2.00       0.00       0.00       0.00       1.04       0.42

> <Gold.PLP.Fitness>
54.0384

> <Gold.PLP.PLP>
-49.7091

> <Gold.PLP.part.hbond>
-1.0000

> <Gold.PLP.part.metal>
0.0000

> <Gold.PLP.part.buried>
0.0437

> <Gold.PLP.part.nonpolar>
-49.5927

> <Gold.PLP.part.repulsive>
0.0557

> <Gold.PLP.ligand.clash>
0.0000

> <Gold.PLP.ligand.torsion>
1.0444

> <Gold.PLP.Chemscore.Hbond>
2.0000

> <Gold.PLP.Chemscore.CHOScore>
0.0000

> <Gold.PLP.Chemscore.Metal>
0.0000

> <Gold.Chemscore.Hbonds>
donor molecule, donor type, donor heavy atom, donor atom, acceptor molecule, acceptor atom, score
      L1  H    13    42       P1   582  2.00

> <Gold.PLP.Chemscore.Internal.Correction>
0.4182

