#       Name:                EN300-85007_i002
#       Creating user name   aseyller
#       Creation time:       Fri Apr 21 12:24:35 2023


#       File generated by GOLD software.
#

@<TRIPOS>MOLECULE
EN300-85007_i002|amine_3|mol2|25|dock15
    42    43     1
SMALL
USER_CHARGES


@<TRIPOS>ATOM
      1 C1          31.8734  38.1570  35.1535 C.3            1 <1>                0.0000
      2 C2          31.7861  37.0952  36.2517 C.3            1 <1>                0.0000
      3 C3          32.0451  35.7138  35.6472 C.3            1 <1>                0.0000
      4 C4          32.8350  37.3862  37.3269 C.3            1 <1>                0.0000
      5 O5          30.4620  37.1225  36.8471 O.3            1 <1>                0.0000
      6 C6          30.2332  36.2747  37.8679 C.2            1 <1>                0.0000
      7 O7          31.0843  35.4703  38.1920 O.2            1 <1>                0.0000
      8 N8          29.0602  36.3184  38.5302 N.am           1 <1>                0.0000
      9 C9          28.6968  35.4503  39.6533 C.3            1 <1>                0.0000
     10 C10         27.2785  35.8856  40.0567 C.3            1 <1>                0.0000
     11 C11         27.2668  36.3960  41.4990 C.3            1 <1>                0.0000
     12 C12         25.8669  36.9046  41.8488 C.3            1 <1>                0.0000
     13 N13         24.9037  35.8008  41.7404 N.4            1 <1>                1.0000
     14 C14         26.9367  37.0045  39.0986 C.ar           1 <1>                0.0000
     15 C15         25.7985  37.7793  38.9794 C.ar           1 <1>                0.0000
     16 C16         25.7237  38.7578  38.0061 C.ar           1 <1>                0.0000
     17 C17         26.7913  38.9602  37.1507 C.ar           1 <1>                0.0000
     18 C18         27.9283  38.1895  37.2656 C.ar           1 <1>                0.0000
     19 C19         28.0138  37.2031  38.2501 C.ar           1 <1>                0.0000
     20 H20         31.1261  37.9496  34.3875 H              1 <1>                0.0000
     21 H21         31.6888  39.1411  35.5841 H              1 <1>                0.0000
     22 H22         32.8672  38.1365  34.7064 H              1 <1>                0.0000
     23 H23         33.0390  35.6933  35.2001 H              1 <1>                0.0000
     24 H24         31.9829  34.9574  36.4295 H              1 <1>                0.0000
     25 H25         31.2979  35.5065  34.8812 H              1 <1>                0.0000
     26 H26         32.6504  38.3704  37.7575 H              1 <1>                0.0000
     27 H27         32.7728  36.6299  38.1093 H              1 <1>                0.0000
     28 H28         33.8289  37.3658  36.8799 H              1 <1>                0.0000
     29 H29         28.6970  34.4063  39.3398 H              1 <1>                0.0000
     30 H30         29.3877  35.5968  40.4835 H              1 <1>                0.0000
     31 H31         26.5795  35.0573  39.9417 H              1 <1>                0.0000
     32 H32         27.5376  35.5840  42.1740 H              1 <1>                0.0000
     33 H33         27.9853  37.2092  41.6024 H              1 <1>                0.0000
     34 H34         25.8647  37.2900  42.8683 H              1 <1>                0.0000
     35 H35         25.5866  37.7005  41.1588 H              1 <1>                0.0000
     36 H36         24.9657  37.6195  39.6481 H              1 <1>                0.0000
     37 H37         24.8336  39.3624  37.9137 H              1 <1>                0.0000
     38 H38         26.7339  39.7245  36.3897 H              1 <1>                0.0000
     39 H39         28.7582  38.3521  36.5939 H              1 <1>                0.0000
     40 H40         23.9778  36.1752  41.5970 H              1 <1>                0.0000
     41 H41         25.1532  35.2123  40.9597 H              1 <1>                0.0000
     42 H42         24.9187  35.2567  42.5900 H              1 <1>                0.0000
@<TRIPOS>BOND
    1    1    2 1     
    2    1   20 1     
    3    1   21 1     
    4    1   22 1     
    5    2    3 1     
    6    2    4 1     
    7    2    5 1     
    8    3   23 1     
    9    3   24 1     
   10    3   25 1     
   11    4   26 1     
   12    4   27 1     
   13    4   28 1     
   14    5    6 1     
   15    6    7 2     
   16    6    8 am    
   17    8    9 1     
   18    8   19 1     
   19    9   10 1     
   20    9   29 1     
   21    9   30 1     
   22   10   11 1     
   23   10   14 1     
   24   10   31 1     
   25   11   12 1     
   26   11   32 1     
   27   11   33 1     
   28   12   13 1     
   29   12   34 1     
   30   12   35 1     
   31   13   40 1     
   32   13   41 1     
   33   13   42 1     
   34   14   15 ar    
   35   14   19 ar    
   36   15   16 ar    
   37   15   36 1     
   38   16   17 ar    
   39   16   37 1     
   40   17   18 ar    
   41   17   38 1     
   42   18   19 ar    
   43   18   39 1     
@<TRIPOS>SUBSTRUCTURE
      1 ****           1
@<TRIPOS>SET
DONOR_HYDROGENS      STATIC     ATOMS    <user>   **** ""
3 40 41 42
ATOM$RED        STATIC     ATOMS    COLORGROUP SYSTEM
3 40 41 42
@<TRIPOS>COMMENT
> <Gold.Version>
2022.2.0

> <Gold.Id.Protein>
1qkm|1qkm_protein|mol2

> <Gold.Protein.RotatedTorsions>
[  496  491  490  487 ] final -176.90 input  -89.99 | X-H torsion

> <Gold.Protein.ActiveResidues>
 MET295  LEU298  THR299  LEU301  ALA302  GLU305  TRP335  MET336  LEU339  MET340 
 GLY342  LEU343  ARG346  PHE356  ILE373  ILE376  PHE377  LEU380  LYS471  GLY472 
 MET473  HIS475  LEU476  LEU477  ASN478  MET479  VAL484  VAL487 

> <Gold.Protein.RotatedAtoms>
   37.3154   33.5063   40.8429 H   0  0  0  0  0  0  0  0  0  0  0  0  # atno 496  bound_to 491 

> <Gold.Score>
     Score     S(PLP)   S(hbond)     S(cho)   S(metal)  DE(clash)   DE(tors)     intcor
     56.78     -51.99       1.88       0.00       0.00       1.21       0.03       0.42

> <Gold.PLP.Fitness>
56.7809

> <Gold.PLP.PLP>
-51.9911

> <Gold.PLP.part.hbond>
-2.1586

> <Gold.PLP.part.metal>
0.0000

> <Gold.PLP.part.buried>
-1.4219

> <Gold.PLP.part.nonpolar>
-49.3870

> <Gold.PLP.part.repulsive>
0.2092

> <Gold.PLP.ligand.clash>
1.2093

> <Gold.PLP.ligand.torsion>
0.0324

> <Gold.PLP.Chemscore.Hbond>
1.8819

> <Gold.PLP.Chemscore.CHOScore>
0.0000

> <Gold.PLP.Chemscore.Metal>
0.0000

> <Gold.Chemscore.Hbonds>
donor molecule, donor type, donor heavy atom, donor atom, acceptor molecule, acceptor atom, score
      L1  H    13    40       P1  1131  0.15
      L1  H    13    42       P1   582  1.73

> <Gold.PLP.Chemscore.Internal.Correction>
0.4182

