#       Name:                EN300-85007_i002
#       Creating user name   aseyller
#       Creation time:       Fri Apr 21 12:24:37 2023


#       File generated by GOLD software.
#

@<TRIPOS>MOLECULE
EN300-85007_i002|amine_3|mol2|25|dock17
    42    43     1
SMALL
USER_CHARGES


@<TRIPOS>ATOM
      1 C1          27.6062  34.7407  40.4844 C.3            1 <1>                0.0000
      2 C2          27.8058  36.2560  40.4128 C.3            1 <1>                0.0000
      3 C3          26.4512  36.9556  40.5414 C.3            1 <1>                0.0000
      4 C4          28.7215  36.7042  41.5536 C.3            1 <1>                0.0000
      5 O5          28.4119  36.6048  39.1402 O.3            1 <1>                0.0000
      6 C6          29.7000  36.2561  38.9606 C.2            1 <1>                0.0000
      7 O7          30.1456  35.2707  39.5145 O.2            1 <1>                0.0000
      8 N8          30.4950  37.0001  38.1663 N.am           1 <1>                0.0000
      9 C9          31.9079  36.7222  37.8947 C.3            1 <1>                0.0000
     10 C10         32.3636  37.8420  36.9448 C.3            1 <1>                0.0000
     11 C11         32.8275  37.2541  35.6106 C.3            1 <1>                0.0000
     12 C12         31.6370  36.6140  34.8938 C.3            1 <1>                0.0000
     13 N13         31.7900  35.1530  34.8992 N.4            1 <1>                1.0000
     14 C14         31.1320  38.6964  36.7450 C.ar           1 <1>                0.0000
     15 C15         30.9349  39.8402  35.9949 C.ar           1 <1>                0.0000
     16 C16         29.6948  40.4502  35.9722 C.ar           1 <1>                0.0000
     17 C17         28.6504  39.9130  36.7025 C.ar           1 <1>                0.0000
     18 C18         28.8427  38.7725  37.4523 C.ar           1 <1>                0.0000
     19 C19         30.0909  38.1471  37.4756 C.ar           1 <1>                0.0000
     20 H20         26.9539  34.4215  39.6716 H              1 <1>                0.0000
     21 H21         28.5713  34.2424  40.3928 H              1 <1>                0.0000
     22 H22         27.1513  34.4789  41.4396 H              1 <1>                0.0000
     23 H23         25.9962  36.6937  41.4967 H              1 <1>                0.0000
     24 H24         26.5934  38.0350  40.4904 H              1 <1>                0.0000
     25 H25         25.7989  36.6362  39.7286 H              1 <1>                0.0000
     26 H26         29.6866  36.2059  41.4621 H              1 <1>                0.0000
     27 H27         28.8638  37.7837  41.5027 H              1 <1>                0.0000
     28 H28         28.2667  36.4424  42.5090 H              1 <1>                0.0000
     29 H29         32.4839  36.7533  38.8196 H              1 <1>                0.0000
     30 H30         32.0164  35.7504  37.4132 H              1 <1>                0.0000
     31 H31         33.1634  38.4253  37.4010 H              1 <1>                0.0000
     32 H32         33.2425  38.0473  34.9887 H              1 <1>                0.0000
     33 H33         33.5914  36.4980  35.7927 H              1 <1>                0.0000
     34 H34         30.7149  36.8846  35.4083 H              1 <1>                0.0000
     35 H35         31.5974  36.9714  33.8649 H              1 <1>                0.0000
     36 H36         31.7517  40.2585  35.4256 H              1 <1>                0.0000
     37 H37         29.5420  41.3443  35.3860 H              1 <1>                0.0000
     38 H38         27.6811  40.3888  36.6855 H              1 <1>                0.0000
     39 H39         28.0232  38.3584  38.0210 H              1 <1>                0.0000
     40 H40         31.0339  34.7375  35.4221 H              1 <1>                0.0000
     41 H41         31.7715  34.8095  33.9506 H              1 <1>                0.0000
     42 H42         32.6699  34.9086  35.3282 H              1 <1>                0.0000
@<TRIPOS>BOND
    1    1    2 1     
    2    1   20 1     
    3    1   21 1     
    4    1   22 1     
    5    2    3 1     
    6    2    4 1     
    7    2    5 1     
    8    3   23 1     
    9    3   24 1     
   10    3   25 1     
   11    4   26 1     
   12    4   27 1     
   13    4   28 1     
   14    5    6 1     
   15    6    7 2     
   16    6    8 am    
   17    8    9 1     
   18    8   19 1     
   19    9   10 1     
   20    9   29 1     
   21    9   30 1     
   22   10   11 1     
   23   10   14 1     
   24   10   31 1     
   25   11   12 1     
   26   11   32 1     
   27   11   33 1     
   28   12   13 1     
   29   12   34 1     
   30   12   35 1     
   31   13   40 1     
   32   13   41 1     
   33   13   42 1     
   34   14   15 ar    
   35   14   19 ar    
   36   15   16 ar    
   37   15   36 1     
   38   16   17 ar    
   39   16   37 1     
   40   17   18 ar    
   41   17   38 1     
   42   18   19 ar    
   43   18   39 1     
@<TRIPOS>SUBSTRUCTURE
      1 ****           1
@<TRIPOS>SET
DONOR_HYDROGENS      STATIC     ATOMS    <user>   **** ""
3 40 41 42
ATOM$RED        STATIC     ATOMS    COLORGROUP SYSTEM
3 40 41 42
@<TRIPOS>COMMENT
> <Gold.Version>
2022.2.0

> <Gold.Id.Protein>
1qkm|1qkm_protein|mol2

> <Gold.Protein.RotatedTorsions>
[  496  491  490  487 ] final   79.10 input  -89.99 | X-H torsion

> <Gold.Protein.ActiveResidues>
 MET295  LEU298  THR299  LEU301  ALA302  GLU305  TRP335  MET336  LEU339  MET340 
 GLY342  LEU343  ARG346  PHE356  ILE373  ILE376  PHE377  LEU380  LYS471  GLY472 
 MET473  HIS475  LEU476  LEU477  ASN478  MET479  VAL484  VAL487 

> <Gold.Protein.RotatedAtoms>
   36.7196   33.1078   42.1451 H   0  0  0  0  0  0  0  0  0  0  0  0  # atno 496  bound_to 491 

> <Gold.Score>
     Score     S(PLP)   S(hbond)     S(cho)   S(metal)  DE(clash)   DE(tors)     intcor
     52.36     -50.64       1.00       0.00       0.00       0.00       0.85       0.42

> <Gold.PLP.Fitness>
52.3626

> <Gold.PLP.PLP>
-50.6370

> <Gold.PLP.part.hbond>
-1.0000

> <Gold.PLP.part.metal>
0.0000

> <Gold.PLP.part.buried>
-1.4435

> <Gold.PLP.part.nonpolar>
-49.2593

> <Gold.PLP.part.repulsive>
0.5918

> <Gold.PLP.ligand.clash>
0.0000

> <Gold.PLP.ligand.torsion>
0.8463

> <Gold.PLP.Chemscore.Hbond>
1.0000

> <Gold.PLP.Chemscore.CHOScore>
0.0000

> <Gold.PLP.Chemscore.Metal>
0.0000

> <Gold.Chemscore.Hbonds>
donor molecule, donor type, donor heavy atom, donor atom, acceptor molecule, acceptor atom, score
      L1  H    13    41       P1  3187  1.00

> <Gold.PLP.Chemscore.Internal.Correction>
0.4182

