#       Name:                EN300-85007_i002
#       Creating user name   aseyller
#       Creation time:       Fri Apr 21 12:24:25 2023


#       File generated by GOLD software.
#

@<TRIPOS>MOLECULE
EN300-85007_i002|amine_3|mol2|25|dock7
    42    43     1
SMALL
USER_CHARGES


@<TRIPOS>ATOM
      1 C1          27.9093  34.7916  41.7877 C.3            1 <1>                0.0000
      2 C2          27.7186  36.0166  40.8910 C.3            1 <1>                0.0000
      3 C3          26.2456  36.1342  40.4947 C.3            1 <1>                0.0000
      4 C4          28.1448  37.2751  41.6494 C.3            1 <1>                0.0000
      5 O5          28.5313  35.8729  39.6963 O.3            1 <1>                0.0000
      6 C6          28.6353  36.9498  38.8946 C.2            1 <1>                0.0000
      7 O7          27.7222  37.7489  38.8291 O.2            1 <1>                0.0000
      8 N8          29.7521  37.1413  38.1648 N.am           1 <1>                0.0000
      9 C9          30.9155  36.2506  38.1600 C.3            1 <1>                0.0000
     10 C10         31.9116  36.8938  37.1813 C.3            1 <1>                0.0000
     11 C11         32.1980  35.9482  36.0130 C.3            1 <1>                0.0000
     12 C12         33.4662  36.4029  35.2879 C.3            1 <1>                0.0000
     13 N13         33.1023  37.0204  34.0057 N.4            1 <1>                1.0000
     14 C14         31.2117  38.1412  36.6907 C.ar           1 <1>                0.0000
     15 C15         31.6166  39.1158  35.7984 C.ar           1 <1>                0.0000
     16 C16         30.7833  40.1793  35.5068 C.ar           1 <1>                0.0000
     17 C17         29.5421  40.2663  36.1104 C.ar           1 <1>                0.0000
     18 C18         29.1343  39.2968  37.0014 C.ar           1 <1>                0.0000
     19 C19         29.9680  38.2163  37.2965 C.ar           1 <1>                0.0000
     20 H20         27.6057  33.8950  41.2473 H              1 <1>                0.0000
     21 H21         28.9588  34.7078  42.0700 H              1 <1>                0.0000
     22 H22         27.2993  34.8993  42.6845 H              1 <1>                0.0000
     23 H23         25.6355  36.2420  41.3916 H              1 <1>                0.0000
     24 H24         26.1097  37.0068  39.8558 H              1 <1>                0.0000
     25 H25         25.9420  35.2376  39.9544 H              1 <1>                0.0000
     26 H26         29.1942  37.1913  41.9317 H              1 <1>                0.0000
     27 H27         28.0091  38.1478  41.0106 H              1 <1>                0.0000
     28 H28         27.5348  37.3829  42.5463 H              1 <1>                0.0000
     29 H29         31.3506  36.1914  39.1577 H              1 <1>                0.0000
     30 H30         30.6304  35.2580  37.8115 H              1 <1>                0.0000
     31 H31         32.8370  37.1523  37.6958 H              1 <1>                0.0000
     32 H32         32.3389  34.9356  36.3913 H              1 <1>                0.0000
     33 H33         31.3574  35.9631  35.3191 H              1 <1>                0.0000
     34 H34         33.9960  37.1296  35.9038 H              1 <1>                0.0000
     35 H35         34.1097  35.5420  35.1070 H              1 <1>                0.0000
     36 H36         32.5863  39.0463  35.3283 H              1 <1>                0.0000
     37 H37         31.1009  40.9405  34.8096 H              1 <1>                0.0000
     38 H38         28.8902  41.0969  35.8833 H              1 <1>                0.0000
     39 H39         28.1641  39.3710  37.4699 H              1 <1>                0.0000
     40 H40         32.5066  37.8173  34.1732 H              1 <1>                0.0000
     41 H41         33.9387  37.3203  33.5275 H              1 <1>                0.0000
     42 H42         32.6119  36.3477  33.4355 H              1 <1>                0.0000
@<TRIPOS>BOND
    1    1    2 1     
    2    1   20 1     
    3    1   21 1     
    4    1   22 1     
    5    2    3 1     
    6    2    4 1     
    7    2    5 1     
    8    3   23 1     
    9    3   24 1     
   10    3   25 1     
   11    4   26 1     
   12    4   27 1     
   13    4   28 1     
   14    5    6 1     
   15    6    7 2     
   16    6    8 am    
   17    8    9 1     
   18    8   19 1     
   19    9   10 1     
   20    9   29 1     
   21    9   30 1     
   22   10   11 1     
   23   10   14 1     
   24   10   31 1     
   25   11   12 1     
   26   11   32 1     
   27   11   33 1     
   28   12   13 1     
   29   12   34 1     
   30   12   35 1     
   31   13   40 1     
   32   13   41 1     
   33   13   42 1     
   34   14   15 ar    
   35   14   19 ar    
   36   15   16 ar    
   37   15   36 1     
   38   16   17 ar    
   39   16   37 1     
   40   17   18 ar    
   41   17   38 1     
   42   18   19 ar    
   43   18   39 1     
@<TRIPOS>SUBSTRUCTURE
      1 ****           1
@<TRIPOS>SET
DONOR_HYDROGENS      STATIC     ATOMS    <user>   **** ""
3 40 41 42
ATOM$RED        STATIC     ATOMS    COLORGROUP SYSTEM
3 40 41 42
@<TRIPOS>COMMENT
> <Gold.Version>
2022.2.0

> <Gold.Id.Protein>
1qkm|1qkm_protein|mol2

> <Gold.Protein.RotatedTorsions>
[  496  491  490  487 ] final -102.87 input  -89.99 | X-H torsion

> <Gold.Protein.ActiveResidues>
 MET295  LEU298  THR299  LEU301  ALA302  GLU305  TRP335  MET336  LEU339  MET340 
 GLY342  LEU343  ARG346  PHE356  ILE373  ILE376  PHE377  LEU380  LYS471  GLY472 
 MET473  HIS475  LEU476  LEU477  ASN478  MET479  VAL484  VAL487 

> <Gold.Protein.RotatedAtoms>
   36.8760   34.5491   40.9387 H   0  0  0  0  0  0  0  0  0  0  0  0  # atno 496  bound_to 491 

> <Gold.Score>
     Score     S(PLP)   S(hbond)     S(cho)   S(metal)  DE(clash)   DE(tors)     intcor
     53.17     -48.67       1.99       0.00       0.00       0.00       0.95       0.42

> <Gold.PLP.Fitness>
53.1671

> <Gold.PLP.PLP>
-48.6740

> <Gold.PLP.part.hbond>
-2.0000

> <Gold.PLP.part.metal>
0.0000

> <Gold.PLP.part.buried>
2.4161

> <Gold.PLP.part.nonpolar>
-50.3325

> <Gold.PLP.part.repulsive>
0.1333

> <Gold.PLP.ligand.clash>
0.0038

> <Gold.PLP.ligand.torsion>
0.9475

> <Gold.PLP.Chemscore.Hbond>
1.9913

> <Gold.PLP.Chemscore.CHOScore>
0.0000

> <Gold.PLP.Chemscore.Metal>
0.0000

> <Gold.Chemscore.Hbonds>
donor molecule, donor type, donor heavy atom, donor atom, acceptor molecule, acceptor atom, score
      L1  H    13    41       P1  3229  0.99
      L1  H    13    42       P1  3187  1.00

> <Gold.PLP.Chemscore.Internal.Correction>
0.4182

