#       Name:                EN300-85007_i002
#       Creating user name   aseyller
#       Creation time:       Fri Apr 21 12:24:20 2023


#       File generated by GOLD software.
#

@<TRIPOS>MOLECULE
EN300-85007_i002|amine_3|mol2|25|dock3
    42    43     1
SMALL
USER_CHARGES


@<TRIPOS>ATOM
      1 C1          29.9526  38.5149  34.4873 C.3            1 <1>                0.0000
      2 C2          31.3458  38.7514  35.0739 C.3            1 <1>                0.0000
      3 C3          32.4050  38.2432  34.0937 C.3            1 <1>                0.0000
      4 C4          31.5503  40.2483  35.3149 C.3            1 <1>                0.0000
      5 O5          31.4686  38.0373  36.3323 O.3            1 <1>                0.0000
      6 C6          30.4813  38.2092  37.2316 C.2            1 <1>                0.0000
      7 O7          29.8681  39.2576  37.2677 O.2            1 <1>                0.0000
      8 N8          30.1731  37.2183  38.0916 N.am           1 <1>                0.0000
      9 C9          29.1230  37.2872  39.1113 C.3            1 <1>                0.0000
     10 C10         29.1638  35.9258  39.8245 C.3            1 <1>                0.0000
     11 C11         27.8294  35.1960  39.6580 C.3            1 <1>                0.0000
     12 C12         26.7620  35.8835  40.5118 C.3            1 <1>                0.0000
     13 N13         27.2771  36.0824  41.8730 N.4            1 <1>                1.0000
     14 C14         30.2711  35.1653  39.1303 C.ar           1 <1>                0.0000
     15 C15         30.7644  33.8914  39.3393 C.ar           1 <1>                0.0000
     16 C16         31.8010  33.4120  38.5607 C.ar           1 <1>                0.0000
     17 C17         32.3442  34.2107  37.5710 C.ar           1 <1>                0.0000
     18 C18         31.8556  35.4821  37.3593 C.ar           1 <1>                0.0000
     19 C19         30.8047  35.9713  38.1378 C.ar           1 <1>                0.0000
     20 H20         29.8070  37.4484  34.3156 H              1 <1>                0.0000
     21 H21         29.1981  38.8769  35.1856 H              1 <1>                0.0000
     22 H22         29.8604  39.0508  33.5427 H              1 <1>                0.0000
     23 H23         32.3127  38.7792  33.1491 H              1 <1>                0.0000
     24 H24         33.3974  38.4117  34.5117 H              1 <1>                0.0000
     25 H25         32.2592  37.1768  33.9220 H              1 <1>                0.0000
     26 H26         30.7957  40.6103  36.0133 H              1 <1>                0.0000
     27 H27         32.5427  40.4168  35.7330 H              1 <1>                0.0000
     28 H28         31.4580  40.7844  34.3704 H              1 <1>                0.0000
     29 H29         29.3337  38.0904  39.8174 H              1 <1>                0.0000
     30 H30         28.1507  37.4398  38.6430 H              1 <1>                0.0000
     31 H31         29.3950  36.0573  40.8815 H              1 <1>                0.0000
     32 H32         27.5292  35.2221  38.6104 H              1 <1>                0.0000
     33 H33         27.9395  34.1600  39.9787 H              1 <1>                0.0000
     34 H34         26.5125  36.8495  40.0729 H              1 <1>                0.0000
     35 H35         25.8690  35.2596  40.5488 H              1 <1>                0.0000
     36 H36         30.3392  33.2693  40.1129 H              1 <1>                0.0000
     37 H37         32.1859  32.4164  38.7251 H              1 <1>                0.0000
     38 H38         33.1541  33.8372  36.9620 H              1 <1>                0.0000
     39 H39         32.2847  36.1011  36.5853 H              1 <1>                0.0000
     40 H40         28.1837  35.6475  41.9565 H              1 <1>                0.0000
     41 H41         27.3596  37.0705  42.0603 H              1 <1>                0.0000
     42 H42         26.6419  35.6661  42.5372 H              1 <1>                0.0000
@<TRIPOS>BOND
    1    1    2 1     
    2    1   20 1     
    3    1   21 1     
    4    1   22 1     
    5    2    3 1     
    6    2    4 1     
    7    2    5 1     
    8    3   23 1     
    9    3   24 1     
   10    3   25 1     
   11    4   26 1     
   12    4   27 1     
   13    4   28 1     
   14    5    6 1     
   15    6    7 2     
   16    6    8 am    
   17    8    9 1     
   18    8   19 1     
   19    9   10 1     
   20    9   29 1     
   21    9   30 1     
   22   10   11 1     
   23   10   14 1     
   24   10   31 1     
   25   11   12 1     
   26   11   32 1     
   27   11   33 1     
   28   12   13 1     
   29   12   34 1     
   30   12   35 1     
   31   13   40 1     
   32   13   41 1     
   33   13   42 1     
   34   14   15 ar    
   35   14   19 ar    
   36   15   16 ar    
   37   15   36 1     
   38   16   17 ar    
   39   16   37 1     
   40   17   18 ar    
   41   17   38 1     
   42   18   19 ar    
   43   18   39 1     
@<TRIPOS>SUBSTRUCTURE
      1 ****           1
@<TRIPOS>SET
DONOR_HYDROGENS      STATIC     ATOMS    <user>   **** ""
3 40 41 42
ATOM$RED        STATIC     ATOMS    COLORGROUP SYSTEM
3 40 41 42
@<TRIPOS>COMMENT
> <Gold.Version>
2022.2.0

> <Gold.Id.Protein>
1qkm|1qkm_protein|mol2

> <Gold.Protein.RotatedTorsions>
[  496  491  490  487 ] final -115.30 input  -89.99 | X-H torsion

> <Gold.Protein.ActiveResidues>
 MET295  LEU298  THR299  LEU301  ALA302  GLU305  TRP335  MET336  LEU339  MET340 
 GLY342  LEU343  ARG346  PHE356  ILE373  ILE376  PHE377  LEU380  LYS471  GLY472 
 MET473  HIS475  LEU476  LEU477  ASN478  MET479  VAL484  VAL487 

> <Gold.Protein.RotatedAtoms>
   36.9864   34.4144   40.8321 H   0  0  0  0  0  0  0  0  0  0  0  0  # atno 496  bound_to 491 

> <Gold.Score>
     Score     S(PLP)   S(hbond)     S(cho)   S(metal)  DE(clash)   DE(tors)     intcor
     60.78     -55.39       2.00       0.00       0.00       0.00       0.53       0.46

> <Gold.PLP.Fitness>
60.7833

> <Gold.PLP.PLP>
-55.3923

> <Gold.PLP.part.hbond>
-1.0000

> <Gold.PLP.part.metal>
0.0000

> <Gold.PLP.part.buried>
-4.6129

> <Gold.PLP.part.nonpolar>
-50.3072

> <Gold.PLP.part.repulsive>
0.0471

> <Gold.PLP.ligand.clash>
0.0000

> <Gold.PLP.ligand.torsion>
0.5334

> <Gold.PLP.Chemscore.Hbond>
2.0000

> <Gold.PLP.Chemscore.CHOScore>
0.0000

> <Gold.PLP.Chemscore.Metal>
0.0000

> <Gold.Chemscore.Hbonds>
donor molecule, donor type, donor heavy atom, donor atom, acceptor molecule, acceptor atom, score
      L1  H    13    42       P1   582  2.00

> <Gold.PLP.Chemscore.Internal.Correction>
0.4579

