#       Name:                plp ligand
#       Creating user name   aseyller
#       Creation time:       Fri Apr 21 12:24:17 2023


#       File generated by GOLD software.
#

@<TRIPOS>MOLECULE
plp ligand
    42    43     1
SMALL
USER_CHARGES


@<TRIPOS>ATOM
      1 C1          -4.3655   0.5806  -1.1213 NONPOLAR       1 <1>                0.0000
      2 C2          -3.8163  -0.0052   0.1811 NONPOLAR       1 <1>                0.0000
      3 C3          -3.9889   1.0122   1.3107 NONPOLAR       1 <1>                0.0000
      4 C4          -4.5799  -1.2852   0.5265 NONPOLAR       1 <1>                0.0000
      5 O5          -2.4065  -0.3119   0.0172 ACCEPTOR       1 <1>                0.0000
      6 C6          -1.5897   0.7132  -0.2912 NONPOLAR       1 <1>                0.0000
      7 O7          -2.0426   1.8334  -0.4198 ACCEPTOR       1 <1>                0.0000
      8 N8          -0.2698   0.4968  -0.4571 NONPOLAR       1 <1>                0.0000
      9 C9           0.7150   1.5286  -0.7927 NONPOLAR       1 <1>                0.0000
     10 C10          2.0616   0.7907  -0.8697 NONPOLAR       1 <1>                0.0000
     11 C11          3.0346   1.3457   0.1725 NONPOLAR       1 <1>                0.0000
     12 C12          4.4032   0.6851  -0.0047 NONPOLAR       1 <1>                0.0000
     13 N13          5.3373   1.2180   0.9960 DONOR          1 <1>                1.0000
     14 C14          1.7241  -0.6507  -0.5613 NONPOLAR       1 <1>                0.0000
     15 C15          2.5269  -1.7730  -0.4859 NONPOLAR       1 <1>                0.0000
     16 C16          1.9740  -3.0028  -0.1819 NONPOLAR       1 <1>                0.0000
     17 C17          0.6142  -3.1080   0.0470 NONPOLAR       1 <1>                0.0000
     18 C18         -0.1904  -1.9913  -0.0276 NONPOLAR       1 <1>                0.0000
     19 C19          0.3616  -0.7445  -0.3283 NONPOLAR       1 <1>                0.0000
     20 H20         -3.8214   1.4925  -1.3673                1 <1>                0.0000
     21 H21         -4.2425  -0.1442  -1.9260                1 <1>                0.0000
     22 H22         -5.4237   0.8109  -0.9983                1 <1>                0.0000
     23 H23         -5.0472   1.2425   1.4337                1 <1>                0.0000
     24 H24         -3.5976   0.5949   2.2385                1 <1>                0.0000
     25 H25         -3.4449   1.9241   1.0646                1 <1>                0.0000
     26 H26         -4.4569  -2.0100  -0.2782                1 <1>                0.0000
     27 H27         -4.1886  -1.7026   1.4543                1 <1>                0.0000
     28 H28         -5.6382  -1.0550   0.6495                1 <1>                0.0000
     29 H29          0.4760   1.9806  -1.7554                1 <1>                0.0000
     30 H30          0.7452   2.2902  -0.0136                1 <1>                0.0000
     31 H31          2.4863   0.8781  -1.8697                1 <1>                0.0000
     32 H32          3.1316   2.4235   0.0414                1 <1>                0.0000
     33 H33          2.6556   1.1340   1.1724                1 <1>                0.0000
     34 H34          4.3061  -0.3926   0.1265                1 <1>                0.0000
     35 H35          4.7821   0.8968  -1.0045                1 <1>                0.0000
     36 H36          3.5885  -1.6890  -0.6653                1 <1>                0.0000
     37 H37          2.6023  -3.8793  -0.1236                1 <1>                0.0000
     38 H38          0.1811  -4.0684   0.2846                1 <1>                0.0000
     39 H39         -1.2517  -2.0803   0.1515                1 <1>                0.0000
     40 H40          4.9866   1.0220   1.9215                1 <1>                0.0000
     41 H41          6.2399   0.7823   0.8791                1 <1>                0.0000
     42 H42          5.4272   2.2156   0.8746                1 <1>                0.0000
@<TRIPOS>BOND
    1    1    2 1     
    2    1   20 1     
    3    1   21 1     
    4    1   22 1     
    5    2    3 1     
    6    2    4 1     
    7    2    5 1     
    8    3   23 1     
    9    3   24 1     
   10    3   25 1     
   11    4   26 1     
   12    4   27 1     
   13    4   28 1     
   14    5    6 1     
   15    6    7 2     
   16    6    8 am    
   17    8    9 1     
   18    8   19 1     
   19    9   10 1     
   20    9   29 1     
   21    9   30 1     
   22   10   11 1     
   23   10   14 1     
   24   10   31 1     
   25   11   12 1     
   26   11   32 1     
   27   11   33 1     
   28   12   13 1     
   29   12   34 1     
   30   12   35 1     
   31   13   40 1     
   32   13   41 1     
   33   13   42 1     
   34   14   15 ar    
   35   14   19 ar    
   36   15   16 ar    
   37   15   36 1     
   38   16   17 ar    
   39   16   37 1     
   40   17   18 ar    
   41   17   38 1     
   42   18   19 ar    
   43   18   39 1     
@<TRIPOS>SUBSTRUCTURE
      1 ****           1
@<TRIPOS>SET
DONOR_HYDROGENS      STATIC     ATOMS    <user>   **** ""
3 40 41 42
ATOM$RED        STATIC     ATOMS    COLORGROUP SYSTEM
3 40 41 42
