#       Name:                EN300-27699_i001
#       Creating user name   fsindt
#       Creation time:       Mon Feb 27 17:10:20 2023


#       File generated by GOLD software.
#

@<TRIPOS>MOLECULE
EN300-27699_i001|amine_1|mol2|11|dock10
    32    33     1
SMALL
USER_CHARGES


@<TRIPOS>ATOM
      1 C1          -1.0471 -21.5795  15.2243 C.3            1 <1>                0.0000
      2 O2          -0.2178 -20.3903  15.1446 O.3            1 <1>                0.0000
      3 C3          -0.5004 -19.5122  14.1630 C.2            1 <1>                0.0000
      4 O4          -1.4280 -19.7233  13.4078 O.2            1 <1>                0.0000
      5 C5           0.3180 -18.2923  14.0049 C.ar           1 <1>                0.0000
      6 C6           1.5619 -18.1972  14.6341 C.ar           1 <1>                0.0000
      7 C7           2.3288 -17.0581  14.4874 C.ar           1 <1>                0.0000
      8 C8           1.8736 -16.0058  13.7190 C.ar           1 <1>                0.0000
      9 C9           0.6304 -16.0864  13.0836 C.ar           1 <1>                0.0000
     10 C10          0.1592 -14.9939  12.2867 C.1            1 <1>                0.0000
     11 C11         -0.2272 -14.0982  11.6335 C.1            1 <1>                0.0000
     12 C12         -0.6984 -13.0056  10.8366 C.ar           1 <1>                0.0000
     13 C13         -1.8492 -12.3081  11.2132 C.ar           1 <1>                0.0000
     14 C14         -2.3008 -11.2558  10.4432 C.ar           1 <1>                0.0000
     15 C15         -1.6190 -10.8880   9.2985 C.ar           1 <1>                0.0000
     16 C16         -0.4729 -11.5755   8.9142 C.ar           1 <1>                0.0000
     17 N17          0.2121 -11.1991   7.7563 N.pl3          1 <1>                0.0000
     18 C18         -0.0064 -12.6297   9.6835 C.ar           1 <1>                0.0000
     19 C19         -0.1465 -17.2362  13.2230 C.ar           1 <1>                0.0000
     20 H20         -0.9646 -22.1428  14.2947 H              1 <1>                0.0000
     21 H21         -0.7135 -22.2001  16.0560 H              1 <1>                0.0000
     22 H22         -2.0856 -21.2883  15.3817 H              1 <1>                0.0000
     23 H23          1.9243 -19.0166  15.2371 H              1 <1>                0.0000
     24 H24          3.2893 -16.9903  14.9764 H              1 <1>                0.0000
     25 H25          2.4786 -15.1180  13.6086 H              1 <1>                0.0000
     26 H26         -2.3854 -12.5927  12.1065 H              1 <1>                0.0000
     27 H27         -3.1904 -10.7180  10.7358 H              1 <1>                0.0000
     28 H28         -1.9779 -10.0637   8.7000 H              1 <1>                0.0000
     29 H29          0.8837 -13.1647   9.3869 H              1 <1>                0.0000
     30 H30         -1.1072 -17.3045  12.7344 H              1 <1>                0.0000
     31 H31         -0.1119 -10.4583   7.2204 H              1 <1>                0.0000
     32 H32          1.0115 -11.6786   7.4882 H              1 <1>                0.0000
@<TRIPOS>BOND
    1    1    2 1     
    2    1   20 1     
    3    1   21 1     
    4    1   22 1     
    5    2    3 1     
    6    3    4 2     
    7    3    5 1     
    8    5    6 ar    
    9    5   19 ar    
   10    6    7 ar    
   11    6   23 1     
   12    7    8 ar    
   13    7   24 1     
   14    8    9 ar    
   15    8   25 1     
   16    9   10 1     
   17    9   19 ar    
   18   10   11 3     
   19   11   12 1     
   20   12   13 ar    
   21   12   18 ar    
   22   13   14 ar    
   23   13   26 1     
   24   14   15 ar    
   25   14   27 1     
   26   15   16 ar    
   27   15   28 1     
   28   16   17 1     
   29   16   18 ar    
   30   17   31 1     
   31   17   32 1     
   32   18   29 1     
   33   19   30 1     
@<TRIPOS>SUBSTRUCTURE
      1 ****           1
@<TRIPOS>SET
DONOR_HYDROGENS      STATIC     ATOMS    <user>   **** ""
2 31 32
ATOM$RED        STATIC     ATOMS    COLORGROUP SYSTEM
2 31 32
@<TRIPOS>COMMENT
> <Gold.Version>
2022.2.0

> <Gold.Id.Protein>
3pbl|protein|mol2

> <Gold.Protein.RotatedTorsions>
[ 1303 1298 1297 1294 ] final -165.24 input  179.99 | X-H torsion
[ 2461 2456 2455 2452 ] final   73.87 input   30.03 | X-H torsion
[ 2515 2510 2509 2506 ] final   65.03 input  -89.99 | X-H torsion
[ 3721 3712 3711 3710 ] final   36.46 input -179.91 | X-H torsion
[ 3841 3832 3831 3830 ] final -118.76 input -179.91 | X-H torsion
[ 3767 3762 3761 3758 ] final  177.64 input  -89.99 | X-H torsion
[ 2472 2467 2466 2463 ] final   79.41 input  -89.97 | X-H torsion

> <Gold.Protein.ActiveResidues>
 VAL82   VAL86   LEU89   PHE106  VAL107  ASP110  VAL111  MET112  CYS114  THR115 
 CYS181  SER182  ILE183  PHE188  VAL189  ILE190  SER192  SER193  SER196  TRP342 
 PHE345  PHE346  HIS349  VAL350  TYR365  THR369  GLY372  TYR373 

> <Gold.Protein.RotatedAtoms>
    4.7558   -8.7010    4.5445 H   0  0  0  0  0  0  0  0  0  0  0  0  # atno 1303 bound_to 1298
    2.0462   -8.1389    7.5321 H   0  0  0  0  0  0  0  0  0  0  0  0  # atno 2461 bound_to 2456
   -4.9498   -4.8758    7.7210 H   0  0  0  0  0  0  0  0  0  0  0  0  # atno 2472 bound_to 2467
    2.1259   -7.4927    5.5221 H   0  0  0  0  0  0  0  0  0  0  0  0  # atno 2515 bound_to 2510
   -2.4970  -18.0225   13.7045 H   0  0  0  0  0  0  0  0  0  0  0  0  # atno 3721 bound_to 3712
   -4.0739  -22.5617   11.5510 H   0  0  0  0  0  0  0  0  0  0  0  0  # atno 3767 bound_to 3762
    2.2070  -19.5907    8.4650 H   0  0  0  0  0  0  0  0  0  0  0  0  # atno 3841 bound_to 3832
    4.2115  -10.2258    4.7574 LP  0  0  0  0  0  0  0  0  0  0  0  0  # atno 4297 bound_to 1298
    3.3946   -9.1948    3.7896 LP  0  0  0  0  0  0  0  0  0  0  0  0  # atno 4298 bound_to 1298
    0.4609   -8.3968    7.2363 LP  0  0  0  0  0  0  0  0  0  0  0  0  # atno 4299 bound_to 2456
    1.2309   -9.2723    8.3796 LP  0  0  0  0  0  0  0  0  0  0  0  0  # atno 4300 bound_to 2456
    2.8129   -8.4196    4.3669 LP  0  0  0  0  0  0  0  0  0  0  0  0  # atno 4301 bound_to 2510
    2.3581   -9.0872    5.7861 LP  0  0  0  0  0  0  0  0  0  0  0  0  # atno 4302 bound_to 2510
   -3.1799  -17.0849   14.8146 LP  0  0  0  0  0  0  0  0  0  0  0  0  # atno 4306 bound_to 3712
   -3.4649  -16.8341   13.2264 LP  0  0  0  0  0  0  0  0  0  0  0  0  # atno 4307 bound_to 3712
    3.0695  -20.9035    8.7947 LP  0  0  0  0  0  0  0  0  0  0  0  0  # atno 4314 bound_to 3832
    1.6105  -20.6717    9.4906 LP  0  0  0  0  0  0  0  0  0  0  0  0  # atno 4315 bound_to 3832
   -4.6021  -23.2696   10.1774 LP  0  0  0  0  0  0  0  0  0  0  0  0  # atno 4318 bound_to 3762
   -5.4512  -22.0437   10.8429 LP  0  0  0  0  0  0  0  0  0  0  0  0  # atno 4319 bound_to 3762
   -3.6402   -5.0750    8.6758 LP  0  0  0  0  0  0  0  0  0  0  0  0  # atno 4320 bound_to 2467
   -5.1270   -5.4427    9.2421 LP  0  0  0  0  0  0  0  0  0  0  0  0  # atno 4321 bound_to 2467

> <Gold.Score>
     Score     S(PLP)   S(hbond)     S(cho)   S(metal)  DE(clash)   DE(tors)     intcor
     56.77     -53.99       1.00       0.00       0.00       0.00       0.11       0.00

> <Gold.PLP.Fitness>
56.7689

> <Gold.PLP.PLP>
-53.9905

> <Gold.PLP.part.hbond>
-2.0000

> <Gold.PLP.part.metal>
0.0000

> <Gold.PLP.part.buried>
-4.4515

> <Gold.PLP.part.nonpolar>
-48.5205

> <Gold.PLP.part.repulsive>
0.0241

> <Gold.PLP.ligand.clash>
0.0000

> <Gold.PLP.ligand.torsion>
0.1108

> <Gold.PLP.Chemscore.Hbond>
1.0000

> <Gold.PLP.Chemscore.CHOScore>
0.0000

> <Gold.PLP.Chemscore.Metal>
0.0000

> <Gold.Chemscore.Hbonds>
donor molecule, donor type, donor heavy atom, donor atom, acceptor molecule, acceptor atom, score
      P1  H  3712  3721       L1     4  1.00

> <Gold.PLP.Chemscore.Internal.Correction>
0.0000

