#       Name:                EN300-27699_i001
#       Creating user name   fsindt
#       Creation time:       Mon Feb 27 17:10:16 2023


#       File generated by GOLD software.
#

@<TRIPOS>MOLECULE
EN300-27699_i001|amine_1|mol2|11|dock5
    32    33     1
SMALL
USER_CHARGES


@<TRIPOS>ATOM
      1 C1          -0.7413 -20.4648  15.7969 C.3            1 <1>                0.0000
      2 O2           0.0663 -19.5834  14.9727 O.3            1 <1>                0.0000
      3 C3          -0.3407 -18.3038  14.8649 C.2            1 <1>                0.0000
      4 O4          -1.3216 -17.9251  15.4730 O.2            1 <1>                0.0000
      5 C5           0.4063 -17.3609  14.0070 C.ar           1 <1>                0.0000
      6 C6           1.7618 -17.5756  13.7454 C.ar           1 <1>                0.0000
      7 C7           2.4619 -16.6959  12.9434 C.ar           1 <1>                0.0000
      8 C8           1.8291 -15.5990  12.3943 C.ar           1 <1>                0.0000
      9 C9           0.4728 -15.3710  12.6476 C.ar           1 <1>                0.0000
     10 C10         -0.1825 -14.2325  12.0773 C.1            1 <1>                0.0000
     11 C11         -0.7198 -13.2992  11.6098 C.1            1 <1>                0.0000
     12 C12         -1.3751 -12.1608  11.0396 C.ar           1 <1>                0.0000
     13 C13         -0.6957 -10.9451  10.9245 C.ar           1 <1>                0.0000
     14 C14         -1.3300  -9.8498  10.3747 C.ar           1 <1>                0.0000
     15 C15         -2.6371  -9.9497   9.9366 C.ar           1 <1>                0.0000
     16 C16         -3.3228 -11.1546  10.0467 C.ar           1 <1>                0.0000
     17 N17         -4.6438 -11.2495   9.6022 N.pl3          1 <1>                0.0000
     18 C18         -2.6936 -12.2629  10.5912 C.ar           1 <1>                0.0000
     19 C19         -0.2413 -16.2586  13.4520 C.ar           1 <1>                0.0000
     20 H20         -1.7534 -20.5122  15.3946 H              1 <1>                0.0000
     21 H21         -0.3038 -21.4631  15.7982 H              1 <1>                0.0000
     22 H22         -0.7733 -20.0806  16.8165 H              1 <1>                0.0000
     23 H23          2.2636 -18.4316  14.1720 H              1 <1>                0.0000
     24 H24          3.5096 -16.8669  12.7451 H              1 <1>                0.0000
     25 H25          2.3828 -14.9152  11.7680 H              1 <1>                0.0000
     26 H26          0.3256 -10.8626  11.2663 H              1 <1>                0.0000
     27 H27         -0.8032  -8.9112  10.2867 H              1 <1>                0.0000
     28 H28         -3.1279  -9.0887   9.5076 H              1 <1>                0.0000
     29 H29         -3.2244 -13.1996  10.6773 H              1 <1>                0.0000
     30 H30         -1.2890 -16.0880  13.6509 H              1 <1>                0.0000
     31 H31         -5.0826 -10.4750   9.2169 H              1 <1>                0.0000
     32 H32         -5.1221 -12.0898   9.6789 H              1 <1>                0.0000
@<TRIPOS>BOND
    1    1    2 1     
    2    1   20 1     
    3    1   21 1     
    4    1   22 1     
    5    2    3 1     
    6    3    4 2     
    7    3    5 1     
    8    5    6 ar    
    9    5   19 ar    
   10    6    7 ar    
   11    6   23 1     
   12    7    8 ar    
   13    7   24 1     
   14    8    9 ar    
   15    8   25 1     
   16    9   10 1     
   17    9   19 ar    
   18   10   11 3     
   19   11   12 1     
   20   12   13 ar    
   21   12   18 ar    
   22   13   14 ar    
   23   13   26 1     
   24   14   15 ar    
   25   14   27 1     
   26   15   16 ar    
   27   15   28 1     
   28   16   17 1     
   29   16   18 ar    
   30   17   31 1     
   31   17   32 1     
   32   18   29 1     
   33   19   30 1     
@<TRIPOS>SUBSTRUCTURE
      1 ****           1
@<TRIPOS>SET
DONOR_HYDROGENS      STATIC     ATOMS    <user>   **** ""
2 31 32
ATOM$RED        STATIC     ATOMS    COLORGROUP SYSTEM
2 31 32
@<TRIPOS>COMMENT
> <Gold.Version>
2022.2.0

> <Gold.Id.Protein>
3pbl|protein|mol2

> <Gold.Protein.RotatedTorsions>
[ 1303 1298 1297 1294 ] final  112.73 input  179.99 | X-H torsion
[ 2461 2456 2455 2452 ] final -144.89 input   30.03 | X-H torsion
[ 2515 2510 2509 2506 ] final  124.50 input  -89.99 | X-H torsion
[ 3721 3712 3711 3710 ] final  -15.69 input -179.91 | X-H torsion
[ 3841 3832 3831 3830 ] final  130.59 input -179.91 | X-H torsion
[ 3767 3762 3761 3758 ] final  157.31 input  -89.99 | X-H torsion
[ 2472 2467 2466 2463 ] final   78.13 input  -89.97 | X-H torsion

> <Gold.Protein.ActiveResidues>
 VAL82   VAL86   LEU89   PHE106  VAL107  ASP110  VAL111  MET112  CYS114  THR115 
 CYS181  SER182  ILE183  PHE188  VAL189  ILE190  SER192  SER193  SER196  TRP342 
 PHE345  PHE346  HIS349  VAL350  TYR365  THR369  GLY372  TYR373 

> <Gold.Protein.RotatedAtoms>
    4.6756   -9.8697    4.9423 H   0  0  0  0  0  0  0  0  0  0  0  0  # atno 1303 bound_to 1298
    0.9003   -9.2809    8.2729 H   0  0  0  0  0  0  0  0  0  0  0  0  # atno 2461 bound_to 2456
   -4.9306   -4.8711    7.7140 H   0  0  0  0  0  0  0  0  0  0  0  0  # atno 2472 bound_to 2467
    2.0506   -8.2380    6.0815 H   0  0  0  0  0  0  0  0  0  0  0  0  # atno 2515 bound_to 2510
   -2.5351  -17.8415   14.4432 H   0  0  0  0  0  0  0  0  0  0  0  0  # atno 3721 bound_to 3712
   -3.9430  -22.8117   11.3742 H   0  0  0  0  0  0  0  0  0  0  0  0  # atno 3767 bound_to 3762
    3.1205  -20.6224    8.8232 H   0  0  0  0  0  0  0  0  0  0  0  0  # atno 3841 bound_to 3832
    3.3549   -9.7742    3.9869 LP  0  0  0  0  0  0  0  0  0  0  0  0  # atno 4297 bound_to 1298
    4.3314   -8.4772    4.1622 LP  0  0  0  0  0  0  0  0  0  0  0  0  # atno 4298 bound_to 1298
    2.1527   -8.3537    7.7838 LP  0  0  0  0  0  0  0  0  0  0  0  0  # atno 4299 bound_to 2456
    0.6847   -8.1738    7.0916 LP  0  0  0  0  0  0  0  0  0  0  0  0  # atno 4300 bound_to 2456
    2.5100   -7.5840    4.6578 LP  0  0  0  0  0  0  0  0  0  0  0  0  # atno 4301 bound_to 2510
    2.7364   -9.1772    4.9355 LP  0  0  0  0  0  0  0  0  0  0  0  0  # atno 4302 bound_to 2510
   -3.5162  -16.5898   14.2228 LP  0  0  0  0  0  0  0  0  0  0  0  0  # atno 4306 bound_to 3712
   -3.0846  -17.5382   12.9654 LP  0  0  0  0  0  0  0  0  0  0  0  0  # atno 4307 bound_to 3712
    1.6789  -20.7490    9.5174 LP  0  0  0  0  0  0  0  0  0  0  0  0  # atno 4314 bound_to 3832
    1.9458  -19.6344    8.3542 LP  0  0  0  0  0  0  0  0  0  0  0  0  # atno 4315 bound_to 3832
   -4.8850  -23.1254   10.0776 LP  0  0  0  0  0  0  0  0  0  0  0  0  # atno 4318 bound_to 3762
   -5.2990  -21.9380   11.1194 LP  0  0  0  0  0  0  0  0  0  0  0  0  # atno 4319 bound_to 3762
   -3.6427   -5.0823    8.6954 LP  0  0  0  0  0  0  0  0  0  0  0  0  # atno 4320 bound_to 2467
   -5.1437   -5.4400    9.2297 LP  0  0  0  0  0  0  0  0  0  0  0  0  # atno 4321 bound_to 2467

> <Gold.Score>
     Score     S(PLP)   S(hbond)     S(cho)   S(metal)  DE(clash)   DE(tors)     intcor
     61.85     -59.46       0.99       0.00       0.00       0.00       0.29       0.00

> <Gold.PLP.Fitness>
61.8544

> <Gold.PLP.PLP>
-59.4635

> <Gold.PLP.part.hbond>
-0.8900

> <Gold.PLP.part.metal>
0.0000

> <Gold.PLP.part.buried>
-6.5175

> <Gold.PLP.part.nonpolar>
-54.0507

> <Gold.PLP.part.repulsive>
0.1389

> <Gold.PLP.ligand.clash>
0.0000

> <Gold.PLP.ligand.torsion>
0.2914

> <Gold.PLP.Chemscore.Hbond>
0.9913

> <Gold.PLP.Chemscore.CHOScore>
0.0000

> <Gold.PLP.Chemscore.Metal>
0.0000

> <Gold.Chemscore.Hbonds>
donor molecule, donor type, donor heavy atom, donor atom, acceptor molecule, acceptor atom, score
      P1  H  3712  3721       L1     4  0.99

> <Gold.PLP.Chemscore.Internal.Correction>
0.0000

