#       Name:                EN300-27699_i001
#       Creating user name   fsindt
#       Creation time:       Mon Feb 27 17:10:20 2023


#       File generated by GOLD software.
#

@<TRIPOS>MOLECULE
EN300-27699_i001|amine_1|mol2|11|dock9
    32    33     1
SMALL
USER_CHARGES


@<TRIPOS>ATOM
      1 C1          -0.9286 -20.4391  17.1447 C.3            1 <1>                0.0000
      2 O2          -0.0195 -19.7810  16.2234 O.3            1 <1>                0.0000
      3 C3          -0.4653 -18.6635  15.6177 C.2            1 <1>                0.0000
      4 O4          -1.6002 -18.2777  15.8143 O.2            1 <1>                0.0000
      5 C5           0.4262 -17.9070  14.7144 C.ar           1 <1>                0.0000
      6 C6           1.7847 -18.2253  14.6434 C.ar           1 <1>                0.0000
      7 C7           2.6198 -17.5199  13.7995 C.ar           1 <1>                0.0000
      8 C8           2.1199 -16.4962  13.0202 C.ar           1 <1>                0.0000
      9 C9           0.7624 -16.1660  13.0810 C.ar           1 <1>                0.0000
     10 C10          0.2450 -15.1036  12.2721 C.1            1 <1>                0.0000
     11 C11         -0.1792 -14.2326  11.6090 C.1            1 <1>                0.0000
     12 C12         -0.6966 -13.1703  10.8000 C.ar           1 <1>                0.0000
     13 C13         -0.3133 -13.0579   9.4609 C.ar           1 <1>                0.0000
     14 C14         -0.8136 -12.0330   8.6840 C.ar           1 <1>                0.0000
     15 C15         -1.6935 -11.1148   9.2255 C.ar           1 <1>                0.0000
     16 C16         -2.0813 -11.2170  10.5570 C.ar           1 <1>                0.0000
     17 N17         -2.9709 -10.2860  11.0987 N.pl3          1 <1>                0.0000
     18 C18         -1.5904 -12.2461  11.3449 C.ar           1 <1>                0.0000
     19 C19         -0.0874 -16.8781  13.9270 C.ar           1 <1>                0.0000
     20 H20         -1.8333 -20.7349  16.6133 H              1 <1>                0.0000
     21 H21         -0.4466 -21.3234  17.5615 H              1 <1>                0.0000
     22 H22         -1.1887 -19.7529  17.9507 H              1 <1>                0.0000
     23 H23          2.1829 -19.0248  15.2505 H              1 <1>                0.0000
     24 H24          3.6691 -17.7703  13.7492 H              1 <1>                0.0000
     25 H25          2.7788 -15.9487  12.3624 H              1 <1>                0.0000
     26 H26          0.3746 -13.7728   9.0341 H              1 <1>                0.0000
     27 H27         -0.5161 -11.9478   7.6493 H              1 <1>                0.0000
     28 H28         -2.0811 -10.3148   8.6122 H              1 <1>                0.0000
     29 H29         -1.8906 -12.3273  12.3792 H              1 <1>                0.0000
     30 H30         -1.1368 -16.6280  13.9779 H              1 <1>                0.0000
     31 H31         -3.3181  -9.5685  10.5460 H              1 <1>                0.0000
     32 H32         -3.2415 -10.3572  12.0275 H              1 <1>                0.0000
@<TRIPOS>BOND
    1    1    2 1     
    2    1   20 1     
    3    1   21 1     
    4    1   22 1     
    5    2    3 1     
    6    3    4 2     
    7    3    5 1     
    8    5    6 ar    
    9    5   19 ar    
   10    6    7 ar    
   11    6   23 1     
   12    7    8 ar    
   13    7   24 1     
   14    8    9 ar    
   15    8   25 1     
   16    9   10 1     
   17    9   19 ar    
   18   10   11 3     
   19   11   12 1     
   20   12   13 ar    
   21   12   18 ar    
   22   13   14 ar    
   23   13   26 1     
   24   14   15 ar    
   25   14   27 1     
   26   15   16 ar    
   27   15   28 1     
   28   16   17 1     
   29   16   18 ar    
   30   17   31 1     
   31   17   32 1     
   32   18   29 1     
   33   19   30 1     
@<TRIPOS>SUBSTRUCTURE
      1 ****           1
@<TRIPOS>SET
DONOR_HYDROGENS      STATIC     ATOMS    <user>   **** ""
2 31 32
ATOM$RED        STATIC     ATOMS    COLORGROUP SYSTEM
2 31 32
@<TRIPOS>COMMENT
> <Gold.Version>
2022.2.0

> <Gold.Id.Protein>
3pbl|protein|mol2

> <Gold.Protein.RotatedTorsions>
[ 1303 1298 1297 1294 ] final -103.31 input  179.99 | X-H torsion
[ 2461 2456 2455 2452 ] final  -77.39 input   30.03 | X-H torsion
[ 2515 2510 2509 2506 ] final  -34.32 input  -89.99 | X-H torsion
[ 3721 3712 3711 3710 ] final  -32.16 input -179.91 | X-H torsion
[ 3841 3832 3831 3830 ] final   64.91 input -179.91 | X-H torsion
[ 3767 3762 3761 3758 ] final  133.89 input  -89.99 | X-H torsion
[ 2472 2467 2466 2463 ] final -153.19 input  -89.97 | X-H torsion

> <Gold.Protein.ActiveResidues>
 VAL82   VAL86   LEU89   PHE106  VAL107  ASP110  VAL111  MET112  CYS114  THR115 
 CYS181  SER182  ILE183  PHE188  VAL189  ILE190  SER192  SER193  SER196  TRP342 
 PHE345  PHE346  HIS349  VAL350  TYR365  THR369  GLY372  TYR373 

> <Gold.Protein.RotatedAtoms>
    4.0034   -8.5320    3.9561 H   0  0  0  0  0  0  0  0  0  0  0  0  # atno 1303 bound_to 1298
    0.3304   -8.7663    7.5599 H   0  0  0  0  0  0  0  0  0  0  0  0  # atno 2461 bound_to 2456
   -5.0250   -5.4557    9.3071 H   0  0  0  0  0  0  0  0  0  0  0  0  # atno 2472 bound_to 2467
    2.7411   -8.0894    4.3687 H   0  0  0  0  0  0  0  0  0  0  0  0  # atno 2515 bound_to 2510
   -2.6151  -17.6758   14.6098 H   0  0  0  0  0  0  0  0  0  0  0  0  # atno 3721 bound_to 3712
   -3.9111  -23.0688   11.0925 H   0  0  0  0  0  0  0  0  0  0  0  0  # atno 3767 bound_to 3762
    2.5368  -20.9526    9.4802 H   0  0  0  0  0  0  0  0  0  0  0  0  # atno 3841 bound_to 3832
    4.8571   -9.5233    4.9334 LP  0  0  0  0  0  0  0  0  0  0  0  0  # atno 4297 bound_to 1298
    3.5017  -10.0663    4.2022 LP  0  0  0  0  0  0  0  0  0  0  0  0  # atno 4298 bound_to 1298
    1.7081   -9.0978    8.3719 LP  0  0  0  0  0  0  0  0  0  0  0  0  # atno 4299 bound_to 2456
    1.6990   -7.9441    7.2163 LP  0  0  0  0  0  0  0  0  0  0  0  0  # atno 4300 bound_to 2456
    2.5028   -9.2275    5.5149 LP  0  0  0  0  0  0  0  0  0  0  0  0  # atno 4301 bound_to 2510
    2.0527   -7.6824    5.7921 LP  0  0  0  0  0  0  0  0  0  0  0  0  # atno 4302 bound_to 2510
   -3.5599  -16.5554   13.9541 LP  0  0  0  0  0  0  0  0  0  0  0  0  # atno 4306 bound_to 3712
   -2.9486  -17.7639   13.0417 LP  0  0  0  0  0  0  0  0  0  0  0  0  # atno 4307 bound_to 3712
    1.4300  -19.9262    8.9348 LP  0  0  0  0  0  0  0  0  0  0  0  0  # atno 4314 bound_to 3832
    2.8690  -20.0757    8.1777 LP  0  0  0  0  0  0  0  0  0  0  0  0  # atno 4315 bound_to 3832
   -5.1816  -22.8836   10.0833 LP  0  0  0  0  0  0  0  0  0  0  0  0  # atno 4318 bound_to 3762
   -5.0344  -21.9228   11.3954 LP  0  0  0  0  0  0  0  0  0  0  0  0  # atno 4319 bound_to 3762
   -5.0573   -4.9046    7.7703 LP  0  0  0  0  0  0  0  0  0  0  0  0  # atno 4320 bound_to 2467
   -3.6348   -5.0333    8.5619 LP  0  0  0  0  0  0  0  0  0  0  0  0  # atno 4321 bound_to 2467

> <Gold.Score>
     Score     S(PLP)   S(hbond)     S(cho)   S(metal)  DE(clash)   DE(tors)     intcor
     59.29     -56.40       1.00       0.00       0.00       0.00       0.05       0.00

> <Gold.PLP.Fitness>
59.2927

> <Gold.PLP.PLP>
-56.3952

> <Gold.PLP.part.hbond>
-1.0000

> <Gold.PLP.part.metal>
0.0000

> <Gold.PLP.part.buried>
-5.1979

> <Gold.PLP.part.nonpolar>
-51.0358

> <Gold.PLP.part.repulsive>
0.1273

> <Gold.PLP.ligand.clash>
0.0000

> <Gold.PLP.ligand.torsion>
0.0512

> <Gold.PLP.Chemscore.Hbond>
1.0000

> <Gold.PLP.Chemscore.CHOScore>
0.0000

> <Gold.PLP.Chemscore.Metal>
0.0000

> <Gold.Chemscore.Hbonds>
donor molecule, donor type, donor heavy atom, donor atom, acceptor molecule, acceptor atom, score
      P1  H  3712  3721       L1     4  1.00

> <Gold.PLP.Chemscore.Internal.Correction>
0.0000

