#       Name:                EN300-27699_i001
#       Creating user name   fsindt
#       Creation time:       Mon Feb 27 17:10:14 2023


#       File generated by GOLD software.
#

@<TRIPOS>MOLECULE
EN300-27699_i001|amine_1|mol2|11|dock3
    32    33     1
SMALL
USER_CHARGES


@<TRIPOS>ATOM
      1 C1          -0.4057 -22.2253  12.1405 C.3            1 <1>                0.0000
      2 O2          -0.1187 -20.9685  12.8087 O.3            1 <1>                0.0000
      3 C3           0.0970 -19.8944  12.0248 C.2            1 <1>                0.0000
      4 O4           0.0613 -20.0078  10.8160 O.2            1 <1>                0.0000
      5 C5           0.3767 -18.5785  12.6355 C.ar           1 <1>                0.0000
      6 C6           1.0126 -18.5039  13.8773 C.ar           1 <1>                0.0000
      7 C7           1.2755 -17.2749  14.4498 C.ar           1 <1>                0.0000
      8 C8           0.9130 -16.1119  13.8008 C.ar           1 <1>                0.0000
      9 C9           0.2755 -16.1710  12.5575 C.ar           1 <1>                0.0000
     10 C10         -0.1003 -14.9637  11.8853 C.1            1 <1>                0.0000
     11 C11         -0.4083 -13.9740  11.3341 C.1            1 <1>                0.0000
     12 C12         -0.7841 -12.7667  10.6618 C.ar           1 <1>                0.0000
     13 C13         -1.8314 -11.9852  11.1568 C.ar           1 <1>                0.0000
     14 C14         -2.1912 -10.8223  10.5067 C.ar           1 <1>                0.0000
     15 C15         -1.5193 -10.4264   9.3655 C.ar           1 <1>                0.0000
     16 C16         -0.4757 -11.1968   8.8641 C.ar           1 <1>                0.0000
     17 N17          0.1997 -10.7915   7.7103 N.pl3          1 <1>                0.0000
     18 C18         -0.1014 -12.3630   9.5125 C.ar           1 <1>                0.0000
     19 C19          0.0121 -17.4087  11.9713 C.ar           1 <1>                0.0000
     20 H20          0.4326 -22.4951  11.4981 H              1 <1>                0.0000
     21 H21         -0.5586 -23.0062  12.8855 H              1 <1>                0.0000
     22 H22         -1.3066 -22.1181  11.5363 H              1 <1>                0.0000
     23 H23          1.2988 -19.4097  14.3910 H              1 <1>                0.0000
     24 H24          1.7670 -17.2235  15.4101 H              1 <1>                0.0000
     25 H25          1.1217 -15.1543  14.2544 H              1 <1>                0.0000
     26 H26         -2.3596 -12.2913  12.0478 H              1 <1>                0.0000
     27 H27         -3.0009 -10.2197  10.8907 H              1 <1>                0.0000
     28 H28         -1.8060  -9.5154   8.8612 H              1 <1>                0.0000
     29 H29          0.7089 -12.9625   9.1247 H              1 <1>                0.0000
     30 H30         -0.4795 -17.4607  11.0111 H              1 <1>                0.0000
     31 H31         -0.0592  -9.9728   7.2591 H              1 <1>                0.0000
     32 H32          0.9276 -11.3287   7.3605 H              1 <1>                0.0000
@<TRIPOS>BOND
    1    1    2 1     
    2    1   20 1     
    3    1   21 1     
    4    1   22 1     
    5    2    3 1     
    6    3    4 2     
    7    3    5 1     
    8    5    6 ar    
    9    5   19 ar    
   10    6    7 ar    
   11    6   23 1     
   12    7    8 ar    
   13    7   24 1     
   14    8    9 ar    
   15    8   25 1     
   16    9   10 1     
   17    9   19 ar    
   18   10   11 3     
   19   11   12 1     
   20   12   13 ar    
   21   12   18 ar    
   22   13   14 ar    
   23   13   26 1     
   24   14   15 ar    
   25   14   27 1     
   26   15   16 ar    
   27   15   28 1     
   28   16   17 1     
   29   16   18 ar    
   30   17   31 1     
   31   17   32 1     
   32   18   29 1     
   33   19   30 1     
@<TRIPOS>SUBSTRUCTURE
      1 ****           1
@<TRIPOS>SET
DONOR_HYDROGENS      STATIC     ATOMS    <user>   **** ""
2 31 32
ATOM$RED        STATIC     ATOMS    COLORGROUP SYSTEM
2 31 32
@<TRIPOS>COMMENT
> <Gold.Version>
2022.2.0

> <Gold.Id.Protein>
3pbl|protein|mol2

> <Gold.Protein.RotatedTorsions>
[ 1303 1298 1297 1294 ] final -108.06 input  179.99 | X-H torsion
[ 2461 2456 2455 2452 ] final   40.69 input   30.03 | X-H torsion
[ 2515 2510 2509 2506 ] final   39.28 input  -89.99 | X-H torsion
[ 3721 3712 3711 3710 ] final -167.63 input -179.91 | X-H torsion
[ 3841 3832 3831 3830 ] final  -23.28 input -179.91 | X-H torsion
[ 3767 3762 3761 3758 ] final   25.81 input  -89.99 | X-H torsion
[ 2472 2467 2466 2463 ] final   20.76 input  -89.97 | X-H torsion

> <Gold.Protein.ActiveResidues>
 VAL82   VAL86   LEU89   PHE106  VAL107  ASP110  VAL111  MET112  CYS114  THR115 
 CYS181  SER182  ILE183  PHE188  VAL189  ILE190  SER192  SER193  SER196  TRP342 
 PHE345  PHE346  HIS349  VAL350  TYR365  THR369  GLY372  TYR373 

> <Gold.Protein.RotatedAtoms>
    4.0686   -8.5090    3.9925 H   0  0  0  0  0  0  0  0  0  0  0  0  # atno 1303 bound_to 1298
    1.6723   -7.9378    7.2007 H   0  0  0  0  0  0  0  0  0  0  0  0  # atno 2461 bound_to 2456
   -4.0355   -4.8173    7.8377 H   0  0  0  0  0  0  0  0  0  0  0  0  # atno 2472 bound_to 2467
    2.2703   -7.4088    5.1368 H   0  0  0  0  0  0  0  0  0  0  0  0  # atno 2515 bound_to 2510
   -3.3379  -16.5519   13.7241 H   0  0  0  0  0  0  0  0  0  0  0  0  # atno 3721 bound_to 3712
   -5.0372  -23.0143   10.0633 H   0  0  0  0  0  0  0  0  0  0  0  0  # atno 3767 bound_to 3762
    1.5908  -20.2107    9.4018 H   0  0  0  0  0  0  0  0  0  0  0  0  # atno 3841 bound_to 3832
    4.8306   -9.5961    4.9432 LP  0  0  0  0  0  0  0  0  0  0  0  0  # atno 4297 bound_to 1298
    3.4630  -10.0166    4.1560 LP  0  0  0  0  0  0  0  0  0  0  0  0  # atno 4298 bound_to 1298
    0.3313   -8.7885    7.5824 LP  0  0  0  0  0  0  0  0  0  0  0  0  # atno 4299 bound_to 2456
    1.7343   -9.0816    8.3649 LP  0  0  0  0  0  0  0  0  0  0  0  0  # atno 4300 bound_to 2456
    2.8334   -8.8110    4.5183 LP  0  0  0  0  0  0  0  0  0  0  0  0  # atno 4301 bound_to 2510
    2.1931   -8.7797    6.0202 LP  0  0  0  0  0  0  0  0  0  0  0  0  # atno 4302 bound_to 2510
   -2.8103  -17.9789   13.2111 LP  0  0  0  0  0  0  0  0  0  0  0  0  # atno 4306 bound_to 3712
   -2.8637  -17.6380   14.8073 LP  0  0  0  0  0  0  0  0  0  0  0  0  # atno 4307 bound_to 3712
    2.4945  -19.7820    8.1466 LP  0  0  0  0  0  0  0  0  0  0  0  0  # atno 4314 bound_to 3832
    2.8972  -21.0768    9.0566 LP  0  0  0  0  0  0  0  0  0  0  0  0  # atno 4315 bound_to 3832
   -5.1789  -21.9158   11.2633 LP  0  0  0  0  0  0  0  0  0  0  0  0  # atno 4318 bound_to 3762
   -3.9113  -22.9451   11.2442 LP  0  0  0  0  0  0  0  0  0  0  0  0  # atno 4319 bound_to 3762
   -4.1747   -5.3817    9.3636 LP  0  0  0  0  0  0  0  0  0  0  0  0  # atno 4320 bound_to 2467
   -5.5066   -5.1945    8.4376 LP  0  0  0  0  0  0  0  0  0  0  0  0  # atno 4321 bound_to 2467

> <Gold.Score>
     Score     S(PLP)   S(hbond)     S(cho)   S(metal)  DE(clash)   DE(tors)     intcor
     59.37     -56.56       1.18       0.00       0.00       0.00       0.36       0.00

> <Gold.PLP.Fitness>
59.3703

> <Gold.PLP.PLP>
-56.5595

> <Gold.PLP.part.hbond>
-2.0000

> <Gold.PLP.part.metal>
0.0000

> <Gold.PLP.part.buried>
-6.5843

> <Gold.PLP.part.nonpolar>
-49.3362

> <Gold.PLP.part.repulsive>
0.0872

> <Gold.PLP.ligand.clash>
0.0000

> <Gold.PLP.ligand.torsion>
0.3613

> <Gold.PLP.Chemscore.Hbond>
1.1778

> <Gold.PLP.Chemscore.CHOScore>
0.0000

> <Gold.PLP.Chemscore.Metal>
0.0000

> <Gold.Chemscore.Hbonds>
donor molecule, donor type, donor heavy atom, donor atom, acceptor molecule, acceptor atom, score
      L1  H    17    31       P1  2456  0.18
      P1  H  3832  3841       L1     4  1.00

> <Gold.PLP.Chemscore.Internal.Correction>
0.0000

