#       Name:                EN300-27699_i001
#       Creating user name   fsindt
#       Creation time:       Mon Feb 27 17:10:21 2023


#       File generated by GOLD software.
#

@<TRIPOS>MOLECULE
EN300-27699_i001|amine_1|mol2|11|dock11
    32    33     1
SMALL
USER_CHARGES


@<TRIPOS>ATOM
      1 C1          -0.5056 -20.0092  16.6685 C.3            1 <1>                0.0000
      2 O2           0.2486 -19.1875  15.7387 O.3            1 <1>                0.0000
      3 C3          -0.3693 -18.0961  15.2470 C.2            1 <1>                0.0000
      4 O4          -1.4975 -17.8239  15.6051 O.2            1 <1>                0.0000
      5 C5           0.3256 -17.2302  14.2721 C.ar           1 <1>                0.0000
      6 C6           1.6602 -17.4785  13.9417 C.ar           1 <1>                0.0000
      7 C7           2.3116 -16.6708  13.0304 C.ar           1 <1>                0.0000
      8 C8           1.6504 -15.6132  12.4392 C.ar           1 <1>                0.0000
      9 C9           0.3146 -15.3522  12.7604 C.ar           1 <1>                0.0000
     10 C10         -0.3702 -14.2546  12.1465 C.1            1 <1>                0.0000
     11 C11         -0.9316 -13.3547  11.6432 C.1            1 <1>                0.0000
     12 C12         -1.6164 -12.2571  11.0292 C.ar           1 <1>                0.0000
     13 C13         -2.8925 -12.4399  10.4899 C.ar           1 <1>                0.0000
     14 C14         -3.5498 -11.3803   9.8989 C.ar           1 <1>                0.0000
     15 C15         -2.9504 -10.1363   9.8373 C.ar           1 <1>                0.0000
     16 C16         -1.6806  -9.9433  10.3704 C.ar           1 <1>                0.0000
     17 N17         -1.0799  -8.6837  10.3052 N.pl3          1 <1>                0.0000
     18 C18         -1.0138 -10.9986  10.9723 C.ar           1 <1>                0.0000
     19 C19         -0.3507 -16.1675  13.6757 C.ar           1 <1>                0.0000
     20 H20         -1.4067 -20.3784  16.1787 H              1 <1>                0.0000
     21 H21          0.1067 -20.8530  16.9868 H              1 <1>                0.0000
     22 H22         -0.7829 -19.4130  17.5378 H              1 <1>                0.0000
     23 H23          2.1839 -18.3041  14.4006 H              1 <1>                0.0000
     24 H24          3.3433 -16.8675  12.7792 H              1 <1>                0.0000
     25 H25          2.1660 -14.9856  11.7273 H              1 <1>                0.0000
     26 H26         -3.3642 -13.4105  10.5353 H              1 <1>                0.0000
     27 H27         -4.5359 -11.5236   9.4826 H              1 <1>                0.0000
     28 H28         -3.4700  -9.3112   9.3730 H              1 <1>                0.0000
     29 H29         -0.0277 -10.8507  11.3872 H              1 <1>                0.0000
     30 H30         -1.3824 -15.9712  13.9274 H              1 <1>                0.0000
     31 H31         -1.5485  -7.9440   9.8881 H              1 <1>                0.0000
     32 H32         -0.1942  -8.5490  10.6771 H              1 <1>                0.0000
@<TRIPOS>BOND
    1    1    2 1     
    2    1   20 1     
    3    1   21 1     
    4    1   22 1     
    5    2    3 1     
    6    3    4 2     
    7    3    5 1     
    8    5    6 ar    
    9    5   19 ar    
   10    6    7 ar    
   11    6   23 1     
   12    7    8 ar    
   13    7   24 1     
   14    8    9 ar    
   15    8   25 1     
   16    9   10 1     
   17    9   19 ar    
   18   10   11 3     
   19   11   12 1     
   20   12   13 ar    
   21   12   18 ar    
   22   13   14 ar    
   23   13   26 1     
   24   14   15 ar    
   25   14   27 1     
   26   15   16 ar    
   27   15   28 1     
   28   16   17 1     
   29   16   18 ar    
   30   17   31 1     
   31   17   32 1     
   32   18   29 1     
   33   19   30 1     
@<TRIPOS>SUBSTRUCTURE
      1 ****           1
@<TRIPOS>SET
DONOR_HYDROGENS      STATIC     ATOMS    <user>   **** ""
2 31 32
ATOM$RED        STATIC     ATOMS    COLORGROUP SYSTEM
2 31 32
@<TRIPOS>COMMENT
> <Gold.Version>
2022.2.0

> <Gold.Id.Protein>
3pbl|protein|mol2

> <Gold.Protein.RotatedTorsions>
[ 1303 1298 1297 1294 ] final  113.74 input  179.99 | X-H torsion
[ 2461 2456 2455 2452 ] final  -14.87 input   30.03 | X-H torsion
[ 2515 2510 2509 2506 ] final   77.47 input  -89.99 | X-H torsion
[ 3721 3712 3711 3710 ] final  -10.34 input -179.91 | X-H torsion
[ 3841 3832 3831 3830 ] final  115.92 input -179.91 | X-H torsion
[ 3767 3762 3761 3758 ] final   90.52 input  -89.99 | X-H torsion
[ 2472 2467 2466 2463 ] final   46.23 input  -89.97 | X-H torsion

> <Gold.Protein.ActiveResidues>
 VAL82   VAL86   LEU89   PHE106  VAL107  ASP110  VAL111  MET112  CYS114  THR115 
 CYS181  SER182  ILE183  PHE188  VAL189  ILE190  SER192  SER193  SER196  TRP342 
 PHE345  PHE346  HIS349  VAL350  TYR365  THR369  GLY372  TYR373 

> <Gold.Protein.RotatedAtoms>
    4.6855   -9.8565    4.9440 H   0  0  0  0  0  0  0  0  0  0  0  0  # atno 1303 bound_to 1298
    0.8188   -8.0871    7.0519 H   0  0  0  0  0  0  0  0  0  0  0  0  # atno 2461 bound_to 2456
   -4.4185   -4.8013    7.6766 H   0  0  0  0  0  0  0  0  0  0  0  0  # atno 2472 bound_to 2467
    2.0765   -7.5955    5.6916 H   0  0  0  0  0  0  0  0  0  0  0  0  # atno 2515 bound_to 2510
   -2.5153  -17.8859   14.3786 H   0  0  0  0  0  0  0  0  0  0  0  0  # atno 3721 bound_to 3712
   -4.1872  -23.3285   10.5079 H   0  0  0  0  0  0  0  0  0  0  0  0  # atno 3767 bound_to 3762
    3.0595  -20.7605    8.9846 H   0  0  0  0  0  0  0  0  0  0  0  0  # atno 3841 bound_to 3832
    3.3585   -9.7883    3.9948 LP  0  0  0  0  0  0  0  0  0  0  0  0  # atno 4297 bound_to 1298
    4.3180   -8.4764    4.1525 LP  0  0  0  0  0  0  0  0  0  0  0  0  # atno 4298 bound_to 1298
    0.7583   -9.2523    8.1947 LP  0  0  0  0  0  0  0  0  0  0  0  0  # atno 4299 bound_to 2456
    2.1606   -8.4686    7.9013 LP  0  0  0  0  0  0  0  0  0  0  0  0  # atno 4300 bound_to 2456
    2.7750   -8.2193    4.3542 LP  0  0  0  0  0  0  0  0  0  0  0  0  # atno 4301 bound_to 2510
    2.4453   -9.1848    5.6292 LP  0  0  0  0  0  0  0  0  0  0  0  0  # atno 4302 bound_to 2510
   -3.4942  -16.6154   14.3056 LP  0  0  0  0  0  0  0  0  0  0  0  0  # atno 4306 bound_to 3712
   -3.1295  -17.4613   12.9572 LP  0  0  0  0  0  0  0  0  0  0  0  0  # atno 4307 bound_to 3712
    1.5338  -20.5665    9.4439 LP  0  0  0  0  0  0  0  0  0  0  0  0  # atno 4314 bound_to 3832
    2.1613  -19.6573    8.2413 LP  0  0  0  0  0  0  0  0  0  0  0  0  # atno 4315 bound_to 3832
   -5.4977  -22.3587   10.4144 LP  0  0  0  0  0  0  0  0  0  0  0  0  # atno 4318 bound_to 3762
   -4.4422  -22.1881   11.6487 LP  0  0  0  0  0  0  0  0  0  0  0  0  # atno 4319 bound_to 3762
   -3.8481   -5.2635    9.1352 LP  0  0  0  0  0  0  0  0  0  0  0  0  # atno 4320 bound_to 2467
   -5.4504   -5.3287    8.8271 LP  0  0  0  0  0  0  0  0  0  0  0  0  # atno 4321 bound_to 2467

> <Gold.Score>
     Score     S(PLP)   S(hbond)     S(cho)   S(metal)  DE(clash)   DE(tors)     intcor
     60.43     -55.88       1.53       0.00       0.00       0.00       0.02       0.00

> <Gold.PLP.Fitness>
60.4343

> <Gold.PLP.PLP>
-55.8825

> <Gold.PLP.part.hbond>
-2.1016

> <Gold.PLP.part.metal>
0.0000

> <Gold.PLP.part.buried>
-0.7193

> <Gold.PLP.part.nonpolar>
-54.0258

> <Gold.PLP.part.repulsive>
0.3125

> <Gold.PLP.ligand.clash>
0.0000

> <Gold.PLP.ligand.torsion>
0.0153

> <Gold.PLP.Chemscore.Hbond>
1.5275

> <Gold.PLP.Chemscore.CHOScore>
0.0000

> <Gold.PLP.Chemscore.Metal>
0.0000

> <Gold.Chemscore.Hbonds>
donor molecule, donor type, donor heavy atom, donor atom, acceptor molecule, acceptor atom, score
      L1  H    17    31       P1  2398  0.56
      P1  H  3712  3721       L1     4  0.97

> <Gold.PLP.Chemscore.Internal.Correction>
0.0000

