#       Name:                EN300-27699_i001
#       Creating user name   fsindt
#       Creation time:       Mon Feb 27 17:10:28 2023


#       File generated by GOLD software.
#

@<TRIPOS>MOLECULE
EN300-27699_i001|amine_1|mol2|11|dock19
    32    33     1
SMALL
USER_CHARGES


@<TRIPOS>ATOM
      1 C1           1.6898 -12.2633   5.9789 C.3            1 <1>                0.0000
      2 O2           1.0602 -12.5819   7.2481 O.3            1 <1>                0.0000
      3 C3           0.3553 -11.6010   7.8444 C.2            1 <1>                0.0000
      4 O4           0.1999 -10.5362   7.2810 O.2            1 <1>                0.0000
      5 C5          -0.2289 -11.8205   9.1836 C.ar           1 <1>                0.0000
      6 C6          -0.9742 -10.8102   9.7965 C.ar           1 <1>                0.0000
      7 C7          -1.5216 -11.0133  11.0480 C.ar           1 <1>                0.0000
      8 C8          -1.3373 -12.2144  11.7027 C.ar           1 <1>                0.0000
      9 C9          -0.5932 -13.2347  11.1018 C.ar           1 <1>                0.0000
     10 C10         -0.4026 -14.4803  11.7821 C.1            1 <1>                0.0000
     11 C11         -0.2463 -15.5015  12.3397 C.1            1 <1>                0.0000
     12 C12         -0.0557 -16.7472  13.0200 C.ar           1 <1>                0.0000
     13 C13          0.4532 -16.7649  14.3213 C.ar           1 <1>                0.0000
     14 C14          0.6359 -17.9668  14.9741 C.ar           1 <1>                0.0000
     15 C15          0.3175 -19.1559  14.3454 C.ar           1 <1>                0.0000
     16 C16         -0.1892 -19.1499  13.0504 C.ar           1 <1>                0.0000
     17 N17         -0.5092 -20.3548  12.4201 N.pl3          1 <1>                0.0000
     18 C18         -0.3831 -17.9483  12.3875 C.ar           1 <1>                0.0000
     19 C19         -0.0425 -13.0381   9.8357 C.ar           1 <1>                0.0000
     20 H20          2.3917 -11.4410   6.1179 H              1 <1>                0.0000
     21 H21          2.2239 -13.1383   5.6085 H              1 <1>                0.0000
     22 H22          0.9263 -11.9714   5.2579 H              1 <1>                0.0000
     23 H23         -1.1223  -9.8677   9.2903 H              1 <1>                0.0000
     24 H24         -2.0965 -10.2285  11.5169 H              1 <1>                0.0000
     25 H25         -1.7683 -12.3664  12.6812 H              1 <1>                0.0000
     26 H26          0.7039 -15.8380  14.8159 H              1 <1>                0.0000
     27 H27          1.0293 -17.9785  15.9798 H              1 <1>                0.0000
     28 H28          0.4631 -20.0932  14.8617 H              1 <1>                0.0000
     29 H29         -0.7768 -17.9416  11.3818 H              1 <1>                0.0000
     30 H30          0.5327 -13.8225   9.3664 H              1 <1>                0.0000
     31 H31         -0.3779 -21.1955  12.8858 H              1 <1>                0.0000
     32 H32         -0.8627 -20.3507  11.5168 H              1 <1>                0.0000
@<TRIPOS>BOND
    1    1    2 1     
    2    1   20 1     
    3    1   21 1     
    4    1   22 1     
    5    2    3 1     
    6    3    4 2     
    7    3    5 1     
    8    5    6 ar    
    9    5   19 ar    
   10    6    7 ar    
   11    6   23 1     
   12    7    8 ar    
   13    7   24 1     
   14    8    9 ar    
   15    8   25 1     
   16    9   10 1     
   17    9   19 ar    
   18   10   11 3     
   19   11   12 1     
   20   12   13 ar    
   21   12   18 ar    
   22   13   14 ar    
   23   13   26 1     
   24   14   15 ar    
   25   14   27 1     
   26   15   16 ar    
   27   15   28 1     
   28   16   17 1     
   29   16   18 ar    
   30   17   31 1     
   31   17   32 1     
   32   18   29 1     
   33   19   30 1     
@<TRIPOS>SUBSTRUCTURE
      1 ****           1
@<TRIPOS>SET
DONOR_HYDROGENS      STATIC     ATOMS    <user>   **** ""
2 31 32
ATOM$RED        STATIC     ATOMS    COLORGROUP SYSTEM
2 31 32
@<TRIPOS>COMMENT
> <Gold.Version>
2022.2.0

> <Gold.Id.Protein>
3pbl|protein|mol2

> <Gold.Protein.RotatedTorsions>
[ 1303 1298 1297 1294 ] final -166.25 input  179.99 | X-H torsion
[ 2461 2456 2455 2452 ] final -112.75 input   30.03 | X-H torsion
[ 2515 2510 2509 2506 ] final -116.33 input  -89.99 | X-H torsion
[ 3721 3712 3711 3710 ] final -141.06 input -179.91 | X-H torsion
[ 3841 3832 3831 3830 ] final    8.55 input -179.91 | X-H torsion
[ 3767 3762 3761 3758 ] final    7.26 input  -89.99 | X-H torsion
[ 2472 2467 2466 2463 ] final  -72.06 input  -89.97 | X-H torsion

> <Gold.Protein.ActiveResidues>
 VAL82   VAL86   LEU89   PHE106  VAL107  ASP110  VAL111  MET112  CYS114  THR115 
 CYS181  SER182  ILE183  PHE188  VAL189  ILE190  SER192  SER193  SER196  TRP342 
 PHE345  PHE346  HIS349  VAL350  TYR365  THR369  GLY372  TYR373 

> <Gold.Protein.RotatedAtoms>
    4.7640   -8.7116    4.5544 H   0  0  0  0  0  0  0  0  0  0  0  0  # atno 1303 bound_to 1298
    0.5023   -9.1217    7.9749 H   0  0  0  0  0  0  0  0  0  0  0  0  # atno 2461 bound_to 2456
   -3.8305   -5.2550    9.1150 H   0  0  0  0  0  0  0  0  0  0  0  0  # atno 2472 bound_to 2467
    2.7325   -9.1822    4.9477 H   0  0  0  0  0  0  0  0  0  0  0  0  # atno 2515 bound_to 2510
   -3.3048  -16.5481   14.1208 H   0  0  0  0  0  0  0  0  0  0  0  0  # atno 3721 bound_to 3712
   -5.2530  -22.8050   10.1080 H   0  0  0  0  0  0  0  0  0  0  0  0  # atno 3767 bound_to 3762
    1.8172  -20.5814    9.5935 H   0  0  0  0  0  0  0  0  0  0  0  0  # atno 3841 bound_to 3832
    4.1976  -10.2307    4.7496 LP  0  0  0  0  0  0  0  0  0  0  0  0  # atno 4297 bound_to 1298
    3.4003   -9.1793    3.7875 LP  0  0  0  0  0  0  0  0  0  0  0  0  # atno 4298 bound_to 1298
    2.0800   -8.7318    8.1361 LP  0  0  0  0  0  0  0  0  0  0  0  0  # atno 4299 bound_to 2456
    1.1552   -7.9548    7.0372 LP  0  0  0  0  0  0  0  0  0  0  0  0  # atno 4300 bound_to 2456
    2.0484   -8.2246    6.0794 LP  0  0  0  0  0  0  0  0  0  0  0  0  # atno 4301 bound_to 2510
    2.5157   -7.5919    4.6483 LP  0  0  0  0  0  0  0  0  0  0  0  0  # atno 4302 bound_to 2510
   -3.0151  -17.6551   12.9945 LP  0  0  0  0  0  0  0  0  0  0  0  0  # atno 4306 bound_to 3712
   -2.6972  -17.9661   14.5658 LP  0  0  0  0  0  0  0  0  0  0  0  0  # atno 4307 bound_to 3712
    2.0177  -19.6366    8.3117 LP  0  0  0  0  0  0  0  0  0  0  0  0  # atno 4314 bound_to 3832
    3.1125  -20.7940    8.6700 LP  0  0  0  0  0  0  0  0  0  0  0  0  # atno 4315 bound_to 3832
   -4.9477  -21.9398   11.4590 LP  0  0  0  0  0  0  0  0  0  0  0  0  # atno 4318 bound_to 3762
   -3.9268  -23.1303   11.0038 LP  0  0  0  0  0  0  0  0  0  0  0  0  # atno 4319 bound_to 3762
   -5.4401   -5.3366    8.8523 LP  0  0  0  0  0  0  0  0  0  0  0  0  # atno 4320 bound_to 2467
   -4.4462   -4.8019    7.6720 LP  0  0  0  0  0  0  0  0  0  0  0  0  # atno 4321 bound_to 2467

> <Gold.Score>
     Score     S(PLP)   S(hbond)     S(cho)   S(metal)  DE(clash)   DE(tors)     intcor
     55.45     -53.05       0.82       0.00       0.00       0.00       0.02       0.00

> <Gold.PLP.Fitness>
55.4548

> <Gold.PLP.PLP>
-53.0498

> <Gold.PLP.part.hbond>
-0.5316

> <Gold.PLP.part.metal>
0.0000

> <Gold.PLP.part.buried>
-4.5698

> <Gold.PLP.part.nonpolar>
-48.8810

> <Gold.PLP.part.repulsive>
0.0914

> <Gold.PLP.ligand.clash>
0.0000

> <Gold.PLP.ligand.torsion>
0.0215

> <Gold.PLP.Chemscore.Hbond>
0.8160

> <Gold.PLP.Chemscore.CHOScore>
0.0000

> <Gold.PLP.Chemscore.Metal>
0.0000

> <Gold.Chemscore.Hbonds>
donor molecule, donor type, donor heavy atom, donor atom, acceptor molecule, acceptor atom, score
      P1  H  2456  2461       L1     4  0.82

> <Gold.PLP.Chemscore.Internal.Correction>
0.0000

