#       Name:                EN300-27699_i001
#       Creating user name   fsindt
#       Creation time:       Mon Feb 27 17:10:17 2023


#       File generated by GOLD software.
#

@<TRIPOS>MOLECULE
EN300-27699_i001|amine_1|mol2|11|dock6
    32    33     1
SMALL
USER_CHARGES


@<TRIPOS>ATOM
      1 C1          -0.8636 -20.2759  17.0990 C.3            1 <1>                0.0000
      2 O2           0.0488 -19.6012  16.1931 O.3            1 <1>                0.0000
      3 C3          -0.4354 -18.5447  15.5121 C.2            1 <1>                0.0000
      4 O4          -1.5920 -18.2046  15.6607 O.2            1 <1>                0.0000
      5 C5           0.4404 -17.7994  14.5844 C.ar           1 <1>                0.0000
      6 C6           1.7844 -18.1569  14.4510 C.ar           1 <1>                0.0000
      7 C7           2.6048 -17.4620  13.5842 C.ar           1 <1>                0.0000
      8 C8           2.1044 -16.4103  12.8435 C.ar           1 <1>                0.0000
      9 C9           0.7613 -16.0409  12.9668 C.ar           1 <1>                0.0000
     10 C10          0.2434 -14.9495  12.1978 C.1            1 <1>                0.0000
     11 C11         -0.1812 -14.0548  11.5673 C.1            1 <1>                0.0000
     12 C12         -0.6991 -12.9634  10.7983 C.ar           1 <1>                0.0000
     13 C13         -1.9093 -12.3643  11.1576 C.ar           1 <1>                0.0000
     14 C14         -2.4058 -11.3129  10.4145 C.ar           1 <1>                0.0000
     15 C15         -1.7104 -10.8488   9.3139 C.ar           1 <1>                0.0000
     16 C16         -0.5053 -11.4379   8.9472 C.ar           1 <1>                0.0000
     17 N17          0.1932 -10.9645   7.8337 N.pl3          1 <1>                0.0000
     18 C18          0.0063 -12.4901   9.6900 C.ar           1 <1>                0.0000
     19 C19         -0.0739 -16.7420  13.8361 C.ar           1 <1>                0.0000
     20 H20         -1.7179 -20.6554  16.5383 H              1 <1>                0.0000
     21 H21         -0.3483 -21.1061  17.5821 H              1 <1>                0.0000
     22 H22         -1.2096 -19.5728  17.8566 H              1 <1>                0.0000
     23 H23          2.1829 -18.9785  15.0277 H              1 <1>                0.0000
     24 H24          3.6430 -17.7427  13.4856 H              1 <1>                0.0000
     25 H25          2.7517 -15.8714  12.1675 H              1 <1>                0.0000
     26 H26         -2.4563 -12.7244  12.0166 H              1 <1>                0.0000
     27 H27         -3.3414 -10.8512  10.6938 H              1 <1>                0.0000
     28 H28         -2.1046 -10.0258   8.7363 H              1 <1>                0.0000
     29 H29          0.9422 -12.9488   9.4069 H              1 <1>                0.0000
     30 H30         -1.1121 -16.4616  13.9353 H              1 <1>                0.0000
     31 H31         -0.1625 -10.2249   7.3166 H              1 <1>                0.0000
     32 H32          1.0338 -11.3753   7.5779 H              1 <1>                0.0000
@<TRIPOS>BOND
    1    1    2 1     
    2    1   20 1     
    3    1   21 1     
    4    1   22 1     
    5    2    3 1     
    6    3    4 2     
    7    3    5 1     
    8    5    6 ar    
    9    5   19 ar    
   10    6    7 ar    
   11    6   23 1     
   12    7    8 ar    
   13    7   24 1     
   14    8    9 ar    
   15    8   25 1     
   16    9   10 1     
   17    9   19 ar    
   18   10   11 3     
   19   11   12 1     
   20   12   13 ar    
   21   12   18 ar    
   22   13   14 ar    
   23   13   26 1     
   24   14   15 ar    
   25   14   27 1     
   26   15   16 ar    
   27   15   28 1     
   28   16   17 1     
   29   16   18 ar    
   30   17   31 1     
   31   17   32 1     
   32   18   29 1     
   33   19   30 1     
@<TRIPOS>SUBSTRUCTURE
      1 ****           1
@<TRIPOS>SET
DONOR_HYDROGENS      STATIC     ATOMS    <user>   **** ""
2 31 32
ATOM$RED        STATIC     ATOMS    COLORGROUP SYSTEM
2 31 32
@<TRIPOS>COMMENT
> <Gold.Version>
2022.2.0

> <Gold.Id.Protein>
3pbl|protein|mol2

> <Gold.Protein.RotatedTorsions>
[ 1303 1298 1297 1294 ] final  -22.32 input  179.99 | X-H torsion
[ 2461 2456 2455 2452 ] final   26.57 input   30.03 | X-H torsion
[ 2515 2510 2509 2506 ] final  -54.06 input  -89.99 | X-H torsion
[ 3721 3712 3711 3710 ] final  -44.63 input -179.91 | X-H torsion
[ 3841 3832 3831 3830 ] final  105.56 input -179.91 | X-H torsion
[ 3767 3762 3761 3758 ] final -131.26 input  -89.99 | X-H torsion
[ 2472 2467 2466 2463 ] final  107.21 input  -89.97 | X-H torsion

> <Gold.Protein.ActiveResidues>
 VAL82   VAL86   LEU89   PHE106  VAL107  ASP110  VAL111  MET112  CYS114  THR115 
 CYS181  SER182  ILE183  PHE188  VAL189  ILE190  SER192  SER193  SER196  TRP342 
 PHE345  PHE346  HIS349  VAL350  TYR365  THR369  GLY372  TYR373 

> <Gold.Protein.RotatedAtoms>
    3.3295   -9.5514    3.8834 H   0  0  0  0  0  0  0  0  0  0  0  0  # atno 1303 bound_to 1298
    1.4618   -7.9166    7.1061 H   0  0  0  0  0  0  0  0  0  0  0  0  # atno 2461 bound_to 2456
   -5.3066   -5.0043    7.9688 H   0  0  0  0  0  0  0  0  0  0  0  0  # atno 2472 bound_to 2467
    2.8107   -8.4049    4.3650 H   0  0  0  0  0  0  0  0  0  0  0  0  # atno 2515 bound_to 2510
   -2.6920  -17.5281   14.6974 H   0  0  0  0  0  0  0  0  0  0  0  0  # atno 3721 bound_to 3712
   -4.6917  -22.0342   11.5918 H   0  0  0  0  0  0  0  0  0  0  0  0  # atno 3767 bound_to 3762
    2.9880  -20.8392    9.0993 H   0  0  0  0  0  0  0  0  0  0  0  0  # atno 3841 bound_to 3832
    4.5225   -8.5223    4.3124 LP  0  0  0  0  0  0  0  0  0  0  0  0  # atno 4297 bound_to 1298
    4.5106  -10.0475    4.8960 LP  0  0  0  0  0  0  0  0  0  0  0  0  # atno 4298 bound_to 1298
    0.3677   -8.9439    7.7503 LP  0  0  0  0  0  0  0  0  0  0  0  0  # atno 4299 bound_to 2456
    1.9083   -8.9474    8.2916 LP  0  0  0  0  0  0  0  0  0  0  0  0  # atno 4300 bound_to 2456
    2.3644   -9.0955    5.7755 LP  0  0  0  0  0  0  0  0  0  0  0  0  # atno 4301 bound_to 2510
    2.1214   -7.4987    5.5352 LP  0  0  0  0  0  0  0  0  0  0  0  0  # atno 4302 bound_to 2510
   -3.5672  -16.5748   13.7472 LP  0  0  0  0  0  0  0  0  0  0  0  0  # atno 4306 bound_to 3712
   -2.8526  -17.9150   13.1474 LP  0  0  0  0  0  0  0  0  0  0  0  0  # atno 4307 bound_to 3712
    1.4594  -20.4301    9.3678 LP  0  0  0  0  0  0  0  0  0  0  0  0  # atno 4314 bound_to 3832
    2.3184  -19.7028    8.1847 LP  0  0  0  0  0  0  0  0  0  0  0  0  # atno 4315 bound_to 3832
   -4.0233  -23.2628   10.7487 LP  0  0  0  0  0  0  0  0  0  0  0  0  # atno 4318 bound_to 3762
   -5.4123  -22.5778   10.2309 LP  0  0  0  0  0  0  0  0  0  0  0  0  # atno 4319 bound_to 3762
   -3.7001   -4.9286    8.2514 LP  0  0  0  0  0  0  0  0  0  0  0  0  # atno 4320 bound_to 2467
   -4.7104   -5.4605    9.4189 LP  0  0  0  0  0  0  0  0  0  0  0  0  # atno 4321 bound_to 2467

> <Gold.Score>
     Score     S(PLP)   S(hbond)     S(cho)   S(metal)  DE(clash)   DE(tors)     intcor
     59.72     -56.63       1.03       0.00       0.00       0.00       0.00       0.00

> <Gold.PLP.Fitness>
59.7175

> <Gold.PLP.PLP>
-56.6261

> <Gold.PLP.part.hbond>
-1.8219

> <Gold.PLP.part.metal>
0.0000

> <Gold.PLP.part.buried>
-5.6559

> <Gold.PLP.part.nonpolar>
-49.7842

> <Gold.PLP.part.repulsive>
0.0969

> <Gold.PLP.ligand.clash>
0.0000

> <Gold.PLP.ligand.torsion>
0.0035

> <Gold.PLP.Chemscore.Hbond>
1.0328

> <Gold.PLP.Chemscore.CHOScore>
0.0000

> <Gold.PLP.Chemscore.Metal>
0.0000

> <Gold.Chemscore.Hbonds>
donor molecule, donor type, donor heavy atom, donor atom, acceptor molecule, acceptor atom, score
      L1  H    17    31       P1  2456  0.03
      P1  H  3712  3721       L1     4  1.00

> <Gold.PLP.Chemscore.Internal.Correction>
0.0000

