#       Name:                EN300-27699_i001
#       Creating user name   fsindt
#       Creation time:       Mon Feb 27 17:10:15 2023


#       File generated by GOLD software.
#

@<TRIPOS>MOLECULE
EN300-27699_i001|amine_1|mol2|11|dock4
    32    33     1
SMALL
USER_CHARGES


@<TRIPOS>ATOM
      1 C1          -0.1282 -22.1745  12.1224 C.3            1 <1>                0.0000
      2 O2           0.0548 -20.8995  12.7927 O.3            1 <1>                0.0000
      3 C3           0.1335 -19.8041  12.0126 C.2            1 <1>                0.0000
      4 O4           0.0588 -19.9120  10.8050 O.2            1 <1>                0.0000
      5 C5           0.3107 -18.4717  12.6258 C.ar           1 <1>                0.0000
      6 C6           0.7850 -18.3611  13.9353 C.ar           1 <1>                0.0000
      7 C7           0.9519 -17.1166  14.5104 C.ar           1 <1>                0.0000
      8 C8           0.6520 -15.9735  13.7972 C.ar           1 <1>                0.0000
      9 C9           0.1760 -16.0687  12.4857 C.ar           1 <1>                0.0000
     10 C10         -0.1348 -14.8820  11.7469 C.1            1 <1>                0.0000
     11 C11         -0.3897 -13.9091  11.1413 C.1            1 <1>                0.0000
     12 C12         -0.7005 -12.7224  10.4025 C.ar           1 <1>                0.0000
     13 C13         -0.1917 -12.5456   9.1130 C.ar           1 <1>                0.0000
     14 C14         -0.4930 -11.4009   8.4036 C.ar           1 <1>                0.0000
     15 C15         -1.2970 -10.4262   8.9639 C.ar           1 <1>                0.0000
     16 C16         -1.8083 -10.5917  10.2465 C.ar           1 <1>                0.0000
     17 N17         -2.6204  -9.6030  10.8075 N.pl3          1 <1>                0.0000
     18 C18         -1.5178 -11.7402  10.9656 C.ar           1 <1>                0.0000
     19 C19          0.0106 -17.3221  11.8971 C.ar           1 <1>                0.0000
     20 H20          0.7097 -22.3543  11.4487 H              1 <1>                0.0000
     21 H21         -0.1753 -22.9716  12.8644 H              1 <1>                0.0000
     22 H22         -1.0561 -22.1546  11.5509 H              1 <1>                0.0000
     23 H23          1.0214 -19.2511  14.4994 H              1 <1>                0.0000
     24 H24          1.3185 -17.0374  15.5231 H              1 <1>                0.0000
     25 H25          0.7849 -15.0036  14.2532 H              1 <1>                0.0000
     26 H26          0.4375 -13.3045   8.6718 H              1 <1>                0.0000
     27 H27         -0.0988 -11.2661   7.4073 H              1 <1>                0.0000
     28 H28         -1.5287  -9.5325   8.4036 H              1 <1>                0.0000
     29 H29         -1.9142 -11.8707  11.9618 H              1 <1>                0.0000
     30 H30         -0.3562 -17.4019  10.8845 H              1 <1>                0.0000
     31 H31         -2.8275  -8.8012  10.3023 H              1 <1>                0.0000
     32 H32         -2.9771  -9.7184  11.7021 H              1 <1>                0.0000
@<TRIPOS>BOND
    1    1    2 1     
    2    1   20 1     
    3    1   21 1     
    4    1   22 1     
    5    2    3 1     
    6    3    4 2     
    7    3    5 1     
    8    5    6 ar    
    9    5   19 ar    
   10    6    7 ar    
   11    6   23 1     
   12    7    8 ar    
   13    7   24 1     
   14    8    9 ar    
   15    8   25 1     
   16    9   10 1     
   17    9   19 ar    
   18   10   11 3     
   19   11   12 1     
   20   12   13 ar    
   21   12   18 ar    
   22   13   14 ar    
   23   13   26 1     
   24   14   15 ar    
   25   14   27 1     
   26   15   16 ar    
   27   15   28 1     
   28   16   17 1     
   29   16   18 ar    
   30   17   31 1     
   31   17   32 1     
   32   18   29 1     
   33   19   30 1     
@<TRIPOS>SUBSTRUCTURE
      1 ****           1
@<TRIPOS>SET
DONOR_HYDROGENS      STATIC     ATOMS    <user>   **** ""
2 31 32
ATOM$RED        STATIC     ATOMS    COLORGROUP SYSTEM
2 31 32
@<TRIPOS>COMMENT
> <Gold.Version>
2022.2.0

> <Gold.Id.Protein>
3pbl|protein|mol2

> <Gold.Protein.RotatedTorsions>
[ 1303 1298 1297 1294 ] final  -90.00 input  179.99 | X-H torsion
[ 2461 2456 2455 2452 ] final  -14.01 input   30.03 | X-H torsion
[ 2515 2510 2509 2506 ] final  157.31 input  -89.99 | X-H torsion
[ 3721 3712 3711 3710 ] final -167.64 input -179.91 | X-H torsion
[ 3841 3832 3831 3830 ] final  -23.91 input -179.91 | X-H torsion
[ 3767 3762 3761 3758 ] final   75.16 input  -89.99 | X-H torsion
[ 2472 2467 2466 2463 ] final  112.98 input  -89.97 | X-H torsion

> <Gold.Protein.ActiveResidues>
 VAL82   VAL86   LEU89   PHE106  VAL107  ASP110  VAL111  MET112  CYS114  THR115 
 CYS181  SER182  ILE183  PHE188  VAL189  ILE190  SER192  SER193  SER196  TRP342 
 PHE345  PHE346  HIS349  VAL350  TYR365  THR369  GLY372  TYR373 

> <Gold.Protein.RotatedAtoms>
    3.8264   -8.6268    3.8699 H   0  0  0  0  0  0  0  0  0  0  0  0  # atno 1303 bound_to 1298
    0.8311   -8.0803    7.0494 H   0  0  0  0  0  0  0  0  0  0  0  0  # atno 2461 bound_to 2456
   -5.3615   -5.0359    8.0395 H   0  0  0  0  0  0  0  0  0  0  0  0  # atno 2472 bound_to 2467
    2.1823   -8.7514    6.0318 H   0  0  0  0  0  0  0  0  0  0  0  0  # atno 2515 bound_to 2510
   -3.3379  -16.5519   13.7239 H   0  0  0  0  0  0  0  0  0  0  0  0  # atno 3721 bound_to 3712
   -4.3674  -23.3295   10.3315 H   0  0  0  0  0  0  0  0  0  0  0  0  # atno 3767 bound_to 3762
    1.5885  -20.2032    9.3965 H   0  0  0  0  0  0  0  0  0  0  0  0  # atno 3841 bound_to 3832
    4.9041   -9.3153    4.8853 LP  0  0  0  0  0  0  0  0  0  0  0  0  # atno 4297 bound_to 1298
    3.6318  -10.1795    4.3365 LP  0  0  0  0  0  0  0  0  0  0  0  0  # atno 4298 bound_to 1298
    0.7467   -9.2489    8.1873 LP  0  0  0  0  0  0  0  0  0  0  0  0  # atno 4299 bound_to 2456
    2.1599   -8.4788    7.9112 LP  0  0  0  0  0  0  0  0  0  0  0  0  # atno 4300 bound_to 2456
    2.2829   -7.4097    5.1069 LP  0  0  0  0  0  0  0  0  0  0  0  0  # atno 4301 bound_to 2510
    2.8316   -8.8379    4.5362 LP  0  0  0  0  0  0  0  0  0  0  0  0  # atno 4302 bound_to 2510
   -2.8102  -17.9790   13.2113 LP  0  0  0  0  0  0  0  0  0  0  0  0  # atno 4306 bound_to 3712
   -2.8638  -17.6378   14.8073 LP  0  0  0  0  0  0  0  0  0  0  0  0  # atno 4307 bound_to 3712
    2.5037  -19.7870    8.1454 LP  0  0  0  0  0  0  0  0  0  0  0  0  # atno 4314 bound_to 3832
    2.8907  -21.0805    9.0639 LP  0  0  0  0  0  0  0  0  0  0  0  0  # atno 4315 bound_to 3832
   -5.5085  -22.1937   10.6047 LP  0  0  0  0  0  0  0  0  0  0  0  0  # atno 4318 bound_to 3762
   -4.2513  -22.3522   11.6347 LP  0  0  0  0  0  0  0  0  0  0  0  0  # atno 4319 bound_to 3762
   -3.7392   -4.9031    8.1687 LP  0  0  0  0  0  0  0  0  0  0  0  0  # atno 4320 bound_to 2467
   -4.6164   -5.4545    9.4309 LP  0  0  0  0  0  0  0  0  0  0  0  0  # atno 4321 bound_to 2467

> <Gold.Score>
     Score     S(PLP)   S(hbond)     S(cho)   S(metal)  DE(clash)   DE(tors)     intcor
     58.79     -54.90       1.40       0.00       0.00       0.00       0.16       0.00

> <Gold.PLP.Fitness>
58.7927

> <Gold.PLP.PLP>
-54.8958

> <Gold.PLP.part.hbond>
-2.0000

> <Gold.PLP.part.metal>
0.0000

> <Gold.PLP.part.buried>
-5.7040

> <Gold.PLP.part.nonpolar>
-48.2986

> <Gold.PLP.part.repulsive>
0.1406

> <Gold.PLP.ligand.clash>
0.0000

> <Gold.PLP.ligand.torsion>
0.1553

> <Gold.PLP.Chemscore.Hbond>
1.4025

> <Gold.PLP.Chemscore.CHOScore>
0.0000

> <Gold.PLP.Chemscore.Metal>
0.0000

> <Gold.Chemscore.Hbonds>
donor molecule, donor type, donor heavy atom, donor atom, acceptor molecule, acceptor atom, score
      L1  H    17    31       P1  2398  0.40
      P1  H  3832  3841       L1     4  1.00

> <Gold.PLP.Chemscore.Internal.Correction>
0.0000

