#       Name:                EN300-27699_i001
#       Creating user name   fsindt
#       Creation time:       Mon Feb 27 17:10:26 2023


#       File generated by GOLD software.
#

@<TRIPOS>MOLECULE
EN300-27699_i001|amine_1|mol2|11|dock16
    32    33     1
SMALL
USER_CHARGES


@<TRIPOS>ATOM
      1 C1          -4.5748 -10.1431  10.1517 C.3            1 <1>                0.0000
      2 O2          -3.5043 -10.9557   9.6021 O.3            1 <1>                0.0000
      3 C3          -2.3596 -11.0191  10.3095 C.2            1 <1>                0.0000
      4 O4          -2.1744 -10.2544  11.2348 O.2            1 <1>                0.0000
      5 C5          -1.3296 -12.0189   9.9598 C.ar           1 <1>                0.0000
      6 C6          -0.6929 -11.9631   8.7174 C.ar           1 <1>                0.0000
      7 C7           0.2706 -12.8963   8.3885 C.ar           1 <1>                0.0000
      8 C8           0.6121 -13.8902   9.2833 C.ar           1 <1>                0.0000
      9 C9          -0.0169 -13.9589  10.5303 C.ar           1 <1>                0.0000
     10 C10          0.3382 -14.9907  11.4577 C.1            1 <1>                0.0000
     11 C11          0.6294 -15.8365  12.2180 C.1            1 <1>                0.0000
     12 C12          0.9846 -16.8683  13.1453 C.ar           1 <1>                0.0000
     13 C13          1.9737 -16.6384  14.1053 C.ar           1 <1>                0.0000
     14 C14          2.3137 -17.6347  14.9975 C.ar           1 <1>                0.0000
     15 C15          1.6796 -18.8617  14.9457 C.ar           1 <1>                0.0000
     16 C16          0.6941 -19.1014  13.9942 C.ar           1 <1>                0.0000
     17 N17          0.0566 -20.3436  13.9467 N.pl3          1 <1>                0.0000
     18 C18          0.3397 -18.1060  13.0974 C.ar           1 <1>                0.0000
     19 C19         -0.9867 -13.0163  10.8709 C.ar           1 <1>                0.0000
     20 H20         -4.2342  -9.1123  10.2508 H              1 <1>                0.0000
     21 H21         -5.4366 -10.1785   9.4853 H              1 <1>                0.0000
     22 H22         -4.8569 -10.5283  11.1315 H              1 <1>                0.0000
     23 H23         -0.9553 -11.1883   8.0122 H              1 <1>                0.0000
     24 H24          0.7590 -12.8482   7.4266 H              1 <1>                0.0000
     25 H25          1.3665 -14.6166   9.0195 H              1 <1>                0.0000
     26 H26          2.4722 -15.6813  14.1488 H              1 <1>                0.0000
     27 H27          3.0784 -17.4551  15.7386 H              1 <1>                0.0000
     28 H28          1.9506 -19.6374  15.6466 H              1 <1>                0.0000
     29 H29         -0.4255 -18.2902  12.3579 H              1 <1>                0.0000
     30 H30         -1.4756 -13.0640  11.8327 H              1 <1>                0.0000
     31 H31          0.3014 -21.0387  14.5774 H              1 <1>                0.0000
     32 H32         -0.6308 -20.5109  13.2831 H              1 <1>                0.0000
@<TRIPOS>BOND
    1    1    2 1     
    2    1   20 1     
    3    1   21 1     
    4    1   22 1     
    5    2    3 1     
    6    3    4 2     
    7    3    5 1     
    8    5    6 ar    
    9    5   19 ar    
   10    6    7 ar    
   11    6   23 1     
   12    7    8 ar    
   13    7   24 1     
   14    8    9 ar    
   15    8   25 1     
   16    9   10 1     
   17    9   19 ar    
   18   10   11 3     
   19   11   12 1     
   20   12   13 ar    
   21   12   18 ar    
   22   13   14 ar    
   23   13   26 1     
   24   14   15 ar    
   25   14   27 1     
   26   15   16 ar    
   27   15   28 1     
   28   16   17 1     
   29   16   18 ar    
   30   17   31 1     
   31   17   32 1     
   32   18   29 1     
   33   19   30 1     
@<TRIPOS>SUBSTRUCTURE
      1 ****           1
@<TRIPOS>SET
DONOR_HYDROGENS      STATIC     ATOMS    <user>   **** ""
2 31 32
ATOM$RED        STATIC     ATOMS    COLORGROUP SYSTEM
2 31 32
@<TRIPOS>COMMENT
> <Gold.Version>
2022.2.0

> <Gold.Id.Protein>
3pbl|protein|mol2

> <Gold.Protein.RotatedTorsions>
[ 1303 1298 1297 1294 ] final  -38.90 input  179.99 | X-H torsion
[ 2461 2456 2455 2452 ] final   69.25 input   30.03 | X-H torsion
[ 2515 2510 2509 2506 ] final   17.27 input  -89.99 | X-H torsion
[ 3721 3712 3711 3710 ] final   -2.82 input -179.91 | X-H torsion
[ 3841 3832 3831 3830 ] final   42.17 input -179.91 | X-H torsion
[ 3767 3762 3761 3758 ] final -143.70 input  -89.99 | X-H torsion
[ 2472 2467 2466 2463 ] final   74.34 input  -89.97 | X-H torsion

> <Gold.Protein.ActiveResidues>
 VAL82   VAL86   LEU89   PHE106  VAL107  ASP110  VAL111  MET112  CYS114  THR115 
 CYS181  SER182  ILE183  PHE188  VAL189  ILE190  SER192  SER193  SER196  TRP342 
 PHE345  PHE346  HIS349  VAL350  TYR365  THR369  GLY372  TYR373 

> <Gold.Protein.RotatedAtoms>
    3.3643   -9.2929    3.8073 H   0  0  0  0  0  0  0  0  0  0  0  0  # atno 1303 bound_to 1298
    2.0077   -8.0997    7.4795 H   0  0  0  0  0  0  0  0  0  0  0  0  # atno 2461 bound_to 2456
   -4.8724   -4.8580    7.6954 H   0  0  0  0  0  0  0  0  0  0  0  0  # atno 2472 bound_to 2467
    2.4207   -7.4830    4.8183 H   0  0  0  0  0  0  0  0  0  0  0  0  # atno 2515 bound_to 2510
   -2.4934  -17.9394   14.2809 H   0  0  0  0  0  0  0  0  0  0  0  0  # atno 3721 bound_to 3712
   -4.5193  -22.1334   11.6390 H   0  0  0  0  0  0  0  0  0  0  0  0  # atno 3767 bound_to 3762
    2.2272  -20.8688    9.5969 H   0  0  0  0  0  0  0  0  0  0  0  0  # atno 3841 bound_to 3832
    4.7003   -8.6394    4.4814 LP  0  0  0  0  0  0  0  0  0  0  0  0  # atno 4297 bound_to 1298
    4.2979  -10.1890    4.8031 LP  0  0  0  0  0  0  0  0  0  0  0  0  # atno 4298 bound_to 1298
    0.4255   -8.4503    7.2773 LP  0  0  0  0  0  0  0  0  0  0  0  0  # atno 4299 bound_to 2456
    1.3048   -9.2581    8.3913 LP  0  0  0  0  0  0  0  0  0  0  0  0  # atno 4300 bound_to 2456
    2.7875   -9.0729    4.7611 LP  0  0  0  0  0  0  0  0  0  0  0  0  # atno 4301 bound_to 2510
    2.0886   -8.4436    6.0961 LP  0  0  0  0  0  0  0  0  0  0  0  0  # atno 4302 bound_to 2510
   -3.4574  -16.6626   14.4159 LP  0  0  0  0  0  0  0  0  0  0  0  0  # atno 4306 bound_to 3712
   -3.1917  -17.3523   12.9597 LP  0  0  0  0  0  0  0  0  0  0  0  0  # atno 4307 bound_to 3712
    1.5956  -19.7310    8.6575 LP  0  0  0  0  0  0  0  0  0  0  0  0  # atno 4314 bound_to 3832
    3.0610  -20.3677    8.3202 LP  0  0  0  0  0  0  0  0  0  0  0  0  # atno 4315 bound_to 3832
   -4.1290  -23.3154   10.5819 LP  0  0  0  0  0  0  0  0  0  0  0  0  # atno 4318 bound_to 3762
   -5.4790  -22.4261   10.3505 LP  0  0  0  0  0  0  0  0  0  0  0  0  # atno 4319 bound_to 3762
   -3.6529   -5.1042    8.7529 LP  0  0  0  0  0  0  0  0  0  0  0  0  # atno 4320 bound_to 2467
   -5.1917   -5.4313    9.1907 LP  0  0  0  0  0  0  0  0  0  0  0  0  # atno 4321 bound_to 2467

> <Gold.Score>
     Score     S(PLP)   S(hbond)     S(cho)   S(metal)  DE(clash)   DE(tors)     intcor
     57.74     -60.40       0.00       0.00       0.00       0.00       1.33       0.00

> <Gold.PLP.Fitness>
57.7442

> <Gold.PLP.PLP>
-60.4013

> <Gold.PLP.part.hbond>
0.0000

> <Gold.PLP.part.metal>
0.0000

> <Gold.PLP.part.buried>
-6.8493

> <Gold.PLP.part.nonpolar>
-54.4226

> <Gold.PLP.part.repulsive>
0.0977

> <Gold.PLP.ligand.clash>
0.0000

> <Gold.PLP.ligand.torsion>
1.3286

> <Gold.PLP.Chemscore.Hbond>
0.0000

> <Gold.PLP.Chemscore.CHOScore>
0.0000

> <Gold.PLP.Chemscore.Metal>
0.0000

> <Gold.PLP.Chemscore.Internal.Correction>
0.0000

