#       Name:                EN300-27699_i001
#       Creating user name   fsindt
#       Creation time:       Mon Feb 27 17:10:27 2023


#       File generated by GOLD software.
#

@<TRIPOS>MOLECULE
EN300-27699_i001|amine_1|mol2|11|dock17
    32    33     1
SMALL
USER_CHARGES


@<TRIPOS>ATOM
      1 C1          -4.6295  -9.9938  10.1340 C.3            1 <1>                0.0000
      2 O2          -3.4796 -10.8640  10.3039 O.3            1 <1>                0.0000
      3 C3          -2.3369 -10.4934   9.6946 C.2            1 <1>                0.0000
      4 O4          -2.2015  -9.3528   9.2994 O.2            1 <1>                0.0000
      5 C5          -1.2480 -11.4744   9.5070 C.ar           1 <1>                0.0000
      6 C6          -0.3337 -11.3143   8.4628 C.ar           1 <1>                0.0000
      7 C7           0.6851 -12.2298   8.2859 C.ar           1 <1>                0.0000
      8 C8           0.8084 -13.3086   9.1379 C.ar           1 <1>                0.0000
      9 C9          -0.0996 -13.4820  10.1873 C.ar           1 <1>                0.0000
     10 C10          0.0293 -14.6017  11.0706 C.1            1 <1>                0.0000
     11 C11          0.1350 -15.5197  11.7947 C.1            1 <1>                0.0000
     12 C12          0.2639 -16.6395  12.6780 C.ar           1 <1>                0.0000
     13 C13          1.0543 -16.5397  13.8261 C.ar           1 <1>                0.0000
     14 C14          1.1766 -17.6206  14.6753 C.ar           1 <1>                0.0000
     15 C15          0.5199 -18.8040  14.3948 C.ar           1 <1>                0.0000
     16 C16         -0.2688 -18.9144  13.2548 C.ar           1 <1>                0.0000
     17 N17         -0.9302 -20.1130  12.9765 N.pl3          1 <1>                0.0000
     18 C18         -0.4043 -17.8333  12.3983 C.ar           1 <1>                0.0000
     19 C19         -1.1274 -12.5581  10.3749 C.ar           1 <1>                0.0000
     20 H20         -4.8740  -9.9174   9.0745 H              1 <1>                0.0000
     21 H21         -5.4811 -10.4072  10.6745 H              1 <1>                0.0000
     22 H22         -4.3967  -9.0035  10.5255 H              1 <1>                0.0000
     23 H23         -0.4242 -10.4728   7.7920 H              1 <1>                0.0000
     24 H24          1.3887 -12.1010   7.4767 H              1 <1>                0.0000
     25 H25          1.6076 -14.0205   8.9937 H              1 <1>                0.0000
     26 H26          1.5697 -15.6170  14.0487 H              1 <1>                0.0000
     27 H27          1.7879 -17.5415  15.5621 H              1 <1>                0.0000
     28 H28          0.6201 -19.6463  15.0632 H              1 <1>                0.0000
     29 H29         -1.0167 -17.9169  11.5126 H              1 <1>                0.0000
     30 H30         -1.8314 -12.6865  11.1838 H              1 <1>                0.0000
     31 H31         -0.8391 -20.8682  13.5784 H              1 <1>                0.0000
     32 H32         -1.4804 -20.1901  12.1814 H              1 <1>                0.0000
@<TRIPOS>BOND
    1    1    2 1     
    2    1   20 1     
    3    1   21 1     
    4    1   22 1     
    5    2    3 1     
    6    3    4 2     
    7    3    5 1     
    8    5    6 ar    
    9    5   19 ar    
   10    6    7 ar    
   11    6   23 1     
   12    7    8 ar    
   13    7   24 1     
   14    8    9 ar    
   15    8   25 1     
   16    9   10 1     
   17    9   19 ar    
   18   10   11 3     
   19   11   12 1     
   20   12   13 ar    
   21   12   18 ar    
   22   13   14 ar    
   23   13   26 1     
   24   14   15 ar    
   25   14   27 1     
   26   15   16 ar    
   27   15   28 1     
   28   16   17 1     
   29   16   18 ar    
   30   17   31 1     
   31   17   32 1     
   32   18   29 1     
   33   19   30 1     
@<TRIPOS>SUBSTRUCTURE
      1 ****           1
@<TRIPOS>SET
DONOR_HYDROGENS      STATIC     ATOMS    <user>   **** ""
2 31 32
ATOM$RED        STATIC     ATOMS    COLORGROUP SYSTEM
2 31 32
@<TRIPOS>COMMENT
> <Gold.Version>
2022.2.0

> <Gold.Id.Protein>
3pbl|protein|mol2

> <Gold.Protein.RotatedTorsions>
[ 1303 1298 1297 1294 ] final -114.25 input  179.99 | X-H torsion
[ 2461 2456 2455 2452 ] final   -5.13 input   30.03 | X-H torsion
[ 2515 2510 2509 2506 ] final  -11.90 input  -89.99 | X-H torsion
[ 3721 3712 3711 3710 ] final   74.80 input -179.91 | X-H torsion
[ 3841 3832 3831 3830 ] final  126.91 input -179.91 | X-H torsion
[ 3767 3762 3761 3758 ] final  -68.14 input  -89.99 | X-H torsion
[ 2472 2467 2466 2463 ] final  -89.62 input  -89.97 | X-H torsion

> <Gold.Protein.ActiveResidues>
 VAL82   VAL86   LEU89   PHE106  VAL107  ASP110  VAL111  MET112  CYS114  THR115 
 CYS181  SER182  ILE183  PHE188  VAL189  ILE190  SER192  SER193  SER196  TRP342 
 PHE345  PHE346  HIS349  VAL350  TYR365  THR369  GLY372  TYR373 

> <Gold.Protein.RotatedAtoms>
    4.1539   -8.4879    4.0436 H   0  0  0  0  0  0  0  0  0  0  0  0  # atno 1303 bound_to 1298
    0.9620   -8.0179    7.0328 H   0  0  0  0  0  0  0  0  0  0  0  0  # atno 2461 bound_to 2456
   -4.0382   -5.3424    9.2940 H   0  0  0  0  0  0  0  0  0  0  0  0  # atno 2472 bound_to 2467
    2.6187   -7.7677    4.4944 H   0  0  0  0  0  0  0  0  0  0  0  0  # atno 2515 bound_to 2510
   -2.6786  -17.7804   13.2230 H   0  0  0  0  0  0  0  0  0  0  0  0  # atno 3721 bound_to 3712
   -5.4165  -22.0049   10.9224 H   0  0  0  0  0  0  0  0  0  0  0  0  # atno 3767 bound_to 3762
    3.1098  -20.6596    8.8631 H   0  0  0  0  0  0  0  0  0  0  0  0  # atno 3841 bound_to 3832
    4.7888   -9.6886    4.9500 LP  0  0  0  0  0  0  0  0  0  0  0  0  # atno 4297 bound_to 1298
    3.4195   -9.9452    4.0981 LP  0  0  0  0  0  0  0  0  0  0  0  0  # atno 4298 bound_to 1298
    0.6342   -9.2057    8.1048 LP  0  0  0  0  0  0  0  0  0  0  0  0  # atno 4299 bound_to 2456
    2.1414   -8.5844    8.0103 LP  0  0  0  0  0  0  0  0  0  0  0  0  # atno 4300 bound_to 2456
    2.6490   -9.2495    5.1795 LP  0  0  0  0  0  0  0  0  0  0  0  0  # atno 4301 bound_to 2510
    2.0289   -7.9822    6.0017 LP  0  0  0  0  0  0  0  0  0  0  0  0  # atno 4302 bound_to 2510
   -2.8677  -17.6305   14.8103 LP  0  0  0  0  0  0  0  0  0  0  0  0  # atno 4306 bound_to 3712
   -3.5675  -16.5680   13.7866 LP  0  0  0  0  0  0  0  0  0  0  0  0  # atno 4307 bound_to 3712
    1.6386  -20.7049    9.5029 LP  0  0  0  0  0  0  0  0  0  0  0  0  # atno 4314 bound_to 3832
    1.9985  -19.6355    8.3225 LP  0  0  0  0  0  0  0  0  0  0  0  0  # atno 4315 bound_to 3832
   -4.0283  -22.6338   11.5091 LP  0  0  0  0  0  0  0  0  0  0  0  0  # atno 4318 bound_to 3762
   -4.6828  -23.2361   10.1396 LP  0  0  0  0  0  0  0  0  0  0  0  0  # atno 4319 bound_to 3762
   -5.5069   -5.2482    8.5866 LP  0  0  0  0  0  0  0  0  0  0  0  0  # atno 4320 bound_to 2467
   -4.1717   -4.8029    7.7586 LP  0  0  0  0  0  0  0  0  0  0  0  0  # atno 4321 bound_to 2467

> <Gold.Score>
     Score     S(PLP)   S(hbond)     S(cho)   S(metal)  DE(clash)   DE(tors)     intcor
     57.07     -58.08       0.00       0.00       0.00       0.00       0.51       0.00

> <Gold.PLP.Fitness>
57.0652

> <Gold.PLP.PLP>
-58.0766

> <Gold.PLP.part.hbond>
-0.8789

> <Gold.PLP.part.metal>
0.0000

> <Gold.PLP.part.buried>
-6.4965

> <Gold.PLP.part.nonpolar>
-51.2440

> <Gold.PLP.part.repulsive>
0.1618

> <Gold.PLP.ligand.clash>
0.0000

> <Gold.PLP.ligand.torsion>
0.5057

> <Gold.PLP.Chemscore.Hbond>
0.0000

> <Gold.PLP.Chemscore.CHOScore>
0.0000

> <Gold.PLP.Chemscore.Metal>
0.0000

> <Gold.PLP.Chemscore.Internal.Correction>
0.0000

