#       Name:                EN300-27699_i001
#       Creating user name   fsindt
#       Creation time:       Mon Feb 27 17:10:13 2023


#       File generated by GOLD software.
#

@<TRIPOS>MOLECULE
EN300-27699_i001|amine_1|mol2|11|dock1
    32    33     1
SMALL
USER_CHARGES


@<TRIPOS>ATOM
      1 C1          -4.6113 -10.2069  10.2218 C.3            1 <1>                0.0000
      2 O2          -3.5300 -11.1692  10.1066 O.3            1 <1>                0.0000
      3 C3          -2.3576 -10.7166   9.6216 C.2            1 <1>                0.0000
      4 O4          -2.2418  -9.5503   9.3030 O.2            1 <1>                0.0000
      5 C5          -1.2125 -11.6391   9.4775 C.ar           1 <1>                0.0000
      6 C6          -0.3664 -11.5372   8.3703 C.ar           1 <1>                0.0000
      7 C7           0.7048 -12.3980   8.2337 C.ar           1 <1>                0.0000
      8 C8           0.9482 -13.3646   9.1885 C.ar           1 <1>                0.0000
      9 C9           0.1097 -13.4787  10.3018 C.ar           1 <1>                0.0000
     10 C10          0.3633 -14.4820  11.2917 C.1            1 <1>                0.0000
     11 C11          0.5711 -15.3046  12.1031 C.1            1 <1>                0.0000
     12 C12          0.8247 -16.3079  13.0930 C.ar           1 <1>                0.0000
     13 C13          2.1374 -16.6820  13.3922 C.ar           1 <1>                0.0000
     14 C14          2.3785 -17.6492  14.3465 C.ar           1 <1>                0.0000
     15 C15          1.3253 -18.2512  15.0089 C.ar           1 <1>                0.0000
     16 C16          0.0150 -17.8868  14.7187 C.ar           1 <1>                0.0000
     17 N17         -1.0454 -18.4988  15.3916 N.pl3          1 <1>                0.0000
     18 C18         -0.2388 -16.9119  13.7670 C.ar           1 <1>                0.0000
     19 C19         -0.9705 -12.6089  10.4487 C.ar           1 <1>                0.0000
     20 H20         -4.8398  -9.7976   9.2376 H              1 <1>                0.0000
     21 H21         -5.4958 -10.7006  10.6242 H              1 <1>                0.0000
     22 H22         -4.3099  -9.4000  10.8897 H              1 <1>                0.0000
     23 H23         -0.5510 -10.7835   7.6191 H              1 <1>                0.0000
     24 H24          1.3551 -12.3146   7.3755 H              1 <1>                0.0000
     25 H25          1.7878 -14.0343   9.0753 H              1 <1>                0.0000
     26 H26          2.9632 -16.2145  12.8763 H              1 <1>                0.0000
     27 H27          3.3937 -17.9370  14.5762 H              1 <1>                0.0000
     28 H28          1.5207 -19.0077  15.7545 H              1 <1>                0.0000
     29 H29         -1.2557 -16.6273  13.5404 H              1 <1>                0.0000
     30 H30         -1.6213 -12.6920  11.3066 H              1 <1>                0.0000
     31 H31         -0.8676 -19.1778  16.0611 H              1 <1>                0.0000
     32 H32         -1.9593 -18.2447  15.1893 H              1 <1>                0.0000
@<TRIPOS>BOND
    1    1    2 1     
    2    1   20 1     
    3    1   21 1     
    4    1   22 1     
    5    2    3 1     
    6    3    4 2     
    7    3    5 1     
    8    5    6 ar    
    9    5   19 ar    
   10    6    7 ar    
   11    6   23 1     
   12    7    8 ar    
   13    7   24 1     
   14    8    9 ar    
   15    8   25 1     
   16    9   10 1     
   17    9   19 ar    
   18   10   11 3     
   19   11   12 1     
   20   12   13 ar    
   21   12   18 ar    
   22   13   14 ar    
   23   13   26 1     
   24   14   15 ar    
   25   14   27 1     
   26   15   16 ar    
   27   15   28 1     
   28   16   17 1     
   29   16   18 ar    
   30   17   31 1     
   31   17   32 1     
   32   18   29 1     
   33   19   30 1     
@<TRIPOS>SUBSTRUCTURE
      1 ****           1
@<TRIPOS>SET
DONOR_HYDROGENS      STATIC     ATOMS    <user>   **** ""
2 31 32
ATOM$RED        STATIC     ATOMS    COLORGROUP SYSTEM
2 31 32
@<TRIPOS>COMMENT
> <Gold.Version>
2022.2.0

> <Gold.Id.Protein>
3pbl|protein|mol2

> <Gold.Protein.RotatedTorsions>
[ 1303 1298 1297 1294 ] final  127.13 input  179.99 | X-H torsion
[ 2461 2456 2455 2452 ] final -154.81 input   30.03 | X-H torsion
[ 2515 2510 2509 2506 ] final  -64.16 input  -89.99 | X-H torsion
[ 3721 3712 3711 3710 ] final -140.45 input -179.91 | X-H torsion
[ 3841 3832 3831 3830 ] final  145.45 input -179.91 | X-H torsion
[ 3767 3762 3761 3758 ] final   14.52 input  -89.99 | X-H torsion
[ 2472 2467 2466 2463 ] final  -69.45 input  -89.97 | X-H torsion

> <Gold.Protein.ActiveResidues>
 VAL82   VAL86   LEU89   PHE106  VAL107  ASP110  VAL111  MET112  CYS114  THR115 
 CYS181  SER182  ILE183  PHE188  VAL189  ILE190  SER192  SER193  SER196  TRP342 
 PHE345  PHE346  HIS349  VAL350  TYR365  THR369  GLY372  TYR373 

> <Gold.Protein.RotatedAtoms>
    4.7983   -9.6680    4.9493 H   0  0  0  0  0  0  0  0  0  0  0  0  # atno 1303 bound_to 1298
    1.0515   -9.2886    8.3334 H   0  0  0  0  0  0  0  0  0  0  0  0  # atno 2461 bound_to 2456
   -3.8052   -5.2408    9.0834 H   0  0  0  0  0  0  0  0  0  0  0  0  # atno 2472 bound_to 2467
    2.8294   -8.5654    4.4026 H   0  0  0  0  0  0  0  0  0  0  0  0  # atno 2515 bound_to 2510
   -3.3030  -16.5499   14.1296 H   0  0  0  0  0  0  0  0  0  0  0  0  # atno 3721 bound_to 3712
   -5.1741  -22.8905   10.0808 H   0  0  0  0  0  0  0  0  0  0  0  0  # atno 3767 bound_to 3762
    3.1309  -20.4591    8.6705 H   0  0  0  0  0  0  0  0  0  0  0  0  # atno 3841 bound_to 3832
    3.4284   -9.9616    4.1107 LP  0  0  0  0  0  0  0  0  0  0  0  0  # atno 4297 bound_to 1298
    4.1352   -8.4916    4.0314 LP  0  0  0  0  0  0  0  0  0  0  0  0  # atno 4298 bound_to 1298
    2.1177   -8.2473    7.6653 LP  0  0  0  0  0  0  0  0  0  0  0  0  # atno 4299 bound_to 2456
    0.5685   -8.2724    7.1496 LP  0  0  0  0  0  0  0  0  0  0  0  0  # atno 4300 bound_to 2456
    2.2956   -8.9919    5.8855 LP  0  0  0  0  0  0  0  0  0  0  0  0  # atno 4301 bound_to 2510
    2.1715   -7.4417    5.3875 LP  0  0  0  0  0  0  0  0  0  0  0  0  # atno 4302 bound_to 2510
   -3.0201  -17.6468   12.9918 LP  0  0  0  0  0  0  0  0  0  0  0  0  # atno 4306 bound_to 3712
   -2.6942  -17.9724   14.5584 LP  0  0  0  0  0  0  0  0  0  0  0  0  # atno 4307 bound_to 3712
    1.8644  -20.9103    9.5470 LP  0  0  0  0  0  0  0  0  0  0  0  0  # atno 4314 bound_to 3832
    1.7483  -19.6617    8.5009 LP  0  0  0  0  0  0  0  0  0  0  0  0  # atno 4315 bound_to 3832
   -5.0426  -21.9216   11.3888 LP  0  0  0  0  0  0  0  0  0  0  0  0  # atno 4318 bound_to 3762
   -3.9108  -23.0630   11.1012 LP  0  0  0  0  0  0  0  0  0  0  0  0  # atno 4319 bound_to 3762
   -5.4230   -5.3483    8.8898 LP  0  0  0  0  0  0  0  0  0  0  0  0  # atno 4320 bound_to 2467
   -4.4886   -4.8044    7.6660 LP  0  0  0  0  0  0  0  0  0  0  0  0  # atno 4321 bound_to 2467

> <Gold.Score>
     Score     S(PLP)   S(hbond)     S(cho)   S(metal)  DE(clash)   DE(tors)     intcor
     64.72     -62.89       1.00       0.00       0.00       0.00       0.58       0.00

> <Gold.PLP.Fitness>
64.7165

> <Gold.PLP.PLP>
-62.8860

> <Gold.PLP.part.hbond>
-1.2767

> <Gold.PLP.part.metal>
0.0000

> <Gold.PLP.part.buried>
-6.3826

> <Gold.PLP.part.nonpolar>
-56.2587

> <Gold.PLP.part.repulsive>
0.1321

> <Gold.PLP.ligand.clash>
0.0000

> <Gold.PLP.ligand.torsion>
0.5848

> <Gold.PLP.Chemscore.Hbond>
1.0000

> <Gold.PLP.Chemscore.CHOScore>
0.0000

> <Gold.PLP.Chemscore.Metal>
0.0000

> <Gold.Chemscore.Hbonds>
donor molecule, donor type, donor heavy atom, donor atom, acceptor molecule, acceptor atom, score
      L1  H    17    32       P1  3712  1.00

> <Gold.PLP.Chemscore.Internal.Correction>
0.0000

