#       Name:                EN300-27699_i001
#       Creating user name   fsindt
#       Creation time:       Mon Feb 27 17:10:25 2023


#       File generated by GOLD software.
#

@<TRIPOS>MOLECULE
EN300-27699_i001|amine_1|mol2|11|dock15
    32    33     1
SMALL
USER_CHARGES


@<TRIPOS>ATOM
      1 C1          -4.1035  -9.9427   9.9083 C.3            1 <1>                0.0000
      2 O2          -3.0823 -10.9742   9.9483 O.3            1 <1>                0.0000
      3 C3          -1.8980 -10.6850   9.3753 C.2            1 <1>                0.0000
      4 O4          -1.6673  -9.5547   8.9951 O.2            1 <1>                0.0000
      5 C5          -0.8797 -11.7426   9.2095 C.ar           1 <1>                0.0000
      6 C6          -0.0856 -11.7759   8.0605 C.ar           1 <1>                0.0000
      7 C7           0.8672 -12.7633   7.9036 C.ar           1 <1>                0.0000
      8 C8           1.0426 -13.7237   8.8792 C.ar           1 <1>                0.0000
      9 C9           0.2549 -13.7033  10.0345 C.ar           1 <1>                0.0000
     10 C10          0.4378 -14.7003  11.0460 C.1            1 <1>                0.0000
     11 C11          0.5879 -15.5177  11.8752 C.1            1 <1>                0.0000
     12 C12          0.7708 -16.5148  12.8867 C.ar           1 <1>                0.0000
     13 C13         -0.1324 -17.5753  12.9976 C.ar           1 <1>                0.0000
     14 C14          0.0466 -18.5344  13.9734 C.ar           1 <1>                0.0000
     15 C15          1.1171 -18.4508  14.8437 C.ar           1 <1>                0.0000
     16 C16          2.0218 -17.3995  14.7425 C.ar           1 <1>                0.0000
     17 N17          3.1019 -17.3202  15.6250 N.pl3          1 <1>                0.0000
     18 C18          1.8557 -16.4341  13.7621 C.ar           1 <1>                0.0000
     19 C19         -0.7052 -12.7056  10.2017 C.ar           1 <1>                0.0000
     20 H20         -4.3320  -9.6977   8.8710 H              1 <1>                0.0000
     21 H21         -5.0048 -10.3043  10.4033 H              1 <1>                0.0000
     22 H22         -3.7401  -9.0518  10.4205 H              1 <1>                0.0000
     23 H23         -0.2176 -11.0279   7.2928 H              1 <1>                0.0000
     24 H24          1.4777 -12.7842   7.0130 H              1 <1>                0.0000
     25 H25          1.7896 -14.4929   8.7499 H              1 <1>                0.0000
     26 H26         -0.9707 -17.6440  12.3200 H              1 <1>                0.0000
     27 H27         -0.6526 -19.3532  14.0576 H              1 <1>                0.0000
     28 H28          1.2513 -19.2045  15.6054 H              1 <1>                0.0000
     29 H29          2.5574 -15.6170  13.6818 H              1 <1>                0.0000
     30 H30         -1.3163 -12.6844  11.0920 H              1 <1>                0.0000
     31 H31          3.2207 -17.9985  16.3082 H              1 <1>                0.0000
     32 H32          3.7330 -16.5870  15.5544 H              1 <1>                0.0000
@<TRIPOS>BOND
    1    1    2 1     
    2    1   20 1     
    3    1   21 1     
    4    1   22 1     
    5    2    3 1     
    6    3    4 2     
    7    3    5 1     
    8    5    6 ar    
    9    5   19 ar    
   10    6    7 ar    
   11    6   23 1     
   12    7    8 ar    
   13    7   24 1     
   14    8    9 ar    
   15    8   25 1     
   16    9   10 1     
   17    9   19 ar    
   18   10   11 3     
   19   11   12 1     
   20   12   13 ar    
   21   12   18 ar    
   22   13   14 ar    
   23   13   26 1     
   24   14   15 ar    
   25   14   27 1     
   26   15   16 ar    
   27   15   28 1     
   28   16   17 1     
   29   16   18 ar    
   30   17   31 1     
   31   17   32 1     
   32   18   29 1     
   33   19   30 1     
@<TRIPOS>SUBSTRUCTURE
      1 ****           1
@<TRIPOS>SET
DONOR_HYDROGENS      STATIC     ATOMS    <user>   **** ""
2 31 32
ATOM$RED        STATIC     ATOMS    COLORGROUP SYSTEM
2 31 32
@<TRIPOS>COMMENT
> <Gold.Version>
2022.2.0

> <Gold.Id.Protein>
3pbl|protein|mol2

> <Gold.Protein.RotatedTorsions>
[ 1303 1298 1297 1294 ] final   98.54 input  179.99 | X-H torsion
[ 2461 2456 2455 2452 ] final -112.80 input   30.03 | X-H torsion
[ 2515 2510 2509 2506 ] final   36.97 input  -89.99 | X-H torsion
[ 3721 3712 3711 3710 ] final    9.95 input -179.91 | X-H torsion
[ 3841 3832 3831 3830 ] final  -88.54 input -179.91 | X-H torsion
[ 3767 3762 3761 3758 ] final  -91.05 input  -89.99 | X-H torsion
[ 2472 2467 2466 2463 ] final   10.24 input  -89.97 | X-H torsion

> <Gold.Protein.ActiveResidues>
 VAL82   VAL86   LEU89   PHE106  VAL107  ASP110  VAL111  MET112  CYS114  THR115 
 CYS181  SER182  ILE183  PHE188  VAL189  ILE190  SER192  SER193  SER196  TRP342 
 PHE345  PHE346  HIS349  VAL350  TYR365  THR369  GLY372  TYR373 

> <Gold.Protein.RotatedAtoms>
    4.5205  -10.0381    4.8999 H   0  0  0  0  0  0  0  0  0  0  0  0  # atno 1303 bound_to 1298
    0.5027   -9.1221    7.9755 H   0  0  0  0  0  0  0  0  0  0  0  0  # atno 2461 bound_to 2456
   -3.9042   -4.8423    7.9472 H   0  0  0  0  0  0  0  0  0  0  0  0  # atno 2472 bound_to 2467
    2.2854   -7.4103    5.1019 H   0  0  0  0  0  0  0  0  0  0  0  0  # atno 2515 bound_to 2510
   -2.4724  -18.0041   14.1005 H   0  0  0  0  0  0  0  0  0  0  0  0  # atno 3721 bound_to 3712
   -5.2136  -21.9184   11.2250 H   0  0  0  0  0  0  0  0  0  0  0  0  # atno 3767 bound_to 3762
    1.8368  -19.6209    8.7213 H   0  0  0  0  0  0  0  0  0  0  0  0  # atno 3841 bound_to 3832
    3.3295   -9.5648    3.8880 LP  0  0  0  0  0  0  0  0  0  0  0  0  # atno 4297 bound_to 1298
    4.5120   -8.5181    4.3035 LP  0  0  0  0  0  0  0  0  0  0  0  0  # atno 4298 bound_to 1298
    2.0803   -8.7312    8.1357 LP  0  0  0  0  0  0  0  0  0  0  0  0  # atno 4299 bound_to 2456
    1.1545   -7.9550    7.0371 LP  0  0  0  0  0  0  0  0  0  0  0  0  # atno 4300 bound_to 2456
    2.8313   -8.8426    4.5395 LP  0  0  0  0  0  0  0  0  0  0  0  0  # atno 4301 bound_to 2510
    2.1801   -8.7467    6.0339 LP  0  0  0  0  0  0  0  0  0  0  0  0  # atno 4302 bound_to 2510
   -3.3805  -16.7709   14.5825 LP  0  0  0  0  0  0  0  0  0  0  0  0  # atno 4306 bound_to 3712
   -3.2928  -17.1694   13.0013 LP  0  0  0  0  0  0  0  0  0  0  0  0  # atno 4307 bound_to 3712
    3.1176  -20.5485    8.4471 LP  0  0  0  0  0  0  0  0  0  0  0  0  # atno 4314 bound_to 3832
    1.9900  -20.9917    9.5421 LP  0  0  0  0  0  0  0  0  0  0  0  0  # atno 4315 bound_to 3832
   -3.9170  -22.9097   11.2817 LP  0  0  0  0  0  0  0  0  0  0  0  0  # atno 4318 bound_to 3762
   -4.9969  -23.0467   10.0645 LP  0  0  0  0  0  0  0  0  0  0  0  0  # atno 4319 bound_to 3762
   -4.3363   -5.4173    9.4131 LP  0  0  0  0  0  0  0  0  0  0  0  0  # atno 4320 bound_to 2467
   -5.4763   -5.1339    8.2787 LP  0  0  0  0  0  0  0  0  0  0  0  0  # atno 4321 bound_to 2467

> <Gold.Score>
     Score     S(PLP)   S(hbond)     S(cho)   S(metal)  DE(clash)   DE(tors)     intcor
     55.71     -53.90       1.03       0.00       0.00       0.00       0.63       0.00

> <Gold.PLP.Fitness>
55.7136

> <Gold.PLP.PLP>
-53.8983

> <Gold.PLP.part.hbond>
-2.1837

> <Gold.PLP.part.metal>
0.0000

> <Gold.PLP.part.buried>
-0.0382

> <Gold.PLP.part.nonpolar>
-53.1419

> <Gold.PLP.part.repulsive>
0.2861

> <Gold.PLP.ligand.clash>
0.0000

> <Gold.PLP.ligand.torsion>
0.6329

> <Gold.PLP.Chemscore.Hbond>
1.0270

> <Gold.PLP.Chemscore.CHOScore>
0.0000

> <Gold.PLP.Chemscore.Metal>
0.0000

> <Gold.Chemscore.Hbonds>
donor molecule, donor type, donor heavy atom, donor atom, acceptor molecule, acceptor atom, score
      L1  H    17    31       P1  2287  0.90
      P1  H  2456  2461       L1     4  0.12

> <Gold.PLP.Chemscore.Internal.Correction>
0.0000

