#       Name:                EN300-27699_i001
#       Creating user name   fsindt
#       Creation time:       Mon Feb 27 17:10:13 2023


#       File generated by GOLD software.
#

@<TRIPOS>MOLECULE
EN300-27699_i001|amine_1|mol2|11|dock2
    32    33     1
SMALL
USER_CHARGES


@<TRIPOS>ATOM
      1 C1          -0.1106 -21.6521  11.4732 C.3            1 <1>                0.0000
      2 O2           0.2599 -20.4415  12.1842 O.3            1 <1>                0.0000
      3 C3           0.1835 -19.2831  11.5008 C.2            1 <1>                0.0000
      4 O4          -0.1016 -19.2922  10.3201 O.2            1 <1>                0.0000
      5 C5           0.4465 -18.0016  12.1875 C.ar           1 <1>                0.0000
      6 C6           1.2594 -17.9698  13.3234 C.ar           1 <1>                0.0000
      7 C7           1.5069 -16.7730  13.9666 C.ar           1 <1>                0.0000
      8 C8           0.9543 -15.6002  13.4932 C.ar           1 <1>                0.0000
      9 C9           0.1383 -15.6166  12.3576 C.ar           1 <1>                0.0000
     10 C10         -0.4345 -14.3991  11.8675 C.1            1 <1>                0.0000
     11 C11         -0.9042 -13.4009  11.4657 C.1            1 <1>                0.0000
     12 C12         -1.4771 -12.1834  10.9756 C.ar           1 <1>                0.0000
     13 C13         -0.7175 -11.0107  10.9519 C.ar           1 <1>                0.0000
     14 C14         -1.2724  -9.8390  10.4792 C.ar           1 <1>                0.0000
     15 C15         -2.5789  -9.8198  10.0284 C.ar           1 <1>                0.0000
     16 C16         -3.3439 -10.9810  10.0479 C.ar           1 <1>                0.0000
     17 N17         -4.6638 -10.9554   9.5909 N.pl3          1 <1>                0.0000
     18 C18         -2.7949 -12.1649  10.5143 C.ar           1 <1>                0.0000
     19 C19         -0.1111 -16.8209  11.7001 C.ar           1 <1>                0.0000
     20 H20          0.5403 -21.7789  10.6080 H              1 <1>                0.0000
     21 H21         -0.0042 -22.5102  12.1368 H              1 <1>                0.0000
     22 H22         -1.1459 -21.5758  11.1408 H              1 <1>                0.0000
     23 H23          1.6949 -18.8837  13.6996 H              1 <1>                0.0000
     24 H24          2.1358 -16.7548  14.8443 H              1 <1>                0.0000
     25 H25          1.1521 -14.6679  14.0012 H              1 <1>                0.0000
     26 H26          0.3035 -11.0212  11.3040 H              1 <1>                0.0000
     27 H27         -0.6838  -8.9337  10.4617 H              1 <1>                0.0000
     28 H28         -3.0074  -8.8995   9.6599 H              1 <1>                0.0000
     29 H29         -3.3874 -13.0678  10.5300 H              1 <1>                0.0000
     30 H30         -0.7401 -16.8398  10.8223 H              1 <1>                0.0000
     31 H31         -5.0465 -10.1278   9.2601 H              1 <1>                0.0000
     32 H32         -5.1975 -11.7653   9.6045 H              1 <1>                0.0000
@<TRIPOS>BOND
    1    1    2 1     
    2    1   20 1     
    3    1   21 1     
    4    1   22 1     
    5    2    3 1     
    6    3    4 2     
    7    3    5 1     
    8    5    6 ar    
    9    5   19 ar    
   10    6    7 ar    
   11    6   23 1     
   12    7    8 ar    
   13    7   24 1     
   14    8    9 ar    
   15    8   25 1     
   16    9   10 1     
   17    9   19 ar    
   18   10   11 3     
   19   11   12 1     
   20   12   13 ar    
   21   12   18 ar    
   22   13   14 ar    
   23   13   26 1     
   24   14   15 ar    
   25   14   27 1     
   26   15   16 ar    
   27   15   28 1     
   28   16   17 1     
   29   16   18 ar    
   30   17   31 1     
   31   17   32 1     
   32   18   29 1     
   33   19   30 1     
@<TRIPOS>SUBSTRUCTURE
      1 ****           1
@<TRIPOS>SET
DONOR_HYDROGENS      STATIC     ATOMS    <user>   **** ""
2 31 32
ATOM$RED        STATIC     ATOMS    COLORGROUP SYSTEM
2 31 32
@<TRIPOS>COMMENT
> <Gold.Version>
2022.2.0

> <Gold.Id.Protein>
3pbl|protein|mol2

> <Gold.Protein.RotatedTorsions>
[ 1303 1298 1297 1294 ] final -143.15 input  179.99 | X-H torsion
[ 2461 2456 2455 2452 ] final  174.61 input   30.03 | X-H torsion
[ 2515 2510 2509 2506 ] final  -89.34 input  -89.99 | X-H torsion
[ 3721 3712 3711 3710 ] final -178.88 input -179.91 | X-H torsion
[ 3841 3832 3831 3830 ] final  -37.94 input -179.91 | X-H torsion
[ 3767 3762 3761 3758 ] final   14.04 input  -89.99 | X-H torsion
[ 2472 2467 2466 2463 ] final  108.31 input  -89.97 | X-H torsion

> <Gold.Protein.ActiveResidues>
 VAL82   VAL86   LEU89   PHE106  VAL107  ASP110  VAL111  MET112  CYS114  THR115 
 CYS181  SER182  ILE183  PHE188  VAL189  ILE190  SER192  SER193  SER196  TRP342 
 PHE345  PHE346  HIS349  VAL350  TYR365  THR369  GLY372  TYR373 

> <Gold.Protein.RotatedAtoms>
    4.5318   -8.5266    4.3212 H   0  0  0  0  0  0  0  0  0  0  0  0  # atno 1303 bound_to 1298
    1.5337   -9.1859    8.3991 H   0  0  0  0  0  0  0  0  0  0  0  0  # atno 2461 bound_to 2456
   -5.3176   -5.0102    7.9818 H   0  0  0  0  0  0  0  0  0  0  0  0  # atno 2472 bound_to 2467
    2.8222   -8.9240    4.6031 H   0  0  0  0  0  0  0  0  0  0  0  0  # atno 2515 bound_to 2510
   -3.3241  -16.6011   13.5623 H   0  0  0  0  0  0  0  0  0  0  0  0  # atno 3721 bound_to 3712
   -5.1796  -22.8849   10.0822 H   0  0  0  0  0  0  0  0  0  0  0  0  # atno 3767 bound_to 3762
    1.5614  -20.0389    9.2661 H   0  0  0  0  0  0  0  0  0  0  0  0  # atno 3841 bound_to 3832
    4.5005  -10.0560    4.8923 LP  0  0  0  0  0  0  0  0  0  0  0  0  # atno 4297 bound_to 1298
    3.3297   -9.5391    3.8781 LP  0  0  0  0  0  0  0  0  0  0  0  0  # atno 4298 bound_to 1298
    1.8546   -7.9983    7.3247 LP  0  0  0  0  0  0  0  0  0  0  0  0  # atno 4299 bound_to 2456
    0.3496   -8.6241    7.4245 LP  0  0  0  0  0  0  0  0  0  0  0  0  # atno 4300 bound_to 2456
    2.1470   -8.6532    6.0648 LP  0  0  0  0  0  0  0  0  0  0  0  0  # atno 4301 bound_to 2510
    2.3274   -7.4216    5.0077 LP  0  0  0  0  0  0  0  0  0  0  0  0  # atno 4302 bound_to 2510
   -2.7391  -18.0814   13.3512 LP  0  0  0  0  0  0  0  0  0  0  0  0  # atno 4306 bound_to 3712
   -2.9508  -17.4786   14.8540 LP  0  0  0  0  0  0  0  0  0  0  0  0  # atno 4307 bound_to 3712
    2.6987  -19.9161    8.1403 LP  0  0  0  0  0  0  0  0  0  0  0  0  # atno 4314 bound_to 3832
    2.7271  -21.1412    9.2196 LP  0  0  0  0  0  0  0  0  0  0  0  0  # atno 4315 bound_to 3832
   -5.0365  -21.9225   11.3938 LP  0  0  0  0  0  0  0  0  0  0  0  0  # atno 4318 bound_to 3762
   -3.9115  -23.0677   11.0948 LP  0  0  0  0  0  0  0  0  0  0  0  0  # atno 4319 bound_to 3762
   -3.7069   -4.9236    8.2354 LP  0  0  0  0  0  0  0  0  0  0  0  0  # atno 4320 bound_to 2467
   -4.6926   -5.4597    9.4218 LP  0  0  0  0  0  0  0  0  0  0  0  0  # atno 4321 bound_to 2467

> <Gold.Score>
     Score     S(PLP)   S(hbond)     S(cho)   S(metal)  DE(clash)   DE(tors)     intcor
     64.28     -61.90       0.99       0.00       0.00       0.00       0.30       0.00

> <Gold.PLP.Fitness>
64.2808

> <Gold.PLP.PLP>
-61.8984

> <Gold.PLP.part.hbond>
-1.0000

> <Gold.PLP.part.metal>
0.0000

> <Gold.PLP.part.buried>
-7.6616

> <Gold.PLP.part.nonpolar>
-55.2501

> <Gold.PLP.part.repulsive>
0.2047

> <Gold.PLP.ligand.clash>
0.0000

> <Gold.PLP.ligand.torsion>
0.2957

> <Gold.PLP.Chemscore.Hbond>
0.9913

> <Gold.PLP.Chemscore.CHOScore>
0.0000

> <Gold.PLP.Chemscore.Metal>
0.0000

> <Gold.Chemscore.Hbonds>
donor molecule, donor type, donor heavy atom, donor atom, acceptor molecule, acceptor atom, score
      P1  H  3832  3841       L1     4  0.99

> <Gold.PLP.Chemscore.Internal.Correction>
0.0000

