#       Name:                EN300-27699_i001
#       Creating user name   fsindt
#       Creation time:       Mon Feb 27 17:10:24 2023


#       File generated by GOLD software.
#

@<TRIPOS>MOLECULE
EN300-27699_i001|amine_1|mol2|11|dock14
    32    33     1
SMALL
USER_CHARGES


@<TRIPOS>ATOM
      1 C1          -0.5744 -21.7645  11.4014 C.3            1 <1>                0.0000
      2 O2          -0.2007 -20.3930  11.6973 O.3            1 <1>                0.0000
      3 C3           0.6318 -20.1969  12.7381 C.2            1 <1>                0.0000
      4 O4           1.0790 -21.1488  13.3458 O.2            1 <1>                0.0000
      5 C5           1.0008 -18.8239  13.1404 C.ar           1 <1>                0.0000
      6 C6           1.8224 -18.6168  14.2513 C.ar           1 <1>                0.0000
      7 C7           2.1690 -17.3344  14.6288 C.ar           1 <1>                0.0000
      8 C8           1.7075 -16.2484  13.9128 C.ar           1 <1>                0.0000
      9 C9           0.8841 -16.4403  12.7989 C.ar           1 <1>                0.0000
     10 C10          0.4058 -15.3127  12.0569 C.1            1 <1>                0.0000
     11 C11          0.0138 -14.3883  11.4485 C.1            1 <1>                0.0000
     12 C12         -0.4645 -13.2608  10.7065 C.ar           1 <1>                0.0000
     13 C13         -1.5988 -12.5677  11.1373 C.ar           1 <1>                0.0000
     14 C14         -2.0573 -11.4816  10.4201 C.ar           1 <1>                0.0000
     15 C15         -1.3985 -11.0754   9.2749 C.ar           1 <1>                0.0000
     16 C16         -0.2689 -11.7581   8.8369 C.ar           1 <1>                0.0000
     17 N17          0.3927 -11.3429   7.6787 N.pl3          1 <1>                0.0000
     18 C18          0.2044 -12.8462   9.5529 C.ar           1 <1>                0.0000
     19 C19          0.5349 -17.7329  12.4089 C.ar           1 <1>                0.0000
     20 H20         -1.0783 -22.1982  12.2653 H              1 <1>                0.0000
     21 H21         -1.2460 -21.7810  10.5430 H              1 <1>                0.0000
     22 H22          0.3204 -22.3439  11.1740 H              1 <1>                0.0000
     23 H23          2.1869 -19.4618  14.8165 H              1 <1>                0.0000
     24 H24          2.8041 -17.1805  15.4886 H              1 <1>                0.0000
     25 H25          1.9826 -15.2483  14.2137 H              1 <1>                0.0000
     26 H26         -2.1170 -12.8823  12.0313 H              1 <1>                0.0000
     27 H27         -2.9342 -10.9473  10.7546 H              1 <1>                0.0000
     28 H28         -1.7627 -10.2248   8.7178 H              1 <1>                0.0000
     29 H29          1.0817 -13.3775   9.2146 H              1 <1>                0.0000
     30 H30         -0.1004 -17.8874  11.5493 H              1 <1>                0.0000
     31 H31          0.0642 -10.5784   7.1801 H              1 <1>                0.0000
     32 H32          1.1807 -11.8190   7.3732 H              1 <1>                0.0000
@<TRIPOS>BOND
    1    1    2 1     
    2    1   20 1     
    3    1   21 1     
    4    1   22 1     
    5    2    3 1     
    6    3    4 2     
    7    3    5 1     
    8    5    6 ar    
    9    5   19 ar    
   10    6    7 ar    
   11    6   23 1     
   12    7    8 ar    
   13    7   24 1     
   14    8    9 ar    
   15    8   25 1     
   16    9   10 1     
   17    9   19 ar    
   18   10   11 3     
   19   11   12 1     
   20   12   13 ar    
   21   12   18 ar    
   22   13   14 ar    
   23   13   26 1     
   24   14   15 ar    
   25   14   27 1     
   26   15   16 ar    
   27   15   28 1     
   28   16   17 1     
   29   16   18 ar    
   30   17   31 1     
   31   17   32 1     
   32   18   29 1     
   33   19   30 1     
@<TRIPOS>SUBSTRUCTURE
      1 ****           1
@<TRIPOS>SET
DONOR_HYDROGENS      STATIC     ATOMS    <user>   **** ""
2 31 32
ATOM$RED        STATIC     ATOMS    COLORGROUP SYSTEM
2 31 32
@<TRIPOS>COMMENT
> <Gold.Version>
2022.2.0

> <Gold.Id.Protein>
3pbl|protein|mol2

> <Gold.Protein.RotatedTorsions>
[ 1303 1298 1297 1294 ] final   54.81 input  179.99 | X-H torsion
[ 2461 2456 2455 2452 ] final  -10.97 input   30.03 | X-H torsion
[ 2515 2510 2509 2506 ] final  -76.66 input  -89.99 | X-H torsion
[ 3721 3712 3711 3710 ] final  -36.63 input -179.91 | X-H torsion
[ 3841 3832 3831 3830 ] final -173.63 input -179.91 | X-H torsion
[ 3767 3762 3761 3758 ] final -125.47 input  -89.99 | X-H torsion
[ 2472 2467 2466 2463 ] final  -69.61 input  -89.97 | X-H torsion

> <Gold.Protein.ActiveResidues>
 VAL82   VAL86   LEU89   PHE106  VAL107  ASP110  VAL111  MET112  CYS114  THR115 
 CYS181  SER182  ILE183  PHE188  VAL189  ILE190  SER192  SER193  SER196  TRP342 
 PHE345  PHE346  HIS349  VAL350  TYR365  THR369  GLY372  TYR373 

> <Gold.Protein.RotatedAtoms>
    3.9377  -10.2715    4.5855 H   0  0  0  0  0  0  0  0  0  0  0  0  # atno 1303 bound_to 1298
    0.8749   -8.0575    7.0419 H   0  0  0  0  0  0  0  0  0  0  0  0  # atno 2461 bound_to 2456
   -3.8067   -5.2417    9.0854 H   0  0  0  0  0  0  0  0  0  0  0  0  # atno 2472 bound_to 2467
    2.8355   -8.7536    4.4843 H   0  0  0  0  0  0  0  0  0  0  0  0  # atno 2515 bound_to 2510
   -2.6413  -17.6247   14.6453 H   0  0  0  0  0  0  0  0  0  0  0  0  # atno 3721 bound_to 3712
   -4.7727  -21.9974   11.5579 H   0  0  0  0  0  0  0  0  0  0  0  0  # atno 3767 bound_to 3762
    2.8991  -19.9790    8.3841 H   0  0  0  0  0  0  0  0  0  0  0  0  # atno 3841 bound_to 3832
    3.5456   -8.9051    3.7821 LP  0  0  0  0  0  0  0  0  0  0  0  0  # atno 4297 bound_to 1298
    4.8790   -8.9444    4.7239 LP  0  0  0  0  0  0  0  0  0  0  0  0  # atno 4298 bound_to 1298
    0.7067   -9.2358    8.1602 LP  0  0  0  0  0  0  0  0  0  0  0  0  # atno 4299 bound_to 2456
    2.1561   -8.5147    7.9458 LP  0  0  0  0  0  0  0  0  0  0  0  0  # atno 4300 bound_to 2456
    2.2166   -8.8358    5.9930 LP  0  0  0  0  0  0  0  0  0  0  0  0  # atno 4301 bound_to 2510
    2.2443   -7.4095    5.1983 LP  0  0  0  0  0  0  0  0  0  0  0  0  # atno 4302 bound_to 2510
   -3.5651  -16.5578   13.8797 LP  0  0  0  0  0  0  0  0  0  0  0  0  # atno 4306 bound_to 3712
   -2.9132  -17.8204   13.0751 LP  0  0  0  0  0  0  0  0  0  0  0  0  # atno 4307 bound_to 3712
    2.4682  -21.1528    9.3903 LP  0  0  0  0  0  0  0  0  0  0  0  0  # atno 4314 bound_to 3832
    1.4122  -19.9738    8.9884 LP  0  0  0  0  0  0  0  0  0  0  0  0  # atno 4315 bound_to 3832
   -3.9849  -23.2279   10.8285 LP  0  0  0  0  0  0  0  0  0  0  0  0  # atno 4318 bound_to 3762
   -5.3698  -22.6495   10.1850 LP  0  0  0  0  0  0  0  0  0  0  0  0  # atno 4319 bound_to 3762
   -5.4241   -5.3476    8.8875 LP  0  0  0  0  0  0  0  0  0  0  0  0  # atno 4320 bound_to 2467
   -4.4860   -4.8043    7.6663 LP  0  0  0  0  0  0  0  0  0  0  0  0  # atno 4321 bound_to 2467

> <Gold.Score>
     Score     S(PLP)   S(hbond)     S(cho)   S(metal)  DE(clash)   DE(tors)     intcor
     54.71     -54.74       0.00       0.00       0.00       0.00       0.01       0.00

> <Gold.PLP.Fitness>
54.7137

> <Gold.PLP.PLP>
-54.7392

> <Gold.PLP.part.hbond>
-1.0000

> <Gold.PLP.part.metal>
0.0000

> <Gold.PLP.part.buried>
-6.1657

> <Gold.PLP.part.nonpolar>
-48.5951

> <Gold.PLP.part.repulsive>
0.0231

> <Gold.PLP.ligand.clash>
0.0000

> <Gold.PLP.ligand.torsion>
0.0127

> <Gold.PLP.Chemscore.Hbond>
0.0000

> <Gold.PLP.Chemscore.CHOScore>
0.0000

> <Gold.PLP.Chemscore.Metal>
0.0000

> <Gold.PLP.Chemscore.Internal.Correction>
0.0000

