#       Name:                EN300-27699_i001
#       Creating user name   fsindt
#       Creation time:       Mon Feb 27 17:10:23 2023


#       File generated by GOLD software.
#

@<TRIPOS>MOLECULE
EN300-27699_i001|amine_1|mol2|11|dock13
    32    33     1
SMALL
USER_CHARGES


@<TRIPOS>ATOM
      1 C1          -0.4376 -21.4756  12.8094 C.3            1 <1>                0.0000
      2 O2           0.3121 -20.2562  12.5655 O.3            1 <1>                0.0000
      3 C3          -0.3410 -19.0912  12.7410 C.2            1 <1>                0.0000
      4 O4          -1.5268 -19.0934  13.0040 O.2            1 <1>                0.0000
      5 C5           0.3852 -17.8108  12.6137 C.ar           1 <1>                0.0000
      6 C6           1.7455 -17.7435  12.9249 C.ar           1 <1>                0.0000
      7 C7           2.4264 -16.5478  12.8062 C.ar           1 <1>                0.0000
      8 C8           1.7696 -15.4113  12.3796 C.ar           1 <1>                0.0000
      9 C9           0.4080 -15.4634  12.0650 C.ar           1 <1>                0.0000
     10 C10         -0.2723 -14.2834  11.6226 C.1            1 <1>                0.0000
     11 C11         -0.8300 -13.3161  11.2600 C.1            1 <1>                0.0000
     12 C12         -1.5103 -12.1362  10.8176 C.ar           1 <1>                0.0000
     13 C13         -0.8374 -10.9121  10.7774 C.ar           1 <1>                0.0000
     14 C14         -1.4957  -9.7769  10.3508 C.ar           1 <1>                0.0000
     15 C15         -2.8205  -9.8449   9.9626 C.ar           1 <1>                0.0000
     16 C16         -3.4999 -11.0578   9.9990 C.ar           1 <1>                0.0000
     17 N17         -4.8388 -11.1204   9.6054 N.pl3          1 <1>                0.0000
     18 C18         -2.8469 -12.2056  10.4194 C.ar           1 <1>                0.0000
     19 C19         -0.2841 -16.6689  12.1773 C.ar           1 <1>                0.0000
     20 H20         -1.2945 -21.5159  12.1367 H              1 <1>                0.0000
     21 H21          0.2044 -22.3385  12.6321 H              1 <1>                0.0000
     22 H22         -0.7856 -21.4876  13.8422 H              1 <1>                0.0000
     23 H23          2.2658 -18.6287  13.2596 H              1 <1>                0.0000
     24 H24          3.4778 -16.5019  13.0485 H              1 <1>                0.0000
     25 H25          2.3084 -14.4796  12.2890 H              1 <1>                0.0000
     26 H26          0.1977 -10.8544  11.0806 H              1 <1>                0.0000
     27 H27         -0.9740  -8.8318  10.3205 H              1 <1>                0.0000
     28 H28         -3.3301  -8.9527   9.6300 H              1 <1>                0.0000
     29 H29         -3.3727 -13.1486  10.4481 H              1 <1>                0.0000
     30 H30         -1.3356 -16.7154  11.9353 H              1 <1>                0.0000
     31 H31         -5.2945 -10.3178   9.3067 H              1 <1>                0.0000
     32 H32         -5.3127 -11.9663   9.6307 H              1 <1>                0.0000
@<TRIPOS>BOND
    1    1    2 1     
    2    1   20 1     
    3    1   21 1     
    4    1   22 1     
    5    2    3 1     
    6    3    4 2     
    7    3    5 1     
    8    5    6 ar    
    9    5   19 ar    
   10    6    7 ar    
   11    6   23 1     
   12    7    8 ar    
   13    7   24 1     
   14    8    9 ar    
   15    8   25 1     
   16    9   10 1     
   17    9   19 ar    
   18   10   11 3     
   19   11   12 1     
   20   12   13 ar    
   21   12   18 ar    
   22   13   14 ar    
   23   13   26 1     
   24   14   15 ar    
   25   14   27 1     
   26   15   16 ar    
   27   15   28 1     
   28   16   17 1     
   29   16   18 ar    
   30   17   31 1     
   31   17   32 1     
   32   18   29 1     
   33   19   30 1     
@<TRIPOS>SUBSTRUCTURE
      1 ****           1
@<TRIPOS>SET
DONOR_HYDROGENS      STATIC     ATOMS    <user>   **** ""
2 31 32
ATOM$RED        STATIC     ATOMS    COLORGROUP SYSTEM
2 31 32
@<TRIPOS>COMMENT
> <Gold.Version>
2022.2.0

> <Gold.Id.Protein>
3pbl|protein|mol2

> <Gold.Protein.RotatedTorsions>
[ 1303 1298 1297 1294 ] final  100.73 input  179.99 | X-H torsion
[ 2461 2456 2455 2452 ] final  -27.61 input   30.03 | X-H torsion
[ 2515 2510 2509 2506 ] final -163.06 input  -89.99 | X-H torsion
[ 3721 3712 3711 3710 ] final   37.37 input -179.91 | X-H torsion
[ 3841 3832 3831 3830 ] final  -57.51 input -179.91 | X-H torsion
[ 3767 3762 3761 3758 ] final  132.23 input  -89.99 | X-H torsion
[ 2472 2467 2466 2463 ] final  -75.93 input  -89.97 | X-H torsion

> <Gold.Protein.ActiveResidues>
 VAL82   VAL86   LEU89   PHE106  VAL107  ASP110  VAL111  MET112  CYS114  THR115 
 CYS181  SER182  ILE183  PHE188  VAL189  ILE190  SER192  SER193  SER196  TRP342 
 PHE345  PHE346  HIS349  VAL350  TYR365  THR369  GLY372  TYR373 

> <Gold.Protein.RotatedAtoms>
    4.5462  -10.0146    4.9086 H   0  0  0  0  0  0  0  0  0  0  0  0  # atno 1303 bound_to 1298
    0.6507   -8.1996    7.1056 H   0  0  0  0  0  0  0  0  0  0  0  0  # atno 2461 bound_to 2456
   -3.8710   -5.2756    9.1597 H   0  0  0  0  0  0  0  0  0  0  0  0  # atno 2472 bound_to 2467
    2.4417   -9.1810    5.6363 H   0  0  0  0  0  0  0  0  0  0  0  0  # atno 2515 bound_to 2510
   -2.4994  -18.0203   13.6912 H   0  0  0  0  0  0  0  0  0  0  0  0  # atno 3721 bound_to 3712
   -3.9139  -23.0846   11.0705 H   0  0  0  0  0  0  0  0  0  0  0  0  # atno 3767 bound_to 3762
    1.6017  -19.8346    9.0582 H   0  0  0  0  0  0  0  0  0  0  0  0  # atno 3841 bound_to 3832
    3.3303   -9.5982    3.9015 LP  0  0  0  0  0  0  0  0  0  0  0  0  # atno 4297 bound_to 1298
    4.4855   -8.5083    4.2813 LP  0  0  0  0  0  0  0  0  0  0  0  0  # atno 4298 bound_to 1298
    0.9411   -9.2849    8.2911 LP  0  0  0  0  0  0  0  0  0  0  0  0  # atno 4299 bound_to 2456
    2.1458   -8.3236    7.7513 LP  0  0  0  0  0  0  0  0  0  0  0  0  # atno 4300 bound_to 2456
    2.0780   -7.5901    5.6849 LP  0  0  0  0  0  0  0  0  0  0  0  0  # atno 4301 bound_to 2510
    2.7770   -8.2276    4.3539 LP  0  0  0  0  0  0  0  0  0  0  0  0  # atno 4302 bound_to 2510
   -3.1725  -17.0972   14.8193 LP  0  0  0  0  0  0  0  0  0  0  0  0  # atno 4306 bound_to 3712
   -3.4695  -16.8243   13.2370 LP  0  0  0  0  0  0  0  0  0  0  0  0  # atno 4307 bound_to 3712
    2.9245  -20.1420    8.2027 LP  0  0  0  0  0  0  0  0  0  0  0  0  # atno 4314 bound_to 3832
    2.4546  -21.1513    9.3973 LP  0  0  0  0  0  0  0  0  0  0  0  0  # atno 4315 bound_to 3832
   -5.2001  -22.8644   10.0886 LP  0  0  0  0  0  0  0  0  0  0  0  0  # atno 4318 bound_to 3762
   -5.0131  -21.9262   11.4120 LP  0  0  0  0  0  0  0  0  0  0  0  0  # atno 4319 bound_to 3762
   -5.4621   -5.3185    8.7953 LP  0  0  0  0  0  0  0  0  0  0  0  0  # atno 4320 bound_to 2467
   -4.3837   -4.7995    7.6843 LP  0  0  0  0  0  0  0  0  0  0  0  0  # atno 4321 bound_to 2467

> <Gold.Score>
     Score     S(PLP)   S(hbond)     S(cho)   S(metal)  DE(clash)   DE(tors)     intcor
     59.43     -57.21       1.00       0.00       0.00       0.00       0.39       0.00

> <Gold.PLP.Fitness>
59.4311

> <Gold.PLP.PLP>
-57.2092

> <Gold.PLP.part.hbond>
-0.8865

> <Gold.PLP.part.metal>
0.0000

> <Gold.PLP.part.buried>
-5.9789

> <Gold.PLP.part.nonpolar>
-52.8379

> <Gold.PLP.part.repulsive>
0.1137

> <Gold.PLP.ligand.clash>
0.0000

> <Gold.PLP.ligand.torsion>
0.3891

> <Gold.PLP.Chemscore.Hbond>
1.0000

> <Gold.PLP.Chemscore.CHOScore>
0.0000

> <Gold.PLP.Chemscore.Metal>
0.0000

> <Gold.Chemscore.Hbonds>
donor molecule, donor type, donor heavy atom, donor atom, acceptor molecule, acceptor atom, score
      P1  H  3712  3721       L1     4  1.00

> <Gold.PLP.Chemscore.Internal.Correction>
0.0000

