#       Name:                EN300-27699_i001
#       Creating user name   fsindt
#       Creation time:       Mon Feb 27 17:10:22 2023


#       File generated by GOLD software.
#

@<TRIPOS>MOLECULE
EN300-27699_i001|amine_1|mol2|11|dock12
    32    33     1
SMALL
USER_CHARGES


@<TRIPOS>ATOM
      1 C1          -0.3078 -22.1267  13.0261 C.3            1 <1>                0.0000
      2 O2           0.4120 -20.8909  13.2774 O.3            1 <1>                0.0000
      3 C3          -0.3103 -19.7539  13.2893 C.2            1 <1>                0.0000
      4 O4          -1.5206 -19.8023  13.1978 O.2            1 <1>                0.0000
      5 C5           0.3696 -18.4481  13.4136 C.ar           1 <1>                0.0000
      6 C6           1.4712 -18.3103  14.2619 C.ar           1 <1>                0.0000
      7 C7           2.1086 -17.0908  14.3793 C.ar           1 <1>                0.0000
      8 C8           1.6634 -15.9997  13.6606 C.ar           1 <1>                0.0000
      9 C9           0.5618 -16.1225  12.8080 C.ar           1 <1>                0.0000
     10 C10          0.1008 -14.9897  12.0629 C.1            1 <1>                0.0000
     11 C11         -0.2771 -14.0612  11.4521 C.1            1 <1>                0.0000
     12 C12         -0.7381 -12.9284  10.7071 C.ar           1 <1>                0.0000
     13 C13         -0.0345 -12.4971   9.5794 C.ar           1 <1>                0.0000
     14 C14         -0.4812 -11.4052   8.8636 C.ar           1 <1>                0.0000
     15 C15         -1.6235 -10.7344   9.2579 C.ar           1 <1>                0.0000
     16 C16         -2.3313 -11.1548  10.3787 C.ar           1 <1>                0.0000
     17 N17         -3.4852 -10.4728  10.7724 N.pl3          1 <1>                0.0000
     18 C18         -1.8957 -12.2542  11.1014 C.ar           1 <1>                0.0000
     19 C19         -0.0829 -17.3526  12.6805 C.ar           1 <1>                0.0000
     20 H20         -0.7886 -22.0749  12.0492 H              1 <1>                0.0000
     21 H21          0.3901 -22.9637  13.0436 H              1 <1>                0.0000
     22 H22         -1.0654 -22.2690  13.7968 H              1 <1>                0.0000
     23 H23          1.8249 -19.1596  14.8275 H              1 <1>                0.0000
     24 H24          2.9594 -16.9903  15.0368 H              1 <1>                0.0000
     25 H25          2.1667 -15.0491  13.7573 H              1 <1>                0.0000
     26 H26          0.8591 -13.0180   9.2683 H              1 <1>                0.0000
     27 H27          0.0640 -11.0734   7.9924 H              1 <1>                0.0000
     28 H28         -1.9677  -9.8803   8.6935 H              1 <1>                0.0000
     29 H29         -2.4441 -12.5824  11.9720 H              1 <1>                0.0000
     30 H30         -0.9339 -17.4537  12.0232 H              1 <1>                0.0000
     31 H31         -3.7927  -9.7061  10.2639 H              1 <1>                0.0000
     32 H32         -3.9789 -10.7660  11.5541 H              1 <1>                0.0000
@<TRIPOS>BOND
    1    1    2 1     
    2    1   20 1     
    3    1   21 1     
    4    1   22 1     
    5    2    3 1     
    6    3    4 2     
    7    3    5 1     
    8    5    6 ar    
    9    5   19 ar    
   10    6    7 ar    
   11    6   23 1     
   12    7    8 ar    
   13    7   24 1     
   14    8    9 ar    
   15    8   25 1     
   16    9   10 1     
   17    9   19 ar    
   18   10   11 3     
   19   11   12 1     
   20   12   13 ar    
   21   12   18 ar    
   22   13   14 ar    
   23   13   26 1     
   24   14   15 ar    
   25   14   27 1     
   26   15   16 ar    
   27   15   28 1     
   28   16   17 1     
   29   16   18 ar    
   30   17   31 1     
   31   17   32 1     
   32   18   29 1     
   33   19   30 1     
@<TRIPOS>SUBSTRUCTURE
      1 ****           1
@<TRIPOS>SET
DONOR_HYDROGENS      STATIC     ATOMS    <user>   **** ""
2 31 32
ATOM$RED        STATIC     ATOMS    COLORGROUP SYSTEM
2 31 32
@<TRIPOS>COMMENT
> <Gold.Version>
2022.2.0

> <Gold.Id.Protein>
3pbl|protein|mol2

> <Gold.Protein.RotatedTorsions>
[ 1303 1298 1297 1294 ] final  -44.56 input  179.99 | X-H torsion
[ 2461 2456 2455 2452 ] final  -62.58 input   30.03 | X-H torsion
[ 2515 2510 2509 2506 ] final   51.77 input  -89.99 | X-H torsion
[ 3721 3712 3711 3710 ] final   36.27 input -179.91 | X-H torsion
[ 3841 3832 3831 3830 ] final   15.83 input -179.91 | X-H torsion
[ 3767 3762 3761 3758 ] final -165.58 input  -89.99 | X-H torsion
[ 2472 2467 2466 2463 ] final  115.79 input  -89.97 | X-H torsion

> <Gold.Protein.ActiveResidues>
 VAL82   VAL86   LEU89   PHE106  VAL107  ASP110  VAL111  MET112  CYS114  THR115 
 CYS181  SER182  ILE183  PHE188  VAL189  ILE190  SER192  SER193  SER196  TRP342 
 PHE345  PHE346  HIS349  VAL350  TYR365  THR369  GLY372  TYR373 

> <Gold.Protein.RotatedAtoms>
    3.3909   -9.2051    3.7917 H   0  0  0  0  0  0  0  0  0  0  0  0  # atno 1303 bound_to 1298
    0.3595   -8.5905    7.3944 H   0  0  0  0  0  0  0  0  0  0  0  0  # atno 2461 bound_to 2456
   -5.3854   -5.0516    8.0758 H   0  0  0  0  0  0  0  0  0  0  0  0  # atno 2472 bound_to 2467
    2.1942   -7.4268    5.3263 H   0  0  0  0  0  0  0  0  0  0  0  0  # atno 2515 bound_to 2510
   -2.4965  -18.0230   13.7074 H   0  0  0  0  0  0  0  0  0  0  0  0  # atno 3721 bound_to 3712
   -4.2425  -22.3600   11.6324 H   0  0  0  0  0  0  0  0  0  0  0  0  # atno 3767 bound_to 3762
    1.8950  -20.6567    9.6127 H   0  0  0  0  0  0  0  0  0  0  0  0  # atno 3841 bound_to 3832
    4.7506   -8.6940    4.5376 LP  0  0  0  0  0  0  0  0  0  0  0  0  # atno 4297 bound_to 1298
    4.2209  -10.2223    4.7626 LP  0  0  0  0  0  0  0  0  0  0  0  0  # atno 4298 bound_to 1298
    1.4907   -9.2027    8.4008 LP  0  0  0  0  0  0  0  0  0  0  0  0  # atno 4299 bound_to 2456
    1.8873   -8.0149    7.3528 LP  0  0  0  0  0  0  0  0  0  0  0  0  # atno 4300 bound_to 2456
    2.8335   -8.6285    4.4247 LP  0  0  0  0  0  0  0  0  0  0  0  0  # atno 4301 bound_to 2510
    2.2691   -8.9443    5.9241 LP  0  0  0  0  0  0  0  0  0  0  0  0  # atno 4302 bound_to 2510
   -3.1815  -17.0823   14.8136 LP  0  0  0  0  0  0  0  0  0  0  0  0  # atno 4306 bound_to 3712
   -3.4639  -16.8362   13.2241 LP  0  0  0  0  0  0  0  0  0  0  0  0  # atno 4307 bound_to 3712
    1.9138  -19.6352    8.3748 LP  0  0  0  0  0  0  0  0  0  0  0  0  # atno 4314 bound_to 3832
    3.1265  -20.7085    8.5848 LP  0  0  0  0  0  0  0  0  0  0  0  0  # atno 4315 bound_to 3832
   -4.3772  -23.3286   10.3245 LP  0  0  0  0  0  0  0  0  0  0  0  0  # atno 4318 bound_to 3762
   -5.5076  -22.1863   10.6145 LP  0  0  0  0  0  0  0  0  0  0  0  0  # atno 4319 bound_to 3762
   -3.7613   -4.8915    8.1298 LP  0  0  0  0  0  0  0  0  0  0  0  0  # atno 4320 bound_to 2467
   -4.5704   -5.4504    9.4334 LP  0  0  0  0  0  0  0  0  0  0  0  0  # atno 4321 bound_to 2467

> <Gold.Score>
     Score     S(PLP)   S(hbond)     S(cho)   S(metal)  DE(clash)   DE(tors)     intcor
     56.58     -54.82       1.00       0.00       0.00       0.00       0.62       0.00

> <Gold.PLP.Fitness>
56.5756

> <Gold.PLP.PLP>
-54.8202

> <Gold.PLP.part.hbond>
-1.0000

> <Gold.PLP.part.metal>
0.0000

> <Gold.PLP.part.buried>
-5.5480

> <Gold.PLP.part.nonpolar>
-48.9269

> <Gold.PLP.part.repulsive>
0.0510

> <Gold.PLP.ligand.clash>
0.0000

> <Gold.PLP.ligand.torsion>
0.6223

> <Gold.PLP.Chemscore.Hbond>
1.0000

> <Gold.PLP.Chemscore.CHOScore>
0.0000

> <Gold.PLP.Chemscore.Metal>
0.0000

> <Gold.Chemscore.Hbonds>
donor molecule, donor type, donor heavy atom, donor atom, acceptor molecule, acceptor atom, score
      P1  H  3712  3721       L1     4  1.00

> <Gold.PLP.Chemscore.Internal.Correction>
0.0000

