#       Name:                EN300-27699_i001
#       Creating user name   fsindt
#       Creation time:       Mon Feb 27 17:10:18 2023


#       File generated by GOLD software.
#

@<TRIPOS>MOLECULE
EN300-27699_i001|amine_1|mol2|11|dock7
    32    33     1
SMALL
USER_CHARGES


@<TRIPOS>ATOM
      1 C1           0.4491 -22.4841  13.0984 C.3            1 <1>                0.0000
      2 O2           1.0529 -21.2331  13.5215 O.3            1 <1>                0.0000
      3 C3           1.0539 -20.2224  12.6309 C.2            1 <1>                0.0000
      4 O4           0.8712 -20.4516  11.4521 O.2            1 <1>                0.0000
      5 C5           1.2771 -18.8353  13.0880 C.ar           1 <1>                0.0000
      6 C6           1.9884 -18.5921  14.2656 C.ar           1 <1>                0.0000
      7 C7           2.1987 -17.2963  14.6946 C.ar           1 <1>                0.0000
      8 C8           1.7088 -16.2324  13.9644 C.ar           1 <1>                0.0000
      9 C9           0.9947 -16.4604  12.7838 C.ar           1 <1>                0.0000
     10 C10          0.4868 -15.3558  12.0272 C.1            1 <1>                0.0000
     11 C11          0.0705 -14.4501  11.4069 C.1            1 <1>                0.0000
     12 C12         -0.4374 -13.3455  10.6503 C.ar           1 <1>                0.0000
     13 C13         -0.0123 -13.1420   9.3348 C.ar           1 <1>                0.0000
     14 C14         -0.5035 -12.0765   8.6083 C.ar           1 <1>                0.0000
     15 C15         -1.4155 -11.2076   9.1770 C.ar           1 <1>                0.0000
     16 C16         -1.8451 -11.4005  10.4855 C.ar           1 <1>                0.0000
     17 N17         -2.7671 -10.5189  11.0551 N.pl3          1 <1>                0.0000
     18 C18         -1.3636 -12.4709  11.2224 C.ar           1 <1>                0.0000
     19 C19          0.7837 -17.7663  12.3421 C.ar           1 <1>                0.0000
     20 H20          0.9770 -22.8648  12.2239 H              1 <1>                0.0000
     21 H21          0.5149 -23.2113  13.9076 H              1 <1>                0.0000
     22 H22         -0.5976 -22.3151  12.8458 H              1 <1>                0.0000
     23 H23          2.3744 -19.4197  14.8423 H              1 <1>                0.0000
     24 H24          2.7490 -17.1146  15.6059 H              1 <1>                0.0000
     25 H25          1.8770 -15.2217  14.3057 H              1 <1>                0.0000
     26 H26          0.7008 -13.8182   8.8868 H              1 <1>                0.0000
     27 H27         -0.1737 -11.9209   7.5917 H              1 <1>                0.0000
     28 H28         -1.7958 -10.3754   8.6032 H              1 <1>                0.0000
     29 H29         -1.6962 -12.6226  12.2387 H              1 <1>                0.0000
     30 H30          0.2333 -17.9487  11.4310 H              1 <1>                0.0000
     31 H31         -3.1076  -9.7724  10.5378 H              1 <1>                0.0000
     32 H32         -3.0667 -10.6534  11.9677 H              1 <1>                0.0000
@<TRIPOS>BOND
    1    1    2 1     
    2    1   20 1     
    3    1   21 1     
    4    1   22 1     
    5    2    3 1     
    6    3    4 2     
    7    3    5 1     
    8    5    6 ar    
    9    5   19 ar    
   10    6    7 ar    
   11    6   23 1     
   12    7    8 ar    
   13    7   24 1     
   14    8    9 ar    
   15    8   25 1     
   16    9   10 1     
   17    9   19 ar    
   18   10   11 3     
   19   11   12 1     
   20   12   13 ar    
   21   12   18 ar    
   22   13   14 ar    
   23   13   26 1     
   24   14   15 ar    
   25   14   27 1     
   26   15   16 ar    
   27   15   28 1     
   28   16   17 1     
   29   16   18 ar    
   30   17   31 1     
   31   17   32 1     
   32   18   29 1     
   33   19   30 1     
@<TRIPOS>SUBSTRUCTURE
      1 ****           1
@<TRIPOS>SET
DONOR_HYDROGENS      STATIC     ATOMS    <user>   **** ""
2 31 32
ATOM$RED        STATIC     ATOMS    COLORGROUP SYSTEM
2 31 32
@<TRIPOS>COMMENT
> <Gold.Version>
2022.2.0

> <Gold.Id.Protein>
3pbl|protein|mol2

> <Gold.Protein.RotatedTorsions>
[ 1303 1298 1297 1294 ] final -141.97 input  179.99 | X-H torsion
[ 2461 2456 2455 2452 ] final  165.00 input   30.03 | X-H torsion
[ 2515 2510 2509 2506 ] final   85.25 input  -89.99 | X-H torsion
[ 3721 3712 3711 3710 ] final -172.52 input -179.91 | X-H torsion
[ 3841 3832 3831 3830 ] final    3.40 input -179.91 | X-H torsion
[ 3767 3762 3761 3758 ] final  158.71 input  -89.99 | X-H torsion
[ 2472 2467 2466 2463 ] final  -70.13 input  -89.97 | X-H torsion

> <Gold.Protein.ActiveResidues>
 VAL82   VAL86   LEU89   PHE106  VAL107  ASP110  VAL111  MET112  CYS114  THR115 
 CYS181  SER182  ILE183  PHE188  VAL189  ILE190  SER192  SER193  SER196  TRP342 
 PHE345  PHE346  HIS349  VAL350  TYR365  THR369  GLY372  TYR373 

> <Gold.Protein.RotatedAtoms>
    4.5178   -8.5206    4.3092 H   0  0  0  0  0  0  0  0  0  0  0  0  # atno 1303 bound_to 1298
    1.6748   -9.1173    8.3799 H   0  0  0  0  0  0  0  0  0  0  0  0  # atno 2461 bound_to 2456
   -3.8116   -5.2445    9.0917 H   0  0  0  0  0  0  0  0  0  0  0  0  # atno 2472 bound_to 2467
    2.0540   -7.6777    5.7869 H   0  0  0  0  0  0  0  0  0  0  0  0  # atno 2515 bound_to 2510
   -3.3339  -16.5700   13.6525 H   0  0  0  0  0  0  0  0  0  0  0  0  # atno 3721 bound_to 3712
   -3.9491  -22.7948   11.3888 H   0  0  0  0  0  0  0  0  0  0  0  0  # atno 3767 bound_to 3762
    1.7672  -20.5251    9.5740 H   0  0  0  0  0  0  0  0  0  0  0  0  # atno 3841 bound_to 3832
    4.5147  -10.0439    4.8974 LP  0  0  0  0  0  0  0  0  0  0  0  0  # atno 4297 bound_to 1298
    3.3295   -9.5571    3.8850 LP  0  0  0  0  0  0  0  0  0  0  0  0  # atno 4298 bound_to 1298
    1.7318   -7.9527    7.2363 LP  0  0  0  0  0  0  0  0  0  0  0  0  # atno 4299 bound_to 2456
    0.3312   -8.7384    7.5322 LP  0  0  0  0  0  0  0  0  0  0  0  0  # atno 4300 bound_to 2456
    2.7431   -8.0961    4.3671 LP  0  0  0  0  0  0  0  0  0  0  0  0  # atno 4301 bound_to 2510
    2.4998   -9.2257    5.5210 LP  0  0  0  0  0  0  0  0  0  0  0  0  # atno 4302 bound_to 2510
   -2.7779  -18.0265   13.2691 LP  0  0  0  0  0  0  0  0  0  0  0  0  # atno 4306 bound_to 3712
   -2.9007  -17.5695   14.8320 LP  0  0  0  0  0  0  0  0  0  0  0  0  # atno 4307 bound_to 3712
    2.0936  -19.6450    8.2721 LP  0  0  0  0  0  0  0  0  0  0  0  0  # atno 4314 bound_to 3832
    3.0943  -20.8507    8.7321 LP  0  0  0  0  0  0  0  0  0  0  0  0  # atno 4315 bound_to 3832
   -4.8658  -23.1376   10.0815 LP  0  0  0  0  0  0  0  0  0  0  0  0  # atno 4318 bound_to 3762
   -5.3122  -21.9427   11.1010 LP  0  0  0  0  0  0  0  0  0  0  0  0  # atno 4319 bound_to 3762
   -5.4276   -5.3453    8.8802 LP  0  0  0  0  0  0  0  0  0  0  0  0  # atno 4320 bound_to 2467
   -4.4776   -4.8037    7.6674 LP  0  0  0  0  0  0  0  0  0  0  0  0  # atno 4321 bound_to 2467

> <Gold.Score>
     Score     S(PLP)   S(hbond)     S(cho)   S(metal)  DE(clash)   DE(tors)     intcor
     55.93     -53.96       1.00       0.00       0.00       0.00       0.52       0.00

> <Gold.PLP.Fitness>
55.9299

> <Gold.PLP.PLP>
-53.9601

> <Gold.PLP.part.hbond>
-1.0000

> <Gold.PLP.part.metal>
0.0000

> <Gold.PLP.part.buried>
-6.1372

> <Gold.PLP.part.nonpolar>
-48.8890

> <Gold.PLP.part.repulsive>
0.1120

> <Gold.PLP.ligand.clash>
0.0000

> <Gold.PLP.ligand.torsion>
0.5151

> <Gold.PLP.Chemscore.Hbond>
1.0000

> <Gold.PLP.Chemscore.CHOScore>
0.0000

> <Gold.PLP.Chemscore.Metal>
0.0000

> <Gold.Chemscore.Hbonds>
donor molecule, donor type, donor heavy atom, donor atom, acceptor molecule, acceptor atom, score
      P1  H  3832  3841       L1     4  1.00

> <Gold.PLP.Chemscore.Internal.Correction>
0.0000

