#       Name:                EN300-27699_i001
#       Creating user name   fsindt
#       Creation time:       Mon Feb 27 17:10:19 2023


#       File generated by GOLD software.
#

@<TRIPOS>MOLECULE
EN300-27699_i001|amine_1|mol2|11|dock8
    32    33     1
SMALL
USER_CHARGES


@<TRIPOS>ATOM
      1 C1          -3.4622 -10.1202  10.1236 C.3            1 <1>                0.0000
      2 O2          -2.6105 -11.2898  10.0004 O.3            1 <1>                0.0000
      3 C3          -1.4560 -11.1371   9.3234 C.2            1 <1>                0.0000
      4 O4          -1.1863 -10.0668   8.8163 O.2            1 <1>                0.0000
      5 C5          -0.5177 -12.2715   9.1978 C.ar           1 <1>                0.0000
      6 C6           0.2445 -12.4244   8.0370 C.ar           1 <1>                0.0000
      7 C7           1.1225 -13.4838   7.9176 C.ar           1 <1>                0.0000
      8 C8           1.2542 -14.3986   8.9426 C.ar           1 <1>                0.0000
      9 C9           0.4976 -14.2586  10.1103 C.ar           1 <1>                0.0000
     10 C10          0.6351 -15.2086  11.1731 C.1            1 <1>                0.0000
     11 C11          0.7478 -15.9873  12.0443 C.1            1 <1>                0.0000
     12 C12          0.8853 -16.9373  13.1071 C.ar           1 <1>                0.0000
     13 C13          1.9873 -16.8761  13.9642 C.ar           1 <1>                0.0000
     14 C14          2.1170 -17.7930  14.9873 C.ar           1 <1>                0.0000
     15 C15          1.1601 -18.7739  15.1684 C.ar           1 <1>                0.0000
     16 C16          0.0597 -18.8441  14.3211 C.ar           1 <1>                0.0000
     17 N17         -0.9042 -19.8378  14.5091 N.pl3          1 <1>                0.0000
     18 C18         -0.0844 -17.9246  13.2943 C.ar           1 <1>                0.0000
     19 C19         -0.3867 -13.1880  10.2396 C.ar           1 <1>                0.0000
     20 H20         -3.7485  -9.7731   9.1307 H              1 <1>                0.0000
     21 H21         -4.3567 -10.3801  10.6895 H              1 <1>                0.0000
     22 H22         -2.9206  -9.3296  10.6428 H              1 <1>                0.0000
     23 H23          0.1464 -11.7127   7.2307 H              1 <1>                0.0000
     24 H24          1.7088 -13.5969   7.0177 H              1 <1>                0.0000
     25 H25          1.9428 -15.2246   8.8425 H              1 <1>                0.0000
     26 H26          2.7376 -16.1117  13.8257 H              1 <1>                0.0000
     27 H27          2.9694 -17.7442  15.6486 H              1 <1>                0.0000
     28 H28          1.2677 -19.4887  15.9709 H              1 <1>                0.0000
     29 H29         -0.9384 -17.9773  12.6354 H              1 <1>                0.0000
     30 H30         -0.9734 -13.0744  11.1392 H              1 <1>                0.0000
     31 H31         -0.8057 -20.4785  15.2306 H              1 <1>                0.0000
     32 H32         -1.6718 -19.8868  13.9182 H              1 <1>                0.0000
@<TRIPOS>BOND
    1    1    2 1     
    2    1   20 1     
    3    1   21 1     
    4    1   22 1     
    5    2    3 1     
    6    3    4 2     
    7    3    5 1     
    8    5    6 ar    
    9    5   19 ar    
   10    6    7 ar    
   11    6   23 1     
   12    7    8 ar    
   13    7   24 1     
   14    8    9 ar    
   15    8   25 1     
   16    9   10 1     
   17    9   19 ar    
   18   10   11 3     
   19   11   12 1     
   20   12   13 ar    
   21   12   18 ar    
   22   13   14 ar    
   23   13   26 1     
   24   14   15 ar    
   25   14   27 1     
   26   15   16 ar    
   27   15   28 1     
   28   16   17 1     
   29   16   18 ar    
   30   17   31 1     
   31   17   32 1     
   32   18   29 1     
   33   19   30 1     
@<TRIPOS>SUBSTRUCTURE
      1 ****           1
@<TRIPOS>SET
DONOR_HYDROGENS      STATIC     ATOMS    <user>   **** ""
2 31 32
ATOM$RED        STATIC     ATOMS    COLORGROUP SYSTEM
2 31 32
@<TRIPOS>COMMENT
> <Gold.Version>
2022.2.0

> <Gold.Id.Protein>
3pbl|protein|mol2

> <Gold.Protein.RotatedTorsions>
[ 1303 1298 1297 1294 ] final   46.23 input  179.99 | X-H torsion
[ 2461 2456 2455 2452 ] final -109.87 input   30.03 | X-H torsion
[ 2515 2510 2509 2506 ] final -133.25 input  -89.99 | X-H torsion
[ 3721 3712 3711 3710 ] final -114.35 input -179.91 | X-H torsion
[ 3841 3832 3831 3830 ] final -106.88 input -179.91 | X-H torsion
[ 3767 3762 3761 3758 ] final  -62.13 input  -89.99 | X-H torsion
[ 2472 2467 2466 2463 ] final  -33.30 input  -89.97 | X-H torsion

> <Gold.Protein.ActiveResidues>
 VAL82   VAL86   LEU89   PHE106  VAL107  ASP110  VAL111  MET112  CYS114  THR115 
 CYS181  SER182  ILE183  PHE188  VAL189  ILE190  SER192  SER193  SER196  TRP342 
 PHE345  PHE346  HIS349  VAL350  TYR365  THR369  GLY372  TYR373 

> <Gold.Protein.RotatedAtoms>
    3.8249  -10.2581    4.5018 H   0  0  0  0  0  0  0  0  0  0  0  0  # atno 1303 bound_to 1298
    0.4763   -9.0985    7.9427 H   0  0  0  0  0  0  0  0  0  0  0  0  # atno 2461 bound_to 2456
   -3.6346   -5.0346    8.5632 H   0  0  0  0  0  0  0  0  0  0  0  0  # atno 2472 bound_to 2467
    2.6410   -9.2517    5.2000 H   0  0  0  0  0  0  0  0  0  0  0  0  # atno 2515 bound_to 2510
   -3.1863  -16.7006   14.4713 H   0  0  0  0  0  0  0  0  0  0  0  0  # atno 3721 bound_to 3712
   -5.4522  -22.0447   10.8393 H   0  0  0  0  0  0  0  0  0  0  0  0  # atno 3767 bound_to 3762
    2.0508  -19.5799    8.5521 H   0  0  0  0  0  0  0  0  0  0  0  0  # atno 3841 bound_to 3832
    3.6331   -8.7959    3.8006 LP  0  0  0  0  0  0  0  0  0  0  0  0  # atno 4297 bound_to 1298
    4.9043   -9.0670    4.7891 LP  0  0  0  0  0  0  0  0  0  0  0  0  # atno 4298 bound_to 1298
    2.0600   -8.7655    8.1628 LP  0  0  0  0  0  0  0  0  0  0  0  0  # atno 4299 bound_to 2456
    1.2012   -7.9443    7.0427 LP  0  0  0  0  0  0  0  0  0  0  0  0  # atno 4300 bound_to 2456
    2.0286   -7.9621    5.9921 LP  0  0  0  0  0  0  0  0  0  0  0  0  # atno 4301 bound_to 2510
    2.6270   -7.7849    4.4831 LP  0  0  0  0  0  0  0  0  0  0  0  0  # atno 4302 bound_to 2510
   -3.2362  -17.2727   12.9719 LP  0  0  0  0  0  0  0  0  0  0  0  0  # atno 4306 bound_to 3712
   -2.6129  -18.1725   14.1838 LP  0  0  0  0  0  0  0  0  0  0  0  0  # atno 4307 bound_to 3712
    3.1168  -20.7756    8.6509 LP  0  0  0  0  0  0  0  0  0  0  0  0  # atno 4314 bound_to 3832
    1.7436  -20.8120    9.5338 LP  0  0  0  0  0  0  0  0  0  0  0  0  # atno 4315 bound_to 3832
   -4.0764  -22.5594   11.5528 LP  0  0  0  0  0  0  0  0  0  0  0  0  # atno 4318 bound_to 3762
   -4.5991  -23.2707   10.1790 LP  0  0  0  0  0  0  0  0  0  0  0  0  # atno 4319 bound_to 3762
   -5.0265   -5.4548    9.3065 LP  0  0  0  0  0  0  0  0  0  0  0  0  # atno 4320 bound_to 2467
   -5.0556   -4.9041    7.7695 LP  0  0  0  0  0  0  0  0  0  0  0  0  # atno 4321 bound_to 2467

> <Gold.Score>
     Score     S(PLP)   S(hbond)     S(cho)   S(metal)  DE(clash)   DE(tors)     intcor
     58.53     -56.55       0.98       0.00       0.00       0.00       0.47       0.00

> <Gold.PLP.Fitness>
58.5263

> <Gold.PLP.PLP>
-56.5453

> <Gold.PLP.part.hbond>
-1.0000

> <Gold.PLP.part.metal>
0.0000

> <Gold.PLP.part.buried>
-4.4577

> <Gold.PLP.part.nonpolar>
-52.2663

> <Gold.PLP.part.repulsive>
0.0744

> <Gold.PLP.ligand.clash>
0.0000

> <Gold.PLP.ligand.torsion>
0.4720

> <Gold.PLP.Chemscore.Hbond>
0.9750

> <Gold.PLP.Chemscore.CHOScore>
0.0000

> <Gold.PLP.Chemscore.Metal>
0.0000

> <Gold.Chemscore.Hbonds>
donor molecule, donor type, donor heavy atom, donor atom, acceptor molecule, acceptor atom, score
      P1  H  2456  2461       L1     4  0.98

> <Gold.PLP.Chemscore.Internal.Correction>
0.0000

