#       Name:                EN300-27699_i001
#       Creating user name   fsindt
#       Creation time:       Mon Feb 27 17:10:29 2023


#       File generated by GOLD software.
#

@<TRIPOS>MOLECULE
EN300-27699_i001|amine_1|mol2|11|dock20
    32    33     1
SMALL
USER_CHARGES


@<TRIPOS>ATOM
      1 C1           1.6558 -22.4269  14.0949 C.3            1 <1>                0.0000
      2 O2           1.1759 -21.0782  14.3378 O.3            1 <1>                0.0000
      3 C3           1.0244 -20.2801  13.2632 C.2            1 <1>                0.0000
      4 O4           1.1853 -20.7288  12.1460 O.2            1 <1>                0.0000
      5 C5           0.6626 -18.8590  13.4437 C.ar           1 <1>                0.0000
      6 C6           0.2497 -18.3951  14.6952 C.ar           1 <1>                0.0000
      7 C7          -0.0885 -17.0671  14.8663 C.ar           1 <1>                0.0000
      8 C8          -0.0214 -16.1884  13.8039 C.ar           1 <1>                0.0000
      9 C9           0.3898 -16.6385  12.5453 C.ar           1 <1>                0.0000
     10 C10          0.4590 -15.7259  11.4439 C.1            1 <1>                0.0000
     11 C11          0.5158 -14.9778  10.5410 C.1            1 <1>                0.0000
     12 C12          0.5849 -14.0652   9.4396 C.ar           1 <1>                0.0000
     13 C13          1.1140 -14.4823   8.2153 C.ar           1 <1>                0.0000
     14 C14          1.1794 -13.6005   7.1559 C.ar           1 <1>                0.0000
     15 C15          0.7235 -12.3038   7.3004 C.ar           1 <1>                0.0000
     16 C16          0.1955 -11.8779   8.5144 C.ar           1 <1>                0.0000
     17 N17         -0.2638 -10.5660   8.6545 N.pl3          1 <1>                0.0000
     18 C18          0.1187 -12.7567   9.5832 C.ar           1 <1>                0.0000
     19 C19          0.7382 -17.9771  12.3671 C.ar           1 <1>                0.0000
     20 H20          2.6368 -22.3837  13.6215 H              1 <1>                0.0000
     21 H21          1.7326 -22.9613  15.0418 H              1 <1>                0.0000
     22 H22          0.9585 -22.9480  13.4389 H              1 <1>                0.0000
     23 H23          0.1944 -19.0770  15.5308 H              1 <1>                0.0000
     24 H24         -0.4074 -16.7144  15.8360 H              1 <1>                0.0000
     25 H25         -0.2873 -15.1512  13.9450 H              1 <1>                0.0000
     26 H26          1.4720 -15.4946   8.0984 H              1 <1>                0.0000
     27 H27          1.5886 -13.9248   6.2105 H              1 <1>                0.0000
     28 H28          0.7778 -11.6184   6.4674 H              1 <1>                0.0000
     29 H29         -0.2913 -12.4280  10.5268 H              1 <1>                0.0000
     30 H30          1.0569 -18.3304  11.3976 H              1 <1>                0.0000
     31 H31         -0.2143  -9.9523   7.9050 H              1 <1>                0.0000
     32 H32         -0.6321 -10.2689   9.5012 H              1 <1>                0.0000
@<TRIPOS>BOND
    1    1    2 1     
    2    1   20 1     
    3    1   21 1     
    4    1   22 1     
    5    2    3 1     
    6    3    4 2     
    7    3    5 1     
    8    5    6 ar    
    9    5   19 ar    
   10    6    7 ar    
   11    6   23 1     
   12    7    8 ar    
   13    7   24 1     
   14    8    9 ar    
   15    8   25 1     
   16    9   10 1     
   17    9   19 ar    
   18   10   11 3     
   19   11   12 1     
   20   12   13 ar    
   21   12   18 ar    
   22   13   14 ar    
   23   13   26 1     
   24   14   15 ar    
   25   14   27 1     
   26   15   16 ar    
   27   15   28 1     
   28   16   17 1     
   29   16   18 ar    
   30   17   31 1     
   31   17   32 1     
   32   18   29 1     
   33   19   30 1     
@<TRIPOS>SUBSTRUCTURE
      1 ****           1
@<TRIPOS>SET
DONOR_HYDROGENS      STATIC     ATOMS    <user>   **** ""
2 31 32
ATOM$RED        STATIC     ATOMS    COLORGROUP SYSTEM
2 31 32
@<TRIPOS>COMMENT
> <Gold.Version>
2022.2.0

> <Gold.Id.Protein>
3pbl|protein|mol2

> <Gold.Protein.RotatedTorsions>
[ 1303 1298 1297 1294 ] final  -27.88 input  179.99 | X-H torsion
[ 2461 2456 2455 2452 ] final   98.56 input   30.03 | X-H torsion
[ 2515 2510 2509 2506 ] final  179.58 input  -89.99 | X-H torsion
[ 3721 3712 3711 3710 ] final  -83.37 input -179.91 | X-H torsion
[ 3841 3832 3831 3830 ] final   57.21 input -179.91 | X-H torsion
[ 3767 3762 3761 3758 ] final -127.21 input  -89.99 | X-H torsion
[ 2472 2467 2466 2463 ] final -154.13 input  -89.97 | X-H torsion

> <Gold.Protein.ActiveResidues>
 VAL82   VAL86   LEU89   PHE106  VAL107  ASP110  VAL111  MET112  CYS114  THR115 
 CYS181  SER182  ILE183  PHE188  VAL189  ILE190  SER192  SER193  SER196  TRP342 
 PHE345  PHE346  HIS349  VAL350  TYR365  THR369  GLY372  TYR373 

> <Gold.Protein.RotatedAtoms>
    3.3338   -9.4654    3.8530 H   0  0  0  0  0  0  0  0  0  0  0  0  # atno 1303 bound_to 1298
    2.1588   -8.3924    7.8247 H   0  0  0  0  0  0  0  0  0  0  0  0  # atno 2461 bound_to 2456
   -5.0383   -5.4544    9.2995 H   0  0  0  0  0  0  0  0  0  0  0  0  # atno 2472 bound_to 2467
    2.3209   -9.0325    5.8468 H   0  0  0  0  0  0  0  0  0  0  0  0  # atno 2515 bound_to 2510
   -2.9758  -17.0292   14.7199 H   0  0  0  0  0  0  0  0  0  0  0  0  # atno 3721 bound_to 3712
   -4.7483  -22.0078   11.5689 H   0  0  0  0  0  0  0  0  0  0  0  0  # atno 3767 bound_to 3762
    2.4328  -20.9358    9.5296 H   0  0  0  0  0  0  0  0  0  0  0  0  # atno 3841 bound_to 3832
    4.5865   -8.5541    4.3693 LP  0  0  0  0  0  0  0  0  0  0  0  0  # atno 4297 bound_to 1298
    4.4421  -10.1018    4.8695 LP  0  0  0  0  0  0  0  0  0  0  0  0  # atno 4298 bound_to 1298
    0.7291   -8.1424    7.0758 LP  0  0  0  0  0  0  0  0  0  0  0  0  # atno 4299 bound_to 2456
    0.8501   -9.2732    8.2477 LP  0  0  0  0  0  0  0  0  0  0  0  0  # atno 4300 bound_to 2456
    2.1520   -7.4596    5.4429 LP  0  0  0  0  0  0  0  0  0  0  0  0  # atno 4301 bound_to 2510
    2.8239   -8.5067    4.3852 LP  0  0  0  0  0  0  0  0  0  0  0  0  # atno 4302 bound_to 2510
   -3.4500  -16.8650   13.1947 LP  0  0  0  0  0  0  0  0  0  0  0  0  # atno 4306 bound_to 3712
   -2.6420  -18.2007   13.6739 LP  0  0  0  0  0  0  0  0  0  0  0  0  # atno 4307 bound_to 3712
    1.4725  -19.8500    8.8403 LP  0  0  0  0  0  0  0  0  0  0  0  0  # atno 4314 bound_to 3832
    2.9465  -20.1712    8.2152 LP  0  0  0  0  0  0  0  0  0  0  0  0  # atno 4315 bound_to 3832
   -3.9957  -23.2391   10.8044 LP  0  0  0  0  0  0  0  0  0  0  0  0  # atno 4318 bound_to 3762
   -5.3834  -22.6279   10.1981 LP  0  0  0  0  0  0  0  0  0  0  0  0  # atno 4319 bound_to 3762
   -5.0441   -4.9006    7.7634 LP  0  0  0  0  0  0  0  0  0  0  0  0  # atno 4320 bound_to 2467
   -3.6346   -5.0386    8.5764 LP  0  0  0  0  0  0  0  0  0  0  0  0  # atno 4321 bound_to 2467

> <Gold.Score>
     Score     S(PLP)   S(hbond)     S(cho)   S(metal)  DE(clash)   DE(tors)     intcor
     53.13     -52.12       0.40       0.00       0.00       0.00       0.09       0.00

> <Gold.PLP.Fitness>
53.1326

> <Gold.PLP.PLP>
-52.1155

> <Gold.PLP.part.hbond>
-1.0000

> <Gold.PLP.part.metal>
0.0000

> <Gold.PLP.part.buried>
-6.1662

> <Gold.PLP.part.nonpolar>
-46.5548

> <Gold.PLP.part.repulsive>
0.0785

> <Gold.PLP.ligand.clash>
0.0000

> <Gold.PLP.ligand.torsion>
0.0915

> <Gold.PLP.Chemscore.Hbond>
0.4000

> <Gold.PLP.Chemscore.CHOScore>
0.0000

> <Gold.PLP.Chemscore.Metal>
0.0000

> <Gold.Chemscore.Hbonds>
donor molecule, donor type, donor heavy atom, donor atom, acceptor molecule, acceptor atom, score
      L1  H    17    31       P1  2456  0.40

> <Gold.PLP.Chemscore.Internal.Correction>
0.0000

