#       Name:                EN300-27699_i001
#       Creating user name   fsindt
#       Creation time:       Mon Feb 27 17:10:28 2023


#       File generated by GOLD software.
#

@<TRIPOS>MOLECULE
EN300-27699_i001|amine_1|mol2|11|dock18
    32    33     1
SMALL
USER_CHARGES


@<TRIPOS>ATOM
      1 C1          -1.0799 -20.7841  15.7020 C.3            1 <1>                0.0000
      2 O2          -0.1763 -19.7153  15.3155 O.3            1 <1>                0.0000
      3 C3          -0.4149 -19.1089  14.1365 C.2            1 <1>                0.0000
      4 O4          -1.3400 -19.4768  13.4407 O.2            1 <1>                0.0000
      5 C5           0.4486 -17.9963  13.6900 C.ar           1 <1>                0.0000
      6 C6           1.8217 -18.0294  13.9462 C.ar           1 <1>                0.0000
      7 C7           2.6308 -16.9907  13.5293 C.ar           1 <1>                0.0000
      8 C8           2.0906 -15.9132  12.8568 C.ar           1 <1>                0.0000
      9 C9           0.7179 -15.8661  12.5936 C.ar           1 <1>                0.0000
     10 C10          0.1587 -14.7476  11.8959 C.1            1 <1>                0.0000
     11 C11         -0.2998 -13.8306  11.3240 C.1            1 <1>                0.0000
     12 C12         -0.8591 -12.7120  10.6263 C.ar           1 <1>                0.0000
     13 C13         -0.2015 -12.1788   9.5146 C.ar           1 <1>                0.0000
     14 C14         -0.7430 -11.1008   8.8445 C.ar           1 <1>                0.0000
     15 C15         -1.9350 -10.5446   9.2689 C.ar           1 <1>                0.0000
     16 C16         -2.5976 -11.0671  10.3742 C.ar           1 <1>                0.0000
     17 N17         -3.8022 -10.5008  10.7985 N.pl3          1 <1>                0.0000
     18 C18         -2.0666 -12.1537  11.0509 C.ar           1 <1>                0.0000
     19 C19         -0.1039 -16.9144  13.0069 C.ar           1 <1>                0.0000
     20 H20         -1.0473 -21.5759  14.9535 H              1 <1>                0.0000
     21 H21         -0.7758 -21.1853  16.6688 H              1 <1>                0.0000
     22 H22         -2.0950 -20.3935  15.7737 H              1 <1>                0.0000
     23 H23          2.2513 -18.8691  14.4722 H              1 <1>                0.0000
     24 H24          3.6914 -17.0217  13.7306 H              1 <1>                0.0000
     25 H25          2.7293 -15.1045  12.5337 H              1 <1>                0.0000
     26 H26          0.7306 -12.6099   9.1801 H              1 <1>                0.0000
     27 H27         -0.2332 -10.6900   7.9855 H              1 <1>                0.0000
     28 H28         -2.3533  -9.7008   8.7402 H              1 <1>                0.0000
     29 H29         -2.5798 -12.5612  11.9095 H              1 <1>                0.0000
     30 H30         -1.1646 -16.8839  12.8061 H              1 <1>                0.0000
     31 H31         -4.1762  -9.7432  10.3221 H              1 <1>                0.0000
     32 H32         -4.2644 -10.8652  11.5695 H              1 <1>                0.0000
@<TRIPOS>BOND
    1    1    2 1     
    2    1   20 1     
    3    1   21 1     
    4    1   22 1     
    5    2    3 1     
    6    3    4 2     
    7    3    5 1     
    8    5    6 ar    
    9    5   19 ar    
   10    6    7 ar    
   11    6   23 1     
   12    7    8 ar    
   13    7   24 1     
   14    8    9 ar    
   15    8   25 1     
   16    9   10 1     
   17    9   19 ar    
   18   10   11 3     
   19   11   12 1     
   20   12   13 ar    
   21   12   18 ar    
   22   13   14 ar    
   23   13   26 1     
   24   14   15 ar    
   25   14   27 1     
   26   15   16 ar    
   27   15   28 1     
   28   16   17 1     
   29   16   18 ar    
   30   17   31 1     
   31   17   32 1     
   32   18   29 1     
   33   19   30 1     
@<TRIPOS>SUBSTRUCTURE
      1 ****           1
@<TRIPOS>SET
DONOR_HYDROGENS      STATIC     ATOMS    <user>   **** ""
2 31 32
ATOM$RED        STATIC     ATOMS    COLORGROUP SYSTEM
2 31 32
@<TRIPOS>COMMENT
> <Gold.Version>
2022.2.0

> <Gold.Id.Protein>
3pbl|protein|mol2

> <Gold.Protein.RotatedTorsions>
[ 1303 1298 1297 1294 ] final  175.57 input  179.99 | X-H torsion
[ 2461 2456 2455 2452 ] final   55.98 input   30.03 | X-H torsion
[ 2515 2510 2509 2506 ] final  139.17 input  -89.99 | X-H torsion
[ 3721 3712 3711 3710 ] final   41.82 input -179.91 | X-H torsion
[ 3841 3832 3831 3830 ] final   -5.76 input -179.91 | X-H torsion
[ 3767 3762 3761 3758 ] final -125.36 input  -89.99 | X-H torsion
[ 2472 2467 2466 2463 ] final  115.06 input  -89.97 | X-H torsion

> <Gold.Protein.ActiveResidues>
 VAL82   VAL86   LEU89   PHE106  VAL107  ASP110  VAL111  MET112  CYS114  THR115 
 CYS181  SER182  ILE183  PHE188  VAL189  ILE190  SER192  SER193  SER196  TRP342 
 PHE345  PHE346  HIS349  VAL350  TYR365  THR369  GLY372  TYR373 

> <Gold.Protein.RotatedAtoms>
    4.8754   -8.9340    4.7181 H   0  0  0  0  0  0  0  0  0  0  0  0  # atno 1303 bound_to 1298
    1.8709   -8.0061    7.3382 H   0  0  0  0  0  0  0  0  0  0  0  0  # atno 2461 bound_to 2456
   -5.3793   -5.0474    8.0662 H   0  0  0  0  0  0  0  0  0  0  0  0  # atno 2472 bound_to 2467
    2.0961   -8.4739    6.0942 H   0  0  0  0  0  0  0  0  0  0  0  0  # atno 2515 bound_to 2510
   -2.5129  -18.0069   13.6267 H   0  0  0  0  0  0  0  0  0  0  0  0  # atno 3721 bound_to 3712
   -4.7742  -21.9967   11.5572 H   0  0  0  0  0  0  0  0  0  0  0  0  # atno 3767 bound_to 3762
    1.6902  -20.4201    9.5277 H   0  0  0  0  0  0  0  0  0  0  0  0  # atno 3841 bound_to 3832
    3.9481  -10.2721    4.5923 LP  0  0  0  0  0  0  0  0  0  0  0  0  # atno 4297 bound_to 1298
    3.5383   -8.9154    3.7811 LP  0  0  0  0  0  0  0  0  0  0  0  0  # atno 4298 bound_to 1298
    0.3543   -8.6077    7.4098 LP  0  0  0  0  0  0  0  0  0  0  0  0  # atno 4299 bound_to 2456
    1.5128   -9.1942    8.4000 LP  0  0  0  0  0  0  0  0  0  0  0  0  # atno 4300 bound_to 2456
    2.4072   -7.4711    4.8438 LP  0  0  0  0  0  0  0  0  0  0  0  0  # atno 4301 bound_to 2510
    2.7936   -9.0541    4.7368 LP  0  0  0  0  0  0  0  0  0  0  0  0  # atno 4302 bound_to 2510
   -3.1355  -17.1586   14.8393 LP  0  0  0  0  0  0  0  0  0  0  0  0  # atno 4306 bound_to 3712
   -3.4910  -16.7785   13.2915 LP  0  0  0  0  0  0  0  0  0  0  0  0  # atno 4307 bound_to 3712
    2.2316  -19.6748    8.2134 LP  0  0  0  0  0  0  0  0  0  0  0  0  # atno 4314 bound_to 3832
    3.0453  -20.9422    8.8443 LP  0  0  0  0  0  0  0  0  0  0  0  0  # atno 4315 bound_to 3832
   -3.9842  -23.2272   10.8300 LP  0  0  0  0  0  0  0  0  0  0  0  0  # atno 4318 bound_to 3762
   -5.3689  -22.6509   10.1841 LP  0  0  0  0  0  0  0  0  0  0  0  0  # atno 4319 bound_to 3762
   -3.7553   -4.8945    8.1399 LP  0  0  0  0  0  0  0  0  0  0  0  0  # atno 4320 bound_to 2467
   -4.5824   -5.4516    9.4330 LP  0  0  0  0  0  0  0  0  0  0  0  0  # atno 4321 bound_to 2467

> <Gold.Score>
     Score     S(PLP)   S(hbond)     S(cho)   S(metal)  DE(clash)   DE(tors)     intcor
     54.78     -52.88       1.00       0.00       0.00       0.00       0.55       0.00

> <Gold.PLP.Fitness>
54.7783

> <Gold.PLP.PLP>
-52.8806

> <Gold.PLP.part.hbond>
-1.0000

> <Gold.PLP.part.metal>
0.0000

> <Gold.PLP.part.buried>
-5.6614

> <Gold.PLP.part.nonpolar>
-47.6940

> <Gold.PLP.part.repulsive>
0.1121

> <Gold.PLP.ligand.clash>
0.0000

> <Gold.PLP.ligand.torsion>
0.5512

> <Gold.PLP.Chemscore.Hbond>
1.0000

> <Gold.PLP.Chemscore.CHOScore>
0.0000

> <Gold.PLP.Chemscore.Metal>
0.0000

> <Gold.Chemscore.Hbonds>
donor molecule, donor type, donor heavy atom, donor atom, acceptor molecule, acceptor atom, score
      P1  H  3712  3721       L1     4  1.00

> <Gold.PLP.Chemscore.Internal.Correction>
0.0000

