#       Name:                plp ligand
#       Creating user name   fsindt
#       Creation time:       Mon Feb 27 17:10:12 2023


#       File generated by GOLD software.
#

@<TRIPOS>MOLECULE
plp ligand
    32    33     1
SMALL
USER_CHARGES


@<TRIPOS>ATOM
      1 C1          -6.6635   1.3984  -0.0001 NONPOLAR       1 <1>                0.0000
      2 O2          -5.6545   0.3542   0.0001 ACCEPTOR       1 <1>                0.0000
      3 C3          -4.3664   0.7484   0.0004 NONPOLAR       1 <1>                0.0000
      4 O4          -4.0935   1.9320   0.0005 ACCEPTOR       1 <1>                0.0000
      5 C5          -3.2856  -0.2590   0.0007 NONPOLAR       1 <1>                0.0000
      6 C6          -3.5978  -1.6208   0.0005 NONPOLAR       1 <1>                0.0000
      7 C7          -2.5892  -2.5642   0.0003 NONPOLAR       1 <1>                0.0000
      8 C8          -1.2664  -2.1701   0.0001 NONPOLAR       1 <1>                0.0000
      9 C9          -0.9387  -0.8106   0.0007 NONPOLAR       1 <1>                0.0000
     10 C10          0.4341  -0.4030   0.0006 NONPOLAR       1 <1>                0.0000
     11 C11          1.5595  -0.0688   0.0005 NONPOLAR       1 <1>                0.0000
     12 C12          2.9323   0.3388   0.0004 NONPOLAR       1 <1>                0.0000
     13 C13          3.2606   1.6971   0.0010 NONPOLAR       1 <1>                0.0000
     14 C14          4.5844   2.0867   0.0008 NONPOLAR       1 <1>                0.0000
     15 C15          5.5893   1.1377  -0.0004 NONPOLAR       1 <1>                0.0000
     16 C16          5.2739  -0.2167  -0.0014 NONPOLAR       1 <1>                0.0000
     17 N17          6.2939  -1.1713  -0.0026 DONOR          1 <1>                0.0000
     18 C18          3.9479  -0.6196   0.0055 NONPOLAR       1 <1>                0.0000
     19 C19         -1.9524   0.1472  -0.0048 NONPOLAR       1 <1>                0.0000
     20 H20         -6.5462   2.0168  -0.8901                1 <1>                0.0000
     21 H21         -7.6550   0.9456  -0.0004                1 <1>                0.0000
     22 H22         -6.5466   2.0167   0.8899                1 <1>                0.0000
     23 H23         -4.6306  -1.9365   0.0010                1 <1>                0.0000
     24 H24         -2.8367  -3.6154   0.0005                1 <1>                0.0000
     25 H25         -0.4828  -2.9133  -0.0001                1 <1>                0.0000
     26 H26          2.4784   2.4419   0.0012                1 <1>                0.0000
     27 H27          4.8361   3.1369   0.0012                1 <1>                0.0000
     28 H28          6.6234   1.4492  -0.0009                1 <1>                0.0000
     29 H29          3.7009  -1.6710   0.0050                1 <1>                0.0000
     30 H30         -1.7055   1.1986  -0.0048                1 <1>                0.0000
     31 H31          7.2220  -0.8893  -0.0027                1 <1>                0.0000
     32 H32          6.0740  -2.1160  -0.0032                1 <1>                0.0000
@<TRIPOS>BOND
    1    1    2 1     
    2    1   20 1     
    3    1   21 1     
    4    1   22 1     
    5    2    3 1     
    6    3    4 2     
    7    3    5 1     
    8    5    6 ar    
    9    5   19 ar    
   10    6    7 ar    
   11    6   23 1     
   12    7    8 ar    
   13    7   24 1     
   14    8    9 ar    
   15    8   25 1     
   16    9   10 1     
   17    9   19 ar    
   18   10   11 3     
   19   11   12 1     
   20   12   13 ar    
   21   12   18 ar    
   22   13   14 ar    
   23   13   26 1     
   24   14   15 ar    
   25   14   27 1     
   26   15   16 ar    
   27   15   28 1     
   28   16   17 1     
   29   16   18 ar    
   30   17   31 1     
   31   17   32 1     
   32   18   29 1     
   33   19   30 1     
@<TRIPOS>SUBSTRUCTURE
      1 ****           1
@<TRIPOS>SET
DONOR_HYDROGENS      STATIC     ATOMS    <user>   **** ""
2 31 32
ATOM$RED        STATIC     ATOMS    COLORGROUP SYSTEM
2 31 32
