#       Name:                EN300-701715_i002
#       Creating user name   fsindt
#       Creation time:       Mon Feb 27 18:07:56 2023


#       File generated by GOLD software.
#

@<TRIPOS>MOLECULE
EN300-701715_i002|acide_3|mol2|292|dock8
    27    27     1
SMALL
USER_CHARGES


@<TRIPOS>ATOM
      1 C1           0.5758 -13.5891  10.2739 C.3            1 <1>                0.0000
      2 O2          -0.6964 -13.0729   9.8775 O.3            1 <1>                0.0000
      3 C3          -0.6362 -11.7790   9.2742 C.3            1 <1>                0.0000
      4 C4           0.0295 -10.7965  10.2398 C.3            1 <1>                0.0000
      5 C5          -0.7864 -10.7193  11.5318 C.3            1 <1>                0.0000
      6 C6          -2.2035 -10.2393  11.2123 C.3            1 <1>                0.0000
      7 C7          -2.8692 -11.2218  10.2466 C.3            1 <1>                0.0000
      8 C8          -4.2863 -10.7417   9.9270 C.3            1 <1>                0.0000
      9 C9          -2.0533 -11.2989   8.9545 C.3            1 <1>                0.0000
     10 C10          0.1674 -11.8550   8.0015 C.2            1 <1>                0.0000
     11 O11          0.5765 -12.9318   7.6022 O.co2          1 <1>                0.0000
     12 O12          0.4085 -10.8395   7.3712 O.co2          1 <1>               -1.0000
     13 H13          1.0305 -12.9162  11.0009 H              1 <1>                0.0000
     14 H14          0.4446 -14.5738  10.7228 H              1 <1>                0.0000
     15 H15          1.2228 -13.6712   9.4006 H              1 <1>                0.0000
     16 H16          1.0391 -11.1385  10.4675 H              1 <1>                0.0000
     17 H17          0.0754  -9.8095   9.7796 H              1 <1>                0.0000
     18 H18         -0.8323 -11.7064  11.9920 H              1 <1>                0.0000
     19 H19         -0.3121 -10.0194  12.2197 H              1 <1>                0.0000
     20 H20         -2.7847 -10.1844  12.1326 H              1 <1>                0.0000
     21 H21         -2.1576  -9.2523  10.7521 H              1 <1>                0.0000
     22 H22         -2.9150 -12.2088  10.7068 H              1 <1>                0.0000
     23 H23         -4.2405  -9.7547   9.4668 H              1 <1>                0.0000
     24 H24         -4.7606 -11.4417   9.2390 H              1 <1>                0.0000
     25 H25         -4.8676 -10.6867  10.8475 H              1 <1>                0.0000
     26 H26         -2.0075 -10.3118   8.4944 H              1 <1>                0.0000
     27 H27         -2.5276 -11.9988   8.2666 H              1 <1>                0.0000
@<TRIPOS>BOND
    1    1    2 1     
    2    1   13 1     
    3    1   14 1     
    4    1   15 1     
    5    2    3 1     
    6    3    4 1     
    7    3    9 1     
    8    3   10 1     
    9    4    5 1     
   10    4   16 1     
   11    4   17 1     
   12    5    6 1     
   13    5   18 1     
   14    5   19 1     
   15    6    7 1     
   16    6   20 1     
   17    6   21 1     
   18    7    8 1     
   19    7    9 1     
   20    7   22 1     
   21    8   23 1     
   22    8   24 1     
   23    8   25 1     
   24    9   26 1     
   25    9   27 1     
   26   10   11 ar    
   27   10   12 ar    
@<TRIPOS>SUBSTRUCTURE
      1 ****           1
@<TRIPOS>COMMENT
> <Gold.Version>
2022.2.0

> <Gold.Id.Protein>
3pbl|protein|mol2

> <Gold.Protein.RotatedTorsions>
[ 1303 1298 1297 1294 ] final  -17.43 input  179.99 | X-H torsion
[ 2461 2456 2455 2452 ] final -126.79 input   30.03 | X-H torsion
[ 2515 2510 2509 2506 ] final -140.74 input  -89.99 | X-H torsion
[ 3721 3712 3711 3710 ] final    1.40 input -179.91 | X-H torsion
[ 3841 3832 3831 3830 ] final -165.45 input -179.91 | X-H torsion
[ 3767 3762 3761 3758 ] final   61.56 input  -89.99 | X-H torsion
[ 2472 2467 2466 2463 ] final  168.46 input  -89.97 | X-H torsion

> <Gold.Protein.ActiveResidues>
 VAL82   VAL86   LEU89   PHE106  VAL107  ASP110  VAL111  MET112  CYS114  THR115 
 CYS181  SER182  ILE183  PHE188  VAL189  ILE190  SER192  SER193  SER196  TRP342 
 PHE345  PHE346  HIS349  VAL350  TYR365  THR369  GLY372  TYR373 

> <Gold.Protein.RotatedAtoms>
    3.3318   -9.6259    3.9139 H   0  0  0  0  0  0  0  0  0  0  0  0  # atno 1303 bound_to 1298
    0.6541   -9.2151    8.1212 H   0  0  0  0  0  0  0  0  0  0  0  0  # atno 2461 bound_to 2456
   -5.4369   -5.3396    8.8594 H   0  0  0  0  0  0  0  0  0  0  0  0  # atno 2472 bound_to 2467
    2.5942   -9.2572    5.3138 H   0  0  0  0  0  0  0  0  0  0  0  0  # atno 2515 bound_to 2510
   -2.4841  -17.9646   14.2229 H   0  0  0  0  0  0  0  0  0  0  0  0  # atno 3721 bound_to 3712
   -4.5476  -23.2882   10.2064 H   0  0  0  0  0  0  0  0  0  0  0  0  # atno 3767 bound_to 3762
    2.8138  -19.8929    8.3599 H   0  0  0  0  0  0  0  0  0  0  0  0  # atno 3841 bound_to 3832
    4.4628   -8.5010    4.2627 LP  0  0  0  0  0  0  0  0  0  0  0  0  # atno 4297 bound_to 1298
    4.5679   -9.9943    4.9152 LP  0  0  0  0  0  0  0  0  0  0  0  0  # atno 4298 bound_to 1298
    2.1466   -8.5645    7.9922 LP  0  0  0  0  0  0  0  0  0  0  0  0  # atno 4299 bound_to 2456
    0.9370   -8.0288    7.0348 LP  0  0  0  0  0  0  0  0  0  0  0  0  # atno 4300 bound_to 2456
    2.0310   -7.8548    5.9316 LP  0  0  0  0  0  0  0  0  0  0  0  0  # atno 4301 bound_to 2510
    2.6714   -7.8867    4.4298 LP  0  0  0  0  0  0  0  0  0  0  0  0  # atno 4302 bound_to 2510
   -3.4338  -16.6947   14.4742 LP  0  0  0  0  0  0  0  0  0  0  0  0  # atno 4306 bound_to 3712
   -3.2259  -17.2912   12.9683 LP  0  0  0  0  0  0  0  0  0  0  0  0  # atno 4307 bound_to 3712
    2.5862  -21.1576    9.3215 LP  0  0  0  0  0  0  0  0  0  0  0  0  # atno 4314 bound_to 3832
    1.3928  -20.0683    9.0852 LP  0  0  0  0  0  0  0  0  0  0  0  0  # atno 4315 bound_to 3832
   -5.4703  -22.0731   10.7885 LP  0  0  0  0  0  0  0  0  0  0  0  0  # atno 4318 bound_to 3762
   -4.1094  -22.5141   11.5759 LP  0  0  0  0  0  0  0  0  0  0  0  0  # atno 4319 bound_to 3762
   -4.4547   -4.8024    7.6707 LP  0  0  0  0  0  0  0  0  0  0  0  0  # atno 4320 bound_to 2467
   -3.8256   -5.2516    9.1091 LP  0  0  0  0  0  0  0  0  0  0  0  0  # atno 4321 bound_to 2467

> <Gold.Score>
     Score     S(PLP)   S(hbond)     S(cho)   S(metal)  DE(clash)   DE(tors)     intcor
     41.81     -39.58       0.78       0.00       0.00       0.00       0.06       0.00

> <Gold.PLP.Fitness>
41.8067

> <Gold.PLP.PLP>
-39.5779

> <Gold.PLP.part.hbond>
-1.0000

> <Gold.PLP.part.metal>
0.0000

> <Gold.PLP.part.buried>
-3.9393

> <Gold.PLP.part.nonpolar>
-35.7844

> <Gold.PLP.part.repulsive>
0.0283

> <Gold.PLP.ligand.clash>
0.0000

> <Gold.PLP.ligand.torsion>
0.0621

> <Gold.PLP.Chemscore.Hbond>
0.7840

> <Gold.PLP.Chemscore.CHOScore>
0.0000

> <Gold.PLP.Chemscore.Metal>
0.0000

> <Gold.Chemscore.Hbonds>
donor molecule, donor type, donor heavy atom, donor atom, acceptor molecule, acceptor atom, score
      P1  H  2456  2461       L1    12  0.78

> <Gold.PLP.Chemscore.Internal.Correction>
0.0010

