#       Name:                EN300-701715_i002
#       Creating user name   fsindt
#       Creation time:       Mon Feb 27 18:07:54 2023


#       File generated by GOLD software.
#

@<TRIPOS>MOLECULE
EN300-701715_i002|acide_3|mol2|292|dock4
    27    27     1
SMALL
USER_CHARGES


@<TRIPOS>ATOM
      1 C1          -0.5387 -18.9237  15.8766 C.3            1 <1>                0.0000
      2 O2          -0.7445 -18.5135  14.5233 O.3            1 <1>                0.0000
      3 C3           0.4635 -18.2743  13.7984 C.3            1 <1>                0.0000
      4 C4           0.1383 -18.0769  12.3164 C.3            1 <1>                0.0000
      5 C5          -0.5428 -19.3340  11.7719 C.3            1 <1>                0.0000
      6 C6           0.3946 -20.5325  11.9331 C.3            1 <1>                0.0000
      7 C7           0.7197 -20.7299  13.4151 C.3            1 <1>                0.0000
      8 C8           1.6571 -21.9282  13.5763 C.3            1 <1>                0.0000
      9 C9           1.4009 -19.4727  13.9597 C.3            1 <1>                0.0000
     10 C10          1.1344 -17.0360  14.3348 C.2            1 <1>                0.0000
     11 O11          2.2967 -17.0820  14.7002 O.co2          1 <1>                0.0000
     12 O12          0.5149 -15.9881  14.4032 O.co2          1 <1>               -1.0000
     13 H13          0.0095 -18.1483  16.4119 H              1 <1>                0.0000
     14 H14         -1.5032 -19.0850  16.3582 H              1 <1>                0.0000
     15 H15          0.0348 -19.8505  15.8922 H              1 <1>                0.0000
     16 H16         -0.5295 -17.2231  12.2016 H              1 <1>                0.0000
     17 H17          1.0597 -17.8944  11.7635 H              1 <1>                0.0000
     18 H18         -1.4642 -19.5165  12.3249 H              1 <1>                0.0000
     19 H19         -0.7744 -19.1934  10.7161 H              1 <1>                0.0000
     20 H20         -0.0906 -21.4280  11.5452 H              1 <1>                0.0000
     21 H21          1.3160 -20.3499  11.3801 H              1 <1>                0.0000
     22 H22         -0.2017 -20.9123  13.9680 H              1 <1>                0.0000
     23 H23          2.5786 -21.7458  13.0233 H              1 <1>                0.0000
     24 H24          1.8888 -22.0689  14.6321 H              1 <1>                0.0000
     25 H25          1.1719 -22.8239  13.1883 H              1 <1>                0.0000
     26 H26          2.3223 -19.2902  13.4066 H              1 <1>                0.0000
     27 H27          1.6326 -19.6133  15.0154 H              1 <1>                0.0000
@<TRIPOS>BOND
    1    1    2 1     
    2    1   13 1     
    3    1   14 1     
    4    1   15 1     
    5    2    3 1     
    6    3    4 1     
    7    3    9 1     
    8    3   10 1     
    9    4    5 1     
   10    4   16 1     
   11    4   17 1     
   12    5    6 1     
   13    5   18 1     
   14    5   19 1     
   15    6    7 1     
   16    6   20 1     
   17    6   21 1     
   18    7    8 1     
   19    7    9 1     
   20    7   22 1     
   21    8   23 1     
   22    8   24 1     
   23    8   25 1     
   24    9   26 1     
   25    9   27 1     
   26   10   11 ar    
   27   10   12 ar    
@<TRIPOS>SUBSTRUCTURE
      1 ****           1
@<TRIPOS>COMMENT
> <Gold.Version>
2022.2.0

> <Gold.Id.Protein>
3pbl|protein|mol2

> <Gold.Protein.RotatedTorsions>
[ 1303 1298 1297 1294 ] final  -67.26 input  179.99 | X-H torsion
[ 2461 2456 2455 2452 ] final   81.36 input   30.03 | X-H torsion
[ 2515 2510 2509 2506 ] final   29.01 input  -89.99 | X-H torsion
[ 3721 3712 3711 3710 ] final    9.46 input -179.91 | X-H torsion
[ 3841 3832 3831 3830 ] final -125.69 input -179.91 | X-H torsion
[ 3767 3762 3761 3758 ] final -137.58 input  -89.99 | X-H torsion
[ 2472 2467 2466 2463 ] final  113.56 input  -89.97 | X-H torsion

> <Gold.Protein.ActiveResidues>
 VAL82   VAL86   LEU89   PHE106  VAL107  ASP110  VAL111  MET112  CYS114  THR115 
 CYS181  SER182  ILE183  PHE188  VAL189  ILE190  SER192  SER193  SER196  TRP342 
 PHE345  PHE346  HIS349  VAL350  TYR365  THR369  GLY372  TYR373 

> <Gold.Protein.RotatedAtoms>
    3.5654   -8.8777    3.7859 H   0  0  0  0  0  0  0  0  0  0  0  0  # atno 1303 bound_to 1298
    2.0974   -8.2088    7.6198 H   0  0  0  0  0  0  0  0  0  0  0  0  # atno 2461 bound_to 2456
   -5.3666   -5.0391    8.0469 H   0  0  0  0  0  0  0  0  0  0  0  0  # atno 2472 bound_to 2467
    2.3388   -7.4268    4.9837 H   0  0  0  0  0  0  0  0  0  0  0  0  # atno 2515 bound_to 2510
   -2.4728  -18.0022   14.1077 H   0  0  0  0  0  0  0  0  0  0  0  0  # atno 3721 bound_to 3712
   -4.6035  -22.0814   11.6202 H   0  0  0  0  0  0  0  0  0  0  0  0  # atno 3767 bound_to 3762
    2.3013  -19.6104    8.4243 H   0  0  0  0  0  0  0  0  0  0  0  0  # atno 3841 bound_to 3832
    4.8867   -8.9734    4.7406 LP  0  0  0  0  0  0  0  0  0  0  0  0  # atno 4297 bound_to 1298
    3.9103  -10.2705    4.5654 LP  0  0  0  0  0  0  0  0  0  0  0  0  # atno 4298 bound_to 1298
    0.5289   -8.3133    7.1766 LP  0  0  0  0  0  0  0  0  0  0  0  0  # atno 4299 bound_to 2456
    1.1118   -9.2859    8.3517 LP  0  0  0  0  0  0  0  0  0  0  0  0  # atno 4300 bound_to 2456
    2.8191   -8.9445    4.6206 LP  0  0  0  0  0  0  0  0  0  0  0  0  # atno 4301 bound_to 2510
    2.1389   -8.6283    6.0711 LP  0  0  0  0  0  0  0  0  0  0  0  0  # atno 4302 bound_to 2510
   -3.3838  -16.7661   14.5766 LP  0  0  0  0  0  0  0  0  0  0  0  0  # atno 4306 bound_to 3712
   -3.2890  -17.1763   12.9989 LP  0  0  0  0  0  0  0  0  0  0  0  0  # atno 4307 bound_to 3712
    3.0256  -20.9684    8.8800 LP  0  0  0  0  0  0  0  0  0  0  0  0  # atno 4314 bound_to 3832
    1.5453  -20.5839    9.4523 LP  0  0  0  0  0  0  0  0  0  0  0  0  # atno 4315 bound_to 3832
   -4.0732  -23.2934   10.6629 LP  0  0  0  0  0  0  0  0  0  0  0  0  # atno 4318 bound_to 3762
   -5.4505  -22.5001   10.2883 LP  0  0  0  0  0  0  0  0  0  0  0  0  # atno 4319 bound_to 3762
   -3.7435   -4.9007    8.1606 LP  0  0  0  0  0  0  0  0  0  0  0  0  # atno 4320 bound_to 2467
   -4.6070   -5.4537    9.4316 LP  0  0  0  0  0  0  0  0  0  0  0  0  # atno 4321 bound_to 2467

> <Gold.Score>
     Score     S(PLP)   S(hbond)     S(cho)   S(metal)  DE(clash)   DE(tors)     intcor
     32.44     -26.79       2.00       0.00       0.00       0.00       0.18       0.00

> <Gold.PLP.Fitness>
32.4381

> <Gold.PLP.PLP>
-26.7883

> <Gold.PLP.part.hbond>
-2.0000

> <Gold.PLP.part.metal>
0.0000

> <Gold.PLP.part.buried>
-5.0068

> <Gold.PLP.part.nonpolar>
-20.0817

> <Gold.PLP.part.repulsive>
0.0889

> <Gold.PLP.ligand.clash>
0.0000

> <Gold.PLP.ligand.torsion>
0.1756

> <Gold.PLP.Chemscore.Hbond>
2.0000

> <Gold.PLP.Chemscore.CHOScore>
0.0000

> <Gold.PLP.Chemscore.Metal>
0.0000

> <Gold.Chemscore.Hbonds>
donor molecule, donor type, donor heavy atom, donor atom, acceptor molecule, acceptor atom, score
      P1  H  2305  2313       L1    12  1.00
      P1  H  3712  3721       L1     2  1.00

> <Gold.PLP.Chemscore.Internal.Correction>
0.0010

