#       Name:                EN300-701715_i002
#       Creating user name   fsindt
#       Creation time:       Mon Feb 27 18:07:58 2023


#       File generated by GOLD software.
#

@<TRIPOS>MOLECULE
EN300-701715_i002|acide_3|mol2|292|dock12
    27    27     1
SMALL
USER_CHARGES


@<TRIPOS>ATOM
      1 C1          -0.7962 -18.3125  10.8898 C.3            1 <1>                0.0000
      2 O2          -0.9230 -18.5094  12.2994 O.3            1 <1>                0.0000
      3 C3           0.1486 -19.2548  12.8809 C.3            1 <1>                0.0000
      4 C4          -0.0588 -19.3504  14.3938 C.3            1 <1>                0.0000
      5 C5          -0.0864 -17.9436  14.9946 C.3            1 <1>                0.0000
      6 C6           1.2407 -17.2393  14.7052 C.3            1 <1>                0.0000
      7 C7           1.4480 -17.1437  13.1924 C.3            1 <1>                0.0000
      8 C8           2.7751 -16.4394  12.9030 C.3            1 <1>                0.0000
      9 C9           1.4756 -18.5505  12.5914 C.3            1 <1>                0.0000
     10 C10          0.1757 -20.6405  12.2890 C.2            1 <1>                0.0000
     11 O11         -0.0242 -21.6109  12.9995 O.co2          1 <1>                0.0000
     12 O12          0.3976 -20.7911  11.0996 O.co2          1 <1>               -1.0000
     13 H13         -0.7685 -19.2801  10.3887 H              1 <1>                0.0000
     14 H14         -1.6481 -17.7386  10.5249 H              1 <1>                0.0000
     15 H15          0.1249 -17.7685  10.6803 H              1 <1>                0.0000
     16 H16         -1.0042 -19.8522  14.6000 H              1 <1>                0.0000
     17 H17          0.7585 -19.9190  14.8373 H              1 <1>                0.0000
     18 H18         -0.9037 -17.3750  14.5510 H              1 <1>                0.0000
     19 H19         -0.2341 -18.0117  16.0724 H              1 <1>                0.0000
     20 H20          1.2210 -16.2371  15.1332 H              1 <1>                0.0000
     21 H21          2.0580 -17.8079  15.1488 H              1 <1>                0.0000
     22 H22          0.6306 -16.5752  12.7488 H              1 <1>                0.0000
     23 H23          3.5925 -17.0079  13.3465 H              1 <1>                0.0000
     24 H24          2.9228 -16.3713  11.8251 H              1 <1>                0.0000
     25 H25          2.7554 -15.4372  13.3311 H              1 <1>                0.0000
     26 H26          2.2930 -19.1191  13.0351 H              1 <1>                0.0000
     27 H27          1.6234 -18.4825  11.5137 H              1 <1>                0.0000
@<TRIPOS>BOND
    1    1    2 1     
    2    1   13 1     
    3    1   14 1     
    4    1   15 1     
    5    2    3 1     
    6    3    4 1     
    7    3    9 1     
    8    3   10 1     
    9    4    5 1     
   10    4   16 1     
   11    4   17 1     
   12    5    6 1     
   13    5   18 1     
   14    5   19 1     
   15    6    7 1     
   16    6   20 1     
   17    6   21 1     
   18    7    8 1     
   19    7    9 1     
   20    7   22 1     
   21    8   23 1     
   22    8   24 1     
   23    8   25 1     
   24    9   26 1     
   25    9   27 1     
   26   10   11 ar    
   27   10   12 ar    
@<TRIPOS>SUBSTRUCTURE
      1 ****           1
@<TRIPOS>COMMENT
> <Gold.Version>
2022.2.0

> <Gold.Id.Protein>
3pbl|protein|mol2

> <Gold.Protein.RotatedTorsions>
[ 1303 1298 1297 1294 ] final   -1.68 input  179.99 | X-H torsion
[ 2461 2456 2455 2452 ] final    5.06 input   30.03 | X-H torsion
[ 2515 2510 2509 2506 ] final   28.28 input  -89.99 | X-H torsion
[ 3721 3712 3711 3710 ] final   49.48 input -179.91 | X-H torsion
[ 3841 3832 3831 3830 ] final  -14.05 input -179.91 | X-H torsion
[ 3767 3762 3761 3758 ] final -105.18 input  -89.99 | X-H torsion
[ 2472 2467 2466 2463 ] final   76.62 input  -89.97 | X-H torsion

> <Gold.Protein.ActiveResidues>
 VAL82   VAL86   LEU89   PHE106  VAL107  ASP110  VAL111  MET112  CYS114  THR115 
 CYS181  SER182  ILE183  PHE188  VAL189  ILE190  SER192  SER193  SER196  TRP342 
 PHE345  PHE346  HIS349  VAL350  TYR365  THR369  GLY372  TYR373 

> <Gold.Protein.RotatedAtoms>
    3.3779   -9.8505    4.0330 H   0  0  0  0  0  0  0  0  0  0  0  0  # atno 1303 bound_to 1298
    1.1205   -7.9637    7.0339 H   0  0  0  0  0  0  0  0  0  0  0  0  # atno 2461 bound_to 2456
   -4.9076   -4.8658    7.7061 H   0  0  0  0  0  0  0  0  0  0  0  0  # atno 2472 bound_to 2467
    2.3438   -7.4292    4.9730 H   0  0  0  0  0  0  0  0  0  0  0  0  # atno 2515 bound_to 2510
   -2.5415  -17.9735   13.5196 H   0  0  0  0  0  0  0  0  0  0  0  0  # atno 3721 bound_to 3712
   -5.0461  -21.9205   11.3855 H   0  0  0  0  0  0  0  0  0  0  0  0  # atno 3767 bound_to 3762
    1.6348  -20.3216    9.4738 H   0  0  0  0  0  0  0  0  0  0  0  0  # atno 3841 bound_to 3832
    4.2562   -8.4761    4.1095 LP  0  0  0  0  0  0  0  0  0  0  0  0  # atno 4297 bound_to 1298
    4.7284   -9.7946    4.9492 LP  0  0  0  0  0  0  0  0  0  0  0  0  # atno 4298 bound_to 1298
    0.5234   -9.1383    7.9989 LP  0  0  0  0  0  0  0  0  0  0  0  0  # atno 4299 bound_to 2456
    2.0938   -8.7060    8.1152 LP  0  0  0  0  0  0  0  0  0  0  0  0  # atno 4300 bound_to 2456
    2.8175   -8.9533    4.6287 LP  0  0  0  0  0  0  0  0  0  0  0  0  # atno 4301 bound_to 2510
    2.1354   -8.6170    6.0737 LP  0  0  0  0  0  0  0  0  0  0  0  0  # atno 4302 bound_to 2510
   -3.0714  -17.2672   14.8606 LP  0  0  0  0  0  0  0  0  0  0  0  0  # atno 4306 bound_to 3712
   -3.5220  -16.7084   13.3939 LP  0  0  0  0  0  0  0  0  0  0  0  0  # atno 4307 bound_to 3712
    2.3572  -19.7176    8.1740 LP  0  0  0  0  0  0  0  0  0  0  0  0  # atno 4314 bound_to 3832
    2.9837  -21.0131    8.9460 LP  0  0  0  0  0  0  0  0  0  0  0  0  # atno 4315 bound_to 3832
   -3.9104  -23.0600   11.1052 LP  0  0  0  0  0  0  0  0  0  0  0  0  # atno 4318 bound_to 3762
   -5.1710  -22.8943   10.0805 LP  0  0  0  0  0  0  0  0  0  0  0  0  # atno 4319 bound_to 3762
   -3.6462   -5.0910    8.7184 LP  0  0  0  0  0  0  0  0  0  0  0  0  # atno 4320 bound_to 2467
   -5.1632   -5.4367    9.2145 LP  0  0  0  0  0  0  0  0  0  0  0  0  # atno 4321 bound_to 2467

> <Gold.Score>
     Score     S(PLP)   S(hbond)     S(cho)   S(metal)  DE(clash)   DE(tors)     intcor
     32.37     -26.46       2.00       0.00       0.00       0.00       0.04       0.00

> <Gold.PLP.Fitness>
32.3682

> <Gold.PLP.PLP>
-26.4551

> <Gold.PLP.part.hbond>
-2.0000

> <Gold.PLP.part.metal>
0.0000

> <Gold.PLP.part.buried>
-4.3234

> <Gold.PLP.part.nonpolar>
-20.5891

> <Gold.PLP.part.repulsive>
0.0612

> <Gold.PLP.ligand.clash>
0.0000

> <Gold.PLP.ligand.torsion>
0.0439

> <Gold.PLP.Chemscore.Hbond>
2.0000

> <Gold.PLP.Chemscore.CHOScore>
0.0000

> <Gold.PLP.Chemscore.Metal>
0.0000

> <Gold.Chemscore.Hbonds>
donor molecule, donor type, donor heavy atom, donor atom, acceptor molecule, acceptor atom, score
      P1  H  3712  3721       L1     2  1.00
      P1  H  3832  3841       L1    12  1.00

> <Gold.PLP.Chemscore.Internal.Correction>
0.0010

