#       Name:                EN300-701715_i002
#       Creating user name   fsindt
#       Creation time:       Mon Feb 27 18:08:02 2023


#       File generated by GOLD software.
#

@<TRIPOS>MOLECULE
EN300-701715_i002|acide_3|mol2|292|dock20
    27    27     1
SMALL
USER_CHARGES


@<TRIPOS>ATOM
      1 C1          -0.4996 -10.2091  11.6106 C.3            1 <1>                0.0000
      2 O2          -1.5141 -11.1202  11.1830 O.3            1 <1>                0.0000
      3 C3          -1.7554 -11.1021   9.7747 C.3            1 <1>                0.0000
      4 C4          -1.9053  -9.6548   9.3015 C.3            1 <1>                0.0000
      5 C5          -3.0810  -8.9996  10.0289 C.3            1 <1>                0.0000
      6 C6          -4.3654  -9.7722   9.7217 C.3            1 <1>                0.0000
      7 C7          -4.2155 -11.2195  10.1949 C.3            1 <1>                0.0000
      8 C8          -5.4998 -11.9921   9.8875 C.3            1 <1>                0.0000
      9 C9          -3.0397 -11.8747   9.4674 C.3            1 <1>                0.0000
     10 C10         -0.5973 -11.7474   9.0582 C.2            1 <1>                0.0000
     11 O11         -0.3272 -12.9179   9.2668 O.co2          1 <1>                0.0000
     12 O12          0.0696 -11.0990   8.2699 O.co2          1 <1>               -1.0000
     13 H13         -0.7900  -9.1921  11.3472 H              1 <1>                0.0000
     14 H14         -0.3764 -10.2834  12.6911 H              1 <1>                0.0000
     15 H15          0.4416 -10.4568  11.1198 H              1 <1>                0.0000
     16 H16         -0.9903  -9.1043   9.5204 H              1 <1>                0.0000
     17 H17         -2.0894  -9.6410   8.2273 H              1 <1>                0.0000
     18 H18         -2.8970  -9.0135  11.1032 H              1 <1>                0.0000
     19 H19         -3.1878  -7.9686   9.6919 H              1 <1>                0.0000
     20 H20         -5.2030  -9.3055  10.2399 H              1 <1>                0.0000
     21 H21         -4.5495  -9.7584   8.6474 H              1 <1>                0.0000
     22 H22         -4.0314 -11.2333  11.2691 H              1 <1>                0.0000
     23 H23         -5.6840 -11.9783   8.8133 H              1 <1>                0.0000
     24 H24         -5.3930 -13.0232  10.2247 H              1 <1>                0.0000
     25 H25         -6.3375 -11.5253  10.4058 H              1 <1>                0.0000
     26 H26         -3.2239 -11.8609   8.3931 H              1 <1>                0.0000
     27 H27         -2.9329 -12.9058   9.8045 H              1 <1>                0.0000
@<TRIPOS>BOND
    1    1    2 1     
    2    1   13 1     
    3    1   14 1     
    4    1   15 1     
    5    2    3 1     
    6    3    4 1     
    7    3    9 1     
    8    3   10 1     
    9    4    5 1     
   10    4   16 1     
   11    4   17 1     
   12    5    6 1     
   13    5   18 1     
   14    5   19 1     
   15    6    7 1     
   16    6   20 1     
   17    6   21 1     
   18    7    8 1     
   19    7    9 1     
   20    7   22 1     
   21    8   23 1     
   22    8   24 1     
   23    8   25 1     
   24    9   26 1     
   25    9   27 1     
   26   10   11 ar    
   27   10   12 ar    
@<TRIPOS>SUBSTRUCTURE
      1 ****           1
@<TRIPOS>COMMENT
> <Gold.Version>
2022.2.0

> <Gold.Id.Protein>
3pbl|protein|mol2

> <Gold.Protein.RotatedTorsions>
[ 1303 1298 1297 1294 ] final -121.76 input  179.99 | X-H torsion
[ 2461 2456 2455 2452 ] final -113.64 input   30.03 | X-H torsion
[ 2515 2510 2509 2506 ] final   35.88 input  -89.99 | X-H torsion
[ 3721 3712 3711 3710 ] final   59.28 input -179.91 | X-H torsion
[ 3841 3832 3831 3830 ] final  -46.85 input -179.91 | X-H torsion
[ 3767 3762 3761 3758 ] final -165.35 input  -89.99 | X-H torsion
[ 2472 2467 2466 2463 ] final   -5.74 input  -89.97 | X-H torsion

> <Gold.Protein.ActiveResidues>
 VAL82   VAL86   LEU89   PHE106  VAL107  ASP110  VAL111  MET112  CYS114  THR115 
 CYS181  SER182  ILE183  PHE188  VAL189  ILE190  SER192  SER193  SER196  TRP342 
 PHE345  PHE346  HIS349  VAL350  TYR365  THR369  GLY372  TYR373 

> <Gold.Protein.RotatedAtoms>
    4.2570   -8.4761    4.1107 H   0  0  0  0  0  0  0  0  0  0  0  0  # atno 1303 bound_to 1298
    0.5106   -9.1286    7.9847 H   0  0  0  0  0  0  0  0  0  0  0  0  # atno 2461 bound_to 2456
   -3.7488   -4.8985    8.1507 H   0  0  0  0  0  0  0  0  0  0  0  0  # atno 2472 bound_to 2467
    2.2925   -7.4115    5.0855 H   0  0  0  0  0  0  0  0  0  0  0  0  # atno 2515 bound_to 2510
   -2.5875  -17.9130   13.3927 H   0  0  0  0  0  0  0  0  0  0  0  0  # atno 3721 bound_to 3712
   -4.2451  -22.3574   11.6331 H   0  0  0  0  0  0  0  0  0  0  0  0  # atno 3767 bound_to 3762
    1.5685  -19.9412    9.1742 H   0  0  0  0  0  0  0  0  0  0  0  0  # atno 3841 bound_to 3832
    4.7275   -9.7959    4.9491 LP  0  0  0  0  0  0  0  0  0  0  0  0  # atno 4297 bound_to 1298
    3.3776   -9.8497    4.0319 LP  0  0  0  0  0  0  0  0  0  0  0  0  # atno 4298 bound_to 1298
    2.0858   -8.7213    8.1277 LP  0  0  0  0  0  0  0  0  0  0  0  0  # atno 4299 bound_to 2456
    1.1411   -7.9584    7.0358 LP  0  0  0  0  0  0  0  0  0  0  0  0  # atno 4300 bound_to 2456
    2.8301   -8.8571    4.5498 LP  0  0  0  0  0  0  0  0  0  0  0  0  # atno 4301 bound_to 2510
    2.1742   -8.7309    6.0400 LP  0  0  0  0  0  0  0  0  0  0  0  0  # atno 4302 bound_to 2510
   -2.9900  -17.4089   14.8630 LP  0  0  0  0  0  0  0  0  0  0  0  0  # atno 4306 bound_to 3712
   -3.5504  -16.6365   13.5379 LP  0  0  0  0  0  0  0  0  0  0  0  0  # atno 4307 bound_to 3712
    2.8094  -20.0134    8.1588 LP  0  0  0  0  0  0  0  0  0  0  0  0  # atno 4314 bound_to 3832
    2.6081  -21.1568    9.3072 LP  0  0  0  0  0  0  0  0  0  0  0  0  # atno 4315 bound_to 3832
   -4.3742  -23.3290   10.3269 LP  0  0  0  0  0  0  0  0  0  0  0  0  # atno 4318 bound_to 3762
   -5.5079  -22.1886   10.6114 LP  0  0  0  0  0  0  0  0  0  0  0  0  # atno 4319 bound_to 3762
   -4.5954   -5.4527    9.4323 LP  0  0  0  0  0  0  0  0  0  0  0  0  # atno 4320 bound_to 2467
   -5.3726   -5.0422    8.0561 LP  0  0  0  0  0  0  0  0  0  0  0  0  # atno 4321 bound_to 2467

> <Gold.Score>
     Score     S(PLP)   S(hbond)     S(cho)   S(metal)  DE(clash)   DE(tors)     intcor
     40.05     -37.29       1.00       0.00       0.00       0.00       0.12       0.00

> <Gold.PLP.Fitness>
40.0503

> <Gold.PLP.PLP>
-37.2884

> <Gold.PLP.part.hbond>
-1.0000

> <Gold.PLP.part.metal>
0.0000

> <Gold.PLP.part.buried>
-0.5716

> <Gold.PLP.part.nonpolar>
-36.6202

> <Gold.PLP.part.repulsive>
0.0199

> <Gold.PLP.ligand.clash>
0.0000

> <Gold.PLP.ligand.torsion>
0.1191

> <Gold.PLP.Chemscore.Hbond>
1.0000

> <Gold.PLP.Chemscore.CHOScore>
0.0000

> <Gold.PLP.Chemscore.Metal>
0.0000

> <Gold.Chemscore.Hbonds>
donor molecule, donor type, donor heavy atom, donor atom, acceptor molecule, acceptor atom, score
      P1  H  2456  2461       L1    12  1.00

> <Gold.PLP.Chemscore.Internal.Correction>
0.0000

