#       Name:                EN300-701715_i002
#       Creating user name   fsindt
#       Creation time:       Mon Feb 27 18:07:59 2023


#       File generated by GOLD software.
#

@<TRIPOS>MOLECULE
EN300-701715_i002|acide_3|mol2|292|dock13
    27    27     1
SMALL
USER_CHARGES


@<TRIPOS>ATOM
      1 C1          -0.8180 -14.0114   8.0176 C.3            1 <1>                0.0000
      2 O2          -0.1194 -13.3146   9.0512 O.3            1 <1>                0.0000
      3 C3           0.0226 -11.9126   8.8137 C.3            1 <1>                0.0000
      4 C4           0.6880 -11.2551  10.0244 C.3            1 <1>                0.0000
      5 C5          -0.1786 -11.4768  11.2656 C.3            1 <1>                0.0000
      6 C6          -1.5587 -10.8552  11.0419 C.3            1 <1>                0.0000
      7 C7          -2.2240 -11.5128   9.8312 C.3            1 <1>                0.0000
      8 C8          -3.6040 -10.8911   9.6074 C.3            1 <1>                0.0000
      9 C9          -1.3574 -11.2910   8.5899 C.3            1 <1>                0.0000
     10 C10          0.8762 -11.6942   7.5911 C.2            1 <1>                0.0000
     11 O11          1.1017 -10.5619   7.1993 O.co2          1 <1>                0.0000
     12 O12          1.3414 -12.6499   6.9937 O.co2          1 <1>               -1.0000
     13 H13         -0.2813 -13.8976   7.0757 H              1 <1>                0.0000
     14 H14         -0.8838 -15.0692   8.2727 H              1 <1>                0.0000
     15 H15         -1.8219 -13.5991   7.9158 H              1 <1>                0.0000
     16 H16          1.6711 -11.6979  10.1838 H              1 <1>                0.0000
     17 H17          0.7963 -10.1857   9.8431 H              1 <1>                0.0000
     18 H18         -0.2870 -12.5462  11.4467 H              1 <1>                0.0000
     19 H19          0.2954 -11.0084  12.1281 H              1 <1>                0.0000
     20 H20         -2.1760 -11.0132  11.9261 H              1 <1>                0.0000
     21 H21         -1.4503  -9.7858  10.8607 H              1 <1>                0.0000
     22 H22         -2.3323 -12.5821  10.0123 H              1 <1>                0.0000
     23 H23         -3.4957  -9.8217   9.4262 H              1 <1>                0.0000
     24 H24         -4.0780 -11.3596   8.7448 H              1 <1>                0.0000
     25 H25         -4.2214 -11.0491  10.4917 H              1 <1>                0.0000
     26 H26         -1.2491 -10.2216   8.4087 H              1 <1>                0.0000
     27 H27         -1.8314 -11.7595   7.7273 H              1 <1>                0.0000
@<TRIPOS>BOND
    1    1    2 1     
    2    1   13 1     
    3    1   14 1     
    4    1   15 1     
    5    2    3 1     
    6    3    4 1     
    7    3    9 1     
    8    3   10 1     
    9    4    5 1     
   10    4   16 1     
   11    4   17 1     
   12    5    6 1     
   13    5   18 1     
   14    5   19 1     
   15    6    7 1     
   16    6   20 1     
   17    6   21 1     
   18    7    8 1     
   19    7    9 1     
   20    7   22 1     
   21    8   23 1     
   22    8   24 1     
   23    8   25 1     
   24    9   26 1     
   25    9   27 1     
   26   10   11 ar    
   27   10   12 ar    
@<TRIPOS>SUBSTRUCTURE
      1 ****           1
@<TRIPOS>COMMENT
> <Gold.Version>
2022.2.0

> <Gold.Id.Protein>
3pbl|protein|mol2

> <Gold.Protein.RotatedTorsions>
[ 1303 1298 1297 1294 ] final   79.04 input  179.99 | X-H torsion
[ 2461 2456 2455 2452 ] final -154.40 input   30.03 | X-H torsion
[ 2515 2510 2509 2506 ] final  167.10 input  -89.99 | X-H torsion
[ 3721 3712 3711 3710 ] final    7.55 input -179.91 | X-H torsion
[ 3841 3832 3831 3830 ] final  173.70 input -179.91 | X-H torsion
[ 3767 3762 3761 3758 ] final    2.29 input  -89.99 | X-H torsion
[ 2472 2467 2466 2463 ] final -171.79 input  -89.97 | X-H torsion

> <Gold.Protein.ActiveResidues>
 VAL82   VAL86   LEU89   PHE106  VAL107  ASP110  VAL111  MET112  CYS114  THR115 
 CYS181  SER182  ILE183  PHE188  VAL189  ILE190  SER192  SER193  SER196  TRP342 
 PHE345  PHE346  HIS349  VAL350  TYR365  THR369  GLY372  TYR373 

> <Gold.Protein.RotatedAtoms>
    4.2697  -10.2017    4.7891 H   0  0  0  0  0  0  0  0  0  0  0  0  # atno 1303 bound_to 1298
    1.0452   -9.2887    8.3313 H   0  0  0  0  0  0  0  0  0  0  0  0  # atno 2461 bound_to 2456
   -5.2632   -5.4150    9.1217 H   0  0  0  0  0  0  0  0  0  0  0  0  # atno 2472 bound_to 2467
    2.2397   -8.8854    5.9640 H   0  0  0  0  0  0  0  0  0  0  0  0  # atno 2515 bound_to 2510
   -2.4747  -17.9946   14.1355 H   0  0  0  0  0  0  0  0  0  0  0  0  # atno 3721 bound_to 3712
   -5.3020  -22.7448   10.1336 H   0  0  0  0  0  0  0  0  0  0  0  0  # atno 3767 bound_to 3762
    3.0084  -20.1230    8.4455 H   0  0  0  0  0  0  0  0  0  0  0  0  # atno 3841 bound_to 3832
    3.3732   -9.2609    3.8004 LP  0  0  0  0  0  0  0  0  0  0  0  0  # atno 4297 bound_to 1298
    4.7192   -8.6584    4.5019 LP  0  0  0  0  0  0  0  0  0  0  0  0  # atno 4298 bound_to 1298
    2.1197   -8.2515    7.6702 LP  0  0  0  0  0  0  0  0  0  0  0  0  # atno 4299 bound_to 2456
    0.5729   -8.2682    7.1469 LP  0  0  0  0  0  0  0  0  0  0  0  0  # atno 4300 bound_to 2456
    2.2214   -7.4146    5.2554 LP  0  0  0  0  0  0  0  0  0  0  0  0  # atno 4301 bound_to 2510
    2.8357   -8.6989    4.4555 LP  0  0  0  0  0  0  0  0  0  0  0  0  # atno 4302 bound_to 2510
   -3.3962  -16.7480   14.5535 LP  0  0  0  0  0  0  0  0  0  0  0  0  # atno 4306 bound_to 3712
   -3.2744  -17.2033   12.9900 LP  0  0  0  0  0  0  0  0  0  0  0  0  # atno 4307 bound_to 3712
    2.2780  -21.1151    9.4742 LP  0  0  0  0  0  0  0  0  0  0  0  0  # atno 4314 bound_to 3832
    1.4761  -19.8450    8.8336 LP  0  0  0  0  0  0  0  0  0  0  0  0  # atno 4315 bound_to 3832
   -4.8805  -21.9586   11.5015 LP  0  0  0  0  0  0  0  0  0  0  0  0  # atno 4318 bound_to 3762
   -3.9451  -23.1717   10.9357 LP  0  0  0  0  0  0  0  0  0  0  0  0  # atno 4319 bound_to 3762
   -4.7760   -4.8388    7.6736 LP  0  0  0  0  0  0  0  0  0  0  0  0  # atno 4320 bound_to 2467
   -3.6778   -5.1398    8.8440 LP  0  0  0  0  0  0  0  0  0  0  0  0  # atno 4321 bound_to 2467

> <Gold.Score>
     Score     S(PLP)   S(hbond)     S(cho)   S(metal)  DE(clash)   DE(tors)     intcor
     32.82     -31.19       0.55       0.00       0.00       0.00       0.02       0.00

> <Gold.PLP.Fitness>
32.8163

> <Gold.PLP.PLP>
-31.1937

> <Gold.PLP.part.hbond>
-0.7511

> <Gold.PLP.part.metal>
0.0000

> <Gold.PLP.part.buried>
-3.3818

> <Gold.PLP.part.nonpolar>
-28.0621

> <Gold.PLP.part.repulsive>
0.1304

> <Gold.PLP.ligand.clash>
0.0000

> <Gold.PLP.ligand.torsion>
0.0196

> <Gold.PLP.Chemscore.Hbond>
0.5536

> <Gold.PLP.Chemscore.CHOScore>
0.0000

> <Gold.PLP.Chemscore.Metal>
0.0000

> <Gold.Chemscore.Hbonds>
donor molecule, donor type, donor heavy atom, donor atom, acceptor molecule, acceptor atom, score
      P1  H  2456  2461       L1    11  0.30
      P1  H  2510  2515       L1    11  0.25

> <Gold.PLP.Chemscore.Internal.Correction>
0.0010

