#       Name:                EN300-701715_i002
#       Creating user name   fsindt
#       Creation time:       Mon Feb 27 18:07:55 2023


#       File generated by GOLD software.
#

@<TRIPOS>MOLECULE
EN300-701715_i002|acide_3|mol2|292|dock5
    27    27     1
SMALL
USER_CHARGES


@<TRIPOS>ATOM
      1 C1          -0.1429 -19.9032  15.1527 C.3            1 <1>                0.0000
      2 O2          -0.5790 -18.8636  14.2747 O.3            1 <1>                0.0000
      3 C3           0.1156 -18.8277  13.0264 C.3            1 <1>                0.0000
      4 C4           1.6238 -18.8032  13.2825 C.3            1 <1>                0.0000
      5 C5           1.9820 -17.5615  14.1013 C.3            1 <1>                0.0000
      6 C6           1.5756 -16.3056  13.3276 C.3            1 <1>                0.0000
      7 C7           0.0674 -16.3300  13.0715 C.3            1 <1>                0.0000
      8 C8          -0.3389 -15.0743  12.2977 C.3            1 <1>                0.0000
      9 C9          -0.2908 -17.5719  12.2526 C.3            1 <1>                0.0000
     10 C10         -0.2372 -20.0508  12.2198 C.2            1 <1>                0.0000
     11 O11         -0.9807 -20.8962  12.6879 O.co2          1 <1>                0.0000
     12 O12          0.2209 -20.1950  11.0991 O.co2          1 <1>               -1.0000
     13 H13          0.9153 -19.7692  15.3773 H              1 <1>                0.0000
     14 H14         -0.7184 -19.8631  16.0776 H              1 <1>                0.0000
     15 H15         -0.2928 -20.8706  14.6732 H              1 <1>                0.0000
     16 H16          1.9133 -19.6979  13.8337 H              1 <1>                0.0000
     17 H17          2.1536 -18.7758  12.3303 H              1 <1>                0.0000
     18 H18          1.4521 -17.5888  15.0535 H              1 <1>                0.0000
     19 H19          3.0564 -17.5440  14.2838 H              1 <1>                0.0000
     20 H20          1.8307 -15.4210  13.9110 H              1 <1>                0.0000
     21 H21          2.1055 -16.2782  12.3755 H              1 <1>                0.0000
     22 H22         -0.4624 -16.3575  14.0237 H              1 <1>                0.0000
     23 H23          0.1909 -15.0468  11.3456 H              1 <1>                0.0000
     24 H24         -1.4135 -15.0917  12.1153 H              1 <1>                0.0000
     25 H25         -0.0838 -14.1896  12.8812 H              1 <1>                0.0000
     26 H26          0.2391 -17.5444  11.3004 H              1 <1>                0.0000
     27 H27         -1.3653 -17.5893  12.0701 H              1 <1>                0.0000
@<TRIPOS>BOND
    1    1    2 1     
    2    1   13 1     
    3    1   14 1     
    4    1   15 1     
    5    2    3 1     
    6    3    4 1     
    7    3    9 1     
    8    3   10 1     
    9    4    5 1     
   10    4   16 1     
   11    4   17 1     
   12    5    6 1     
   13    5   18 1     
   14    5   19 1     
   15    6    7 1     
   16    6   20 1     
   17    6   21 1     
   18    7    8 1     
   19    7    9 1     
   20    7   22 1     
   21    8   23 1     
   22    8   24 1     
   23    8   25 1     
   24    9   26 1     
   25    9   27 1     
   26   10   11 ar    
   27   10   12 ar    
@<TRIPOS>SUBSTRUCTURE
      1 ****           1
@<TRIPOS>COMMENT
> <Gold.Version>
2022.2.0

> <Gold.Id.Protein>
3pbl|protein|mol2

> <Gold.Protein.RotatedTorsions>
[ 1303 1298 1297 1294 ] final  -37.48 input  179.99 | X-H torsion
[ 2461 2456 2455 2452 ] final  -29.76 input   30.03 | X-H torsion
[ 2515 2510 2509 2506 ] final -143.87 input  -89.99 | X-H torsion
[ 3721 3712 3711 3710 ] final   22.25 input -179.91 | X-H torsion
[ 3841 3832 3831 3830 ] final   -8.44 input -179.91 | X-H torsion
[ 3767 3762 3761 3758 ] final    7.02 input  -89.99 | X-H torsion
[ 2472 2467 2466 2463 ] final  -39.70 input  -89.97 | X-H torsion

> <Gold.Protein.ActiveResidues>
 VAL82   VAL86   LEU89   PHE106  VAL107  ASP110  VAL111  MET112  CYS114  THR115 
 CYS181  SER182  ILE183  PHE188  VAL189  ILE190  SER192  SER193  SER196  TRP342 
 PHE345  PHE346  HIS349  VAL350  TYR365  THR369  GLY372  TYR373 

> <Gold.Protein.RotatedAtoms>
    3.3588   -9.3152    3.8120 H   0  0  0  0  0  0  0  0  0  0  0  0  # atno 1303 bound_to 1298
    0.6251   -8.2207    7.1177 H   0  0  0  0  0  0  0  0  0  0  0  0  # atno 2461 bound_to 2456
   -3.6386   -5.0706    8.6619 H   0  0  0  0  0  0  0  0  0  0  0  0  # atno 2472 bound_to 2467
    2.5738   -9.2548    5.3610 H   0  0  0  0  0  0  0  0  0  0  0  0  # atno 2515 bound_to 2510
   -2.4724  -18.0325   13.9171 H   0  0  0  0  0  0  0  0  0  0  0  0  # atno 3721 bound_to 3712
   -5.2555  -22.8021   10.1092 H   0  0  0  0  0  0  0  0  0  0  0  0  # atno 3767 bound_to 3762
    1.6707  -20.3884    9.5114 H   0  0  0  0  0  0  0  0  0  0  0  0  # atno 3841 bound_to 3832
    4.6867   -8.6268    4.4671 LP  0  0  0  0  0  0  0  0  0  0  0  0  # atno 4297 bound_to 1298
    4.3170  -10.1794    4.8127 LP  0  0  0  0  0  0  0  0  0  0  0  0  # atno 4298 bound_to 1298
    0.9737   -9.2871    8.3046 LP  0  0  0  0  0  0  0  0  0  0  0  0  # atno 4299 bound_to 2456
    2.1388   -8.3003    7.7256 LP  0  0  0  0  0  0  0  0  0  0  0  0  # atno 4300 bound_to 2456
    2.0340   -7.8123    5.9027 LP  0  0  0  0  0  0  0  0  0  0  0  0  # atno 4301 bound_to 2510
    2.6888   -7.9316    4.4115 LP  0  0  0  0  0  0  0  0  0  0  0  0  # atno 4302 bound_to 2510
   -3.2928  -16.9040   14.7116 LP  0  0  0  0  0  0  0  0  0  0  0  0  # atno 4306 bound_to 3712
   -3.3805  -17.0035   13.0840 LP  0  0  0  0  0  0  0  0  0  0  0  0  # atno 4307 bound_to 3712
    2.2724  -19.6871    8.1991 LP  0  0  0  0  0  0  0  0  0  0  0  0  # atno 4314 bound_to 3832
    3.0271  -20.9665    8.8774 LP  0  0  0  0  0  0  0  0  0  0  0  0  # atno 4315 bound_to 3832
   -4.9445  -21.9406   11.4612 LP  0  0  0  0  0  0  0  0  0  0  0  0  # atno 4318 bound_to 3762
   -3.9276  -23.1324   11.0005 LP  0  0  0  0  0  0  0  0  0  0  0  0  # atno 4319 bound_to 3762
   -5.1150   -5.4445    9.2507 LP  0  0  0  0  0  0  0  0  0  0  0  0  # atno 4320 bound_to 2467
   -4.9631   -4.8784    7.7265 LP  0  0  0  0  0  0  0  0  0  0  0  0  # atno 4321 bound_to 2467

> <Gold.Score>
     Score     S(PLP)   S(hbond)     S(cho)   S(metal)  DE(clash)   DE(tors)     intcor
     34.22     -28.76       1.86       0.00       0.00       0.00       0.06       0.00

> <Gold.PLP.Fitness>
34.2219

> <Gold.PLP.PLP>
-28.7593

> <Gold.PLP.part.hbond>
-1.8827

> <Gold.PLP.part.metal>
0.0000

> <Gold.PLP.part.buried>
-4.3743

> <Gold.PLP.part.nonpolar>
-22.5466

> <Gold.PLP.part.repulsive>
0.0592

> <Gold.PLP.ligand.clash>
0.0000

> <Gold.PLP.ligand.torsion>
0.0611

> <Gold.PLP.Chemscore.Hbond>
1.8613

> <Gold.PLP.Chemscore.CHOScore>
0.0000

> <Gold.PLP.Chemscore.Metal>
0.0000

> <Gold.Chemscore.Hbonds>
donor molecule, donor type, donor heavy atom, donor atom, acceptor molecule, acceptor atom, score
      P1  H  3712  3721       L1     2  1.00
      P1  H  3832  3841       L1    12  0.86

> <Gold.PLP.Chemscore.Internal.Correction>
0.0010

