#       Name:                EN300-701715_i002
#       Creating user name   fsindt
#       Creation time:       Mon Feb 27 18:07:57 2023


#       File generated by GOLD software.
#

@<TRIPOS>MOLECULE
EN300-701715_i002|acide_3|mol2|292|dock9
    27    27     1
SMALL
USER_CHARGES


@<TRIPOS>ATOM
      1 C1          -0.2898  -9.7697  11.7002 C.3            1 <1>                0.0000
      2 O2          -0.0550 -10.5768  10.5446 O.3            1 <1>                0.0000
      3 C3          -1.2132 -11.2688  10.0738 C.3            1 <1>                0.0000
      4 C4          -1.5652 -12.3953  11.0475 C.3            1 <1>                0.0000
      5 C5          -0.3914 -13.3719  11.1432 C.3            1 <1>                0.0000
      6 C6          -0.1057 -13.9631   9.7613 C.3            1 <1>                0.0000
      7 C7           0.2463 -12.8366   8.7876 C.3            1 <1>                0.0000
      8 C8           0.5319 -13.4276   7.4056 C.3            1 <1>                0.0000
      9 C9          -0.9276 -11.8598   8.6918 C.3            1 <1>                0.0000
     10 C10         -2.3694 -10.3068   9.9795 C.2            1 <1>                0.0000
     11 O11         -2.2706  -9.2996   9.2996 O.co2          1 <1>                0.0000
     12 O12         -3.4038 -10.5357  10.5831 O.co2          1 <1>               -1.0000
     13 H13         -0.6428 -10.3989  12.5173 H              1 <1>                0.0000
     14 H14          0.6374  -9.2781  11.9947 H              1 <1>                0.0000
     15 H15         -1.0433  -9.0164  11.4703 H              1 <1>                0.0000
     16 H16         -1.7688 -11.9742  12.0321 H              1 <1>                0.0000
     17 H17         -2.4487 -12.9231  10.6884 H              1 <1>                0.0000
     18 H18          0.4921 -12.8441  11.5023 H              1 <1>                0.0000
     19 H19         -0.6421 -14.1745  11.8369 H              1 <1>                0.0000
     20 H20          0.7305 -14.6588   9.8295 H              1 <1>                0.0000
     21 H21         -0.9892 -14.4909   9.4022 H              1 <1>                0.0000
     22 H22          1.1297 -12.3087   9.1468 H              1 <1>                0.0000
     23 H23         -0.3515 -13.9555   7.0465 H              1 <1>                0.0000
     24 H24          0.7827 -12.6251   6.7119 H              1 <1>                0.0000
     25 H25          1.3682 -14.1235   7.4739 H              1 <1>                0.0000
     26 H26         -1.8110 -12.3878   8.3327 H              1 <1>                0.0000
     27 H27         -0.6768 -11.0573   7.9982 H              1 <1>                0.0000
@<TRIPOS>BOND
    1    1    2 1     
    2    1   13 1     
    3    1   14 1     
    4    1   15 1     
    5    2    3 1     
    6    3    4 1     
    7    3    9 1     
    8    3   10 1     
    9    4    5 1     
   10    4   16 1     
   11    4   17 1     
   12    5    6 1     
   13    5   18 1     
   14    5   19 1     
   15    6    7 1     
   16    6   20 1     
   17    6   21 1     
   18    7    8 1     
   19    7    9 1     
   20    7   22 1     
   21    8   23 1     
   22    8   24 1     
   23    8   25 1     
   24    9   26 1     
   25    9   27 1     
   26   10   11 ar    
   27   10   12 ar    
@<TRIPOS>SUBSTRUCTURE
      1 ****           1
@<TRIPOS>COMMENT
> <Gold.Version>
2022.2.0

> <Gold.Id.Protein>
3pbl|protein|mol2

> <Gold.Protein.RotatedTorsions>
[ 1303 1298 1297 1294 ] final -108.10 input  179.99 | X-H torsion
[ 2461 2456 2455 2452 ] final  -95.57 input   30.03 | X-H torsion
[ 2515 2510 2509 2506 ] final -135.41 input  -89.99 | X-H torsion
[ 3721 3712 3711 3710 ] final   63.93 input -179.91 | X-H torsion
[ 3841 3832 3831 3830 ] final   -0.26 input -179.91 | X-H torsion
[ 3767 3762 3761 3758 ] final -131.46 input  -89.99 | X-H torsion
[ 2472 2467 2466 2463 ] final  -31.27 input  -89.97 | X-H torsion

> <Gold.Protein.ActiveResidues>
 VAL82   VAL86   LEU89   PHE106  VAL107  ASP110  VAL111  MET112  CYS114  THR115 
 CYS181  SER182  ILE183  PHE188  VAL189  ILE190  SER192  SER193  SER196  TRP342 
 PHE345  PHE346  HIS349  VAL350  TYR365  THR369  GLY372  TYR373 

> <Gold.Protein.RotatedAtoms>
    4.0691   -8.5088    3.9928 H   0  0  0  0  0  0  0  0  0  0  0  0  # atno 1303 bound_to 1298
    0.3777   -8.9660    7.7759 H   0  0  0  0  0  0  0  0  0  0  0  0  # atno 2461 bound_to 2456
   -3.6358   -5.0234    8.5317 H   0  0  0  0  0  0  0  0  0  0  0  0  # atno 2472 bound_to 2467
    2.6278   -9.2549    5.2330 H   0  0  0  0  0  0  0  0  0  0  0  0  # atno 2515 bound_to 2510
   -2.6126  -17.8777   13.3374 H   0  0  0  0  0  0  0  0  0  0  0  0  # atno 3721 bound_to 3712
   -4.6889  -22.0356   11.5928 H   0  0  0  0  0  0  0  0  0  0  0  0  # atno 3767 bound_to 3762
    1.7345  -20.4837    9.5572 H   0  0  0  0  0  0  0  0  0  0  0  0  # atno 3841 bound_to 3832
    4.8303   -9.5967    4.9433 LP  0  0  0  0  0  0  0  0  0  0  0  0  # atno 4297 bound_to 1298
    3.4627  -10.0162    4.1557 LP  0  0  0  0  0  0  0  0  0  0  0  0  # atno 4298 bound_to 1298
    1.9315   -8.9250    8.2773 LP  0  0  0  0  0  0  0  0  0  0  0  0  # atno 4299 bound_to 2456
    1.4284   -7.9173    7.0950 LP  0  0  0  0  0  0  0  0  0  0  0  0  # atno 4300 bound_to 2456
    2.0286   -7.9303    5.9759 LP  0  0  0  0  0  0  0  0  0  0  0  0  # atno 4301 bound_to 2510
    2.6402   -7.8134    4.4664 LP  0  0  0  0  0  0  0  0  0  0  0  0  # atno 4302 bound_to 2510
   -2.9522  -17.4763   14.8544 LP  0  0  0  0  0  0  0  0  0  0  0  0  # atno 4306 bound_to 3712
   -3.5592  -16.6099   13.6104 LP  0  0  0  0  0  0  0  0  0  0  0  0  # atno 4307 bound_to 3712
    2.1485  -19.6546    8.2468 LP  0  0  0  0  0  0  0  0  0  0  0  0  # atno 4314 bound_to 3832
    3.0772  -20.8888    8.7768 LP  0  0  0  0  0  0  0  0  0  0  0  0  # atno 4315 bound_to 3832
   -4.0248  -23.2639   10.7459 LP  0  0  0  0  0  0  0  0  0  0  0  0  # atno 4318 bound_to 3762
   -5.4137  -22.5753   10.2326 LP  0  0  0  0  0  0  0  0  0  0  0  0  # atno 4319 bound_to 3762
   -4.9971   -5.4573    9.3222 LP  0  0  0  0  0  0  0  0  0  0  0  0  # atno 4320 bound_to 2467
   -5.0838   -4.9128    7.7851 LP  0  0  0  0  0  0  0  0  0  0  0  0  # atno 4321 bound_to 2467

> <Gold.Score>
     Score     S(PLP)   S(hbond)     S(cho)   S(metal)  DE(clash)   DE(tors)     intcor
     38.83     -39.10       0.00       0.00       0.00       0.00       0.13       0.00

> <Gold.PLP.Fitness>
38.8341

> <Gold.PLP.PLP>
-39.1018

> <Gold.PLP.part.hbond>
-1.0000

> <Gold.PLP.part.metal>
0.0000

> <Gold.PLP.part.buried>
-5.7295

> <Gold.PLP.part.nonpolar>
-33.7125

> <Gold.PLP.part.repulsive>
0.5016

> <Gold.PLP.ligand.clash>
0.0000

> <Gold.PLP.ligand.torsion>
0.1343

> <Gold.PLP.Chemscore.Hbond>
0.0000

> <Gold.PLP.Chemscore.CHOScore>
0.0000

> <Gold.PLP.Chemscore.Metal>
0.0000

> <Gold.PLP.Chemscore.Internal.Correction>
0.0010

