#       Name:                EN300-701715_i002
#       Creating user name   fsindt
#       Creation time:       Mon Feb 27 18:07:53 2023


#       File generated by GOLD software.
#

@<TRIPOS>MOLECULE
EN300-701715_i002|acide_3|mol2|292|dock1
    27    27     1
SMALL
USER_CHARGES


@<TRIPOS>ATOM
      1 C1          -0.2041 -14.6720   7.5191 C.3            1 <1>                0.0000
      2 O2          -0.8824 -13.4467   7.8030 O.3            1 <1>                0.0000
      3 C3          -0.0501 -12.4439   8.3893 C.3            1 <1>                0.0000
      4 C4           0.6496 -13.0189   9.6225 C.3            1 <1>                0.0000
      5 C5          -0.3999 -13.4697  10.6404 C.3            1 <1>                0.0000
      6 C6          -1.2580 -12.2720  11.0529 C.3            1 <1>                0.0000
      7 C7          -1.9576 -11.6971   9.8196 C.3            1 <1>                0.0000
      8 C8          -2.8156 -10.4993  10.2321 C.3            1 <1>                0.0000
      9 C9          -0.9081 -11.2462   8.8016 C.3            1 <1>                0.0000
     10 C10          0.9836 -11.9999   7.3866 C.2            1 <1>                0.0000
     11 O11          1.7277 -12.8189   6.8747 O.co2          1 <1>                0.0000
     12 O12          1.0758 -10.8215   7.0872 O.co2          1 <1>               -1.0000
     13 H13          0.1977 -15.0875   8.4432 H              1 <1>                0.0000
     14 H14         -0.9039 -15.3807   7.0762 H              1 <1>                0.0000
     15 H15          0.6116 -14.4825   6.8212 H              1 <1>                0.0000
     16 H16          1.2608 -13.8722   9.3287 H              1 <1>                0.0000
     17 H17          1.2844 -12.2540  10.0696 H              1 <1>                0.0000
     18 H18         -1.0348 -14.2346  10.1932 H              1 <1>                0.0000
     19 H19          0.0985 -13.8793  11.5190 H              1 <1>                0.0000
     20 H20         -2.0056 -12.5931  11.7780 H              1 <1>                0.0000
     21 H21         -0.6231 -11.5071  11.5001 H              1 <1>                0.0000
     22 H22         -2.5924 -12.4620   9.3724 H              1 <1>                0.0000
     23 H23         -2.1808  -9.7344  10.6793 H              1 <1>                0.0000
     24 H24         -3.3141 -10.0897   9.3534 H              1 <1>                0.0000
     25 H25         -3.5633 -10.8205  10.9573 H              1 <1>                0.0000
     26 H26         -0.2733 -10.4813   9.2489 H              1 <1>                0.0000
     27 H27         -1.4065 -10.8365   7.9231 H              1 <1>                0.0000
@<TRIPOS>BOND
    1    1    2 1     
    2    1   13 1     
    3    1   14 1     
    4    1   15 1     
    5    2    3 1     
    6    3    4 1     
    7    3    9 1     
    8    3   10 1     
    9    4    5 1     
   10    4   16 1     
   11    4   17 1     
   12    5    6 1     
   13    5   18 1     
   14    5   19 1     
   15    6    7 1     
   16    6   20 1     
   17    6   21 1     
   18    7    8 1     
   19    7    9 1     
   20    7   22 1     
   21    8   23 1     
   22    8   24 1     
   23    8   25 1     
   24    9   26 1     
   25    9   27 1     
   26   10   11 ar    
   27   10   12 ar    
@<TRIPOS>SUBSTRUCTURE
      1 ****           1
@<TRIPOS>COMMENT
> <Gold.Version>
2022.2.0

> <Gold.Id.Protein>
3pbl|protein|mol2

> <Gold.Protein.RotatedTorsions>
[ 1303 1298 1297 1294 ] final -119.42 input  179.99 | X-H torsion
[ 2461 2456 2455 2452 ] final -134.74 input   30.03 | X-H torsion
[ 2515 2510 2509 2506 ] final   37.68 input  -89.99 | X-H torsion
[ 3721 3712 3711 3710 ] final   50.43 input -179.91 | X-H torsion
[ 3841 3832 3831 3830 ] final   97.34 input -179.91 | X-H torsion
[ 3767 3762 3761 3758 ] final   27.33 input  -89.99 | X-H torsion
[ 2472 2467 2466 2463 ] final -122.46 input  -89.97 | X-H torsion

> <Gold.Protein.ActiveResidues>
 VAL82   VAL86   LEU89   PHE106  VAL107  ASP110  VAL111  MET112  CYS114  THR115 
 CYS181  SER182  ILE183  PHE188  VAL189  ILE190  SER192  SER193  SER196  TRP342 
 PHE345  PHE346  HIS349  VAL350  TYR365  THR369  GLY372  TYR373 

> <Gold.Protein.RotatedAtoms>
    4.2251   -8.4781    4.0893 H   0  0  0  0  0  0  0  0  0  0  0  0  # atno 1303 bound_to 1298
    0.7564   -9.2520    8.1938 H   0  0  0  0  0  0  0  0  0  0  0  0  # atno 2461 bound_to 2456
   -4.5417   -5.4482    9.4338 H   0  0  0  0  0  0  0  0  0  0  0  0  # atno 2472 bound_to 2467
    2.2807   -7.4097    5.1126 H   0  0  0  0  0  0  0  0  0  0  0  0  # atno 2515 bound_to 2510
   -2.5456  -17.9685   13.5067 H   0  0  0  0  0  0  0  0  0  0  0  0  # atno 3721 bound_to 3712
   -5.0177  -23.0300   10.0633 H   0  0  0  0  0  0  0  0  0  0  0  0  # atno 3767 bound_to 3762
    2.9163  -20.8884    9.1878 H   0  0  0  0  0  0  0  0  0  0  0  0  # atno 3841 bound_to 3832
    4.7478   -9.7632    4.9505 LP  0  0  0  0  0  0  0  0  0  0  0  0  # atno 4297 bound_to 1298
    3.3893   -9.8804    4.0519 LP  0  0  0  0  0  0  0  0  0  0  0  0  # atno 4298 bound_to 1298
    2.1605   -8.4701    7.9028 LP  0  0  0  0  0  0  0  0  0  0  0  0  # atno 4299 bound_to 2456
    0.8208   -8.0863    7.0517 LP  0  0  0  0  0  0  0  0  0  0  0  0  # atno 4300 bound_to 2456
    2.8320   -8.8329    4.5328 LP  0  0  0  0  0  0  0  0  0  0  0  0  # atno 4301 bound_to 2510
    2.1841   -8.7570    6.0298 LP  0  0  0  0  0  0  0  0  0  0  0  0  # atno 4302 bound_to 2510
   -3.0634  -17.2809   14.8620 LP  0  0  0  0  0  0  0  0  0  0  0  0  # atno 4306 bound_to 3712
   -3.5254  -16.7005   13.4073 LP  0  0  0  0  0  0  0  0  0  0  0  0  # atno 4307 bound_to 3712
    1.4188  -20.3209    9.2952 LP  0  0  0  0  0  0  0  0  0  0  0  0  # atno 4314 bound_to 3832
    2.4418  -19.7551    8.1551 LP  0  0  0  0  0  0  0  0  0  0  0  0  # atno 4315 bound_to 3832
   -5.1960  -21.9171   11.2451 LP  0  0  0  0  0  0  0  0  0  0  0  0  # atno 4318 bound_to 3762
   -3.9138  -22.9281   11.2624 LP  0  0  0  0  0  0  0  0  0  0  0  0  # atno 4319 bound_to 3762
   -5.3993   -5.0608    8.0993 LP  0  0  0  0  0  0  0  0  0  0  0  0  # atno 4320 bound_to 2467
   -3.7759   -4.8847    8.1062 LP  0  0  0  0  0  0  0  0  0  0  0  0  # atno 4321 bound_to 2467

> <Gold.Score>
     Score     S(PLP)   S(hbond)     S(cho)   S(metal)  DE(clash)   DE(tors)     intcor
     38.60     -37.55       0.40       0.00       0.00       0.00       0.08       0.00

> <Gold.PLP.Fitness>
38.5976

> <Gold.PLP.PLP>
-37.5550

> <Gold.PLP.part.hbond>
-1.2897

> <Gold.PLP.part.metal>
0.0000

> <Gold.PLP.part.buried>
-0.9442

> <Gold.PLP.part.nonpolar>
-35.8910

> <Gold.PLP.part.repulsive>
0.1687

> <Gold.PLP.ligand.clash>
0.0000

> <Gold.PLP.ligand.torsion>
0.0792

> <Gold.PLP.Chemscore.Hbond>
0.4000

> <Gold.PLP.Chemscore.CHOScore>
0.0000

> <Gold.PLP.Chemscore.Metal>
0.0000

> <Gold.Chemscore.Hbonds>
donor molecule, donor type, donor heavy atom, donor atom, acceptor molecule, acceptor atom, score
      P1  H  2456  2461       L1    12  0.40

> <Gold.PLP.Chemscore.Internal.Correction>
0.0010

