#       Name:                EN300-701715_i002
#       Creating user name   fsindt
#       Creation time:       Mon Feb 27 18:07:57 2023


#       File generated by GOLD software.
#

@<TRIPOS>MOLECULE
EN300-701715_i002|acide_3|mol2|292|dock10
    27    27     1
SMALL
USER_CHARGES


@<TRIPOS>ATOM
      1 C1          -0.7355 -19.7281  14.9673 C.3            1 <1>                0.0000
      2 O2          -0.6831 -18.8787  13.8194 O.3            1 <1>                0.0000
      3 C3           0.5957 -18.8399  13.1829 C.3            1 <1>                0.0000
      4 C4           1.6649 -18.4604  14.2093 C.3            1 <1>                0.0000
      5 C5           1.3444 -17.0834  14.7941 C.3            1 <1>                0.0000
      6 C6           1.3238 -16.0445  13.6712 C.3            1 <1>                0.0000
      7 C7           0.2545 -16.4240  12.6448 C.3            1 <1>                0.0000
      8 C8           0.2341 -15.3852  11.5217 C.3            1 <1>                0.0000
      9 C9           0.5751 -17.8011  12.0598 C.3            1 <1>                0.0000
     10 C10          0.9114 -20.1963  12.6068 C.2            1 <1>                0.0000
     11 O11          1.1163 -20.3181  11.4111 O.co2          1 <1>                0.0000
     12 O12          0.9618 -21.1718  13.3365 O.co2          1 <1>               -1.0000
     13 H13         -0.0172 -19.3804  15.7097 H              1 <1>                0.0000
     14 H14         -1.7388 -19.7027  15.3927 H              1 <1>                0.0000
     15 H15         -0.4905 -20.7493  14.6752 H              1 <1>                0.0000
     16 H16          1.6796 -19.2005  15.0094 H              1 <1>                0.0000
     17 H17          2.6403 -18.4308  13.7238 H              1 <1>                0.0000
     18 H18          0.3689 -17.1129  15.2796 H              1 <1>                0.0000
     19 H19          2.1061 -16.8130  15.5254 H              1 <1>                0.0000
     20 H20          1.0955 -15.0635  14.0878 H              1 <1>                0.0000
     21 H21          2.2993 -16.0149  13.1857 H              1 <1>                0.0000
     22 H22         -0.7209 -16.4537  13.1303 H              1 <1>                0.0000
     23 H23          1.2095 -15.3556  11.0362 H              1 <1>                0.0000
     24 H24         -0.5278 -15.6556  10.7905 H              1 <1>                0.0000
     25 H25          0.0057 -14.4042  11.9384 H              1 <1>                0.0000
     26 H26          1.5506 -17.7715  11.5743 H              1 <1>                0.0000
     27 H27         -0.1866 -18.0715  11.3286 H              1 <1>                0.0000
@<TRIPOS>BOND
    1    1    2 1     
    2    1   13 1     
    3    1   14 1     
    4    1   15 1     
    5    2    3 1     
    6    3    4 1     
    7    3    9 1     
    8    3   10 1     
    9    4    5 1     
   10    4   16 1     
   11    4   17 1     
   12    5    6 1     
   13    5   18 1     
   14    5   19 1     
   15    6    7 1     
   16    6   20 1     
   17    6   21 1     
   18    7    8 1     
   19    7    9 1     
   20    7   22 1     
   21    8   23 1     
   22    8   24 1     
   23    8   25 1     
   24    9   26 1     
   25    9   27 1     
   26   10   11 ar    
   27   10   12 ar    
@<TRIPOS>SUBSTRUCTURE
      1 ****           1
@<TRIPOS>COMMENT
> <Gold.Version>
2022.2.0

> <Gold.Id.Protein>
3pbl|protein|mol2

> <Gold.Protein.RotatedTorsions>
[ 1303 1298 1297 1294 ] final -157.00 input  179.99 | X-H torsion
[ 2461 2456 2455 2452 ] final  -23.43 input   30.03 | X-H torsion
[ 2515 2510 2509 2506 ] final  -94.23 input  -89.99 | X-H torsion
[ 3721 3712 3711 3710 ] final   15.54 input -179.91 | X-H torsion
[ 3841 3832 3831 3830 ] final   23.35 input -179.91 | X-H torsion
[ 3767 3762 3761 3758 ] final  -73.14 input  -89.99 | X-H torsion
[ 2472 2467 2466 2463 ] final   94.17 input  -89.97 | X-H torsion

> <Gold.Protein.ActiveResidues>
 VAL82   VAL86   LEU89   PHE106  VAL107  ASP110  VAL111  MET112  CYS114  THR115 
 CYS181  SER182  ILE183  PHE188  VAL189  ILE190  SER192  SER193  SER196  TRP342 
 PHE345  PHE346  HIS349  VAL350  TYR365  THR369  GLY372  TYR373 

> <Gold.Protein.RotatedAtoms>
    4.6816   -8.6227    4.4626 H   0  0  0  0  0  0  0  0  0  0  0  0  # atno 1303 bound_to 1298
    0.7030   -8.1602    7.0845 H   0  0  0  0  0  0  0  0  0  0  0  0  # atno 2461 bound_to 2456
   -5.1561   -4.9383    7.8316 H   0  0  0  0  0  0  0  0  0  0  0  0  # atno 2472 bound_to 2467
    2.8119   -8.9824    4.6573 H   0  0  0  0  0  0  0  0  0  0  0  0  # atno 2515 bound_to 2510
   -2.4699  -18.0212   14.0179 H   0  0  0  0  0  0  0  0  0  0  0  0  # atno 3721 bound_to 3712
   -5.3809  -21.9770   10.9910 H   0  0  0  0  0  0  0  0  0  0  0  0  # atno 3767 bound_to 3762
    1.9830  -20.7278    9.6219 H   0  0  0  0  0  0  0  0  0  0  0  0  # atno 3841 bound_to 3832
    4.3232  -10.1761    4.8157 LP  0  0  0  0  0  0  0  0  0  0  0  0  # atno 4297 bound_to 1298
    3.3571   -9.3228    3.8132 LP  0  0  0  0  0  0  0  0  0  0  0  0  # atno 4298 bound_to 1298
    0.8790   -9.2778    8.2624 LP  0  0  0  0  0  0  0  0  0  0  0  0  # atno 4299 bound_to 2456
    2.1556   -8.3700    7.8011 LP  0  0  0  0  0  0  0  0  0  0  0  0  # atno 4300 bound_to 2456
    2.1237   -8.5781    6.0816 LP  0  0  0  0  0  0  0  0  0  0  0  0  # atno 4301 bound_to 2510
    2.3610   -7.4383    4.9366 LP  0  0  0  0  0  0  0  0  0  0  0  0  # atno 4302 bound_to 2510
   -3.3421  -16.8281   14.6453 LP  0  0  0  0  0  0  0  0  0  0  0  0  # atno 4306 bound_to 3712
   -3.3340  -17.0924   13.0338 LP  0  0  0  0  0  0  0  0  0  0  0  0  # atno 4307 bound_to 3712
    1.8123  -19.6467    8.4479 LP  0  0  0  0  0  0  0  0  0  0  0  0  # atno 4314 bound_to 3832
    3.1263  -20.6148    8.5011 LP  0  0  0  0  0  0  0  0  0  0  0  0  # atno 4315 bound_to 3832
   -3.9940  -22.6957   11.4672 LP  0  0  0  0  0  0  0  0  0  0  0  0  # atno 4318 bound_to 3762
   -4.7528  -23.2022   10.1129 LP  0  0  0  0  0  0  0  0  0  0  0  0  # atno 4319 bound_to 3762
   -3.6449   -4.9934    8.4478 LP  0  0  0  0  0  0  0  0  0  0  0  0  # atno 4320 bound_to 2467
   -4.9161   -5.4618    9.3596 LP  0  0  0  0  0  0  0  0  0  0  0  0  # atno 4321 bound_to 2467

> <Gold.Score>
     Score     S(PLP)   S(hbond)     S(cho)   S(metal)  DE(clash)   DE(tors)     intcor
     31.51     -25.86       1.90       0.00       0.00       0.00       0.03       0.00

> <Gold.PLP.Fitness>
31.5055

> <Gold.PLP.PLP>
-25.8572

> <Gold.PLP.part.hbond>
-2.0000

> <Gold.PLP.part.metal>
0.0000

> <Gold.PLP.part.buried>
-3.7599

> <Gold.PLP.part.nonpolar>
-20.5640

> <Gold.PLP.part.repulsive>
0.0890

> <Gold.PLP.ligand.clash>
0.0000

> <Gold.PLP.ligand.torsion>
0.0263

> <Gold.PLP.Chemscore.Hbond>
1.9000

> <Gold.PLP.Chemscore.CHOScore>
0.0000

> <Gold.PLP.Chemscore.Metal>
0.0000

> <Gold.Chemscore.Hbonds>
donor molecule, donor type, donor heavy atom, donor atom, acceptor molecule, acceptor atom, score
      P1  H  3712  3721       L1     2  0.90
      P1  H  3832  3841       L1    11  1.00

> <Gold.PLP.Chemscore.Internal.Correction>
0.0010

