#       Name:                EN300-701715_i002
#       Creating user name   fsindt
#       Creation time:       Mon Feb 27 18:07:56 2023


#       File generated by GOLD software.
#

@<TRIPOS>MOLECULE
EN300-701715_i002|acide_3|mol2|292|dock7
    27    27     1
SMALL
USER_CHARGES


@<TRIPOS>ATOM
      1 C1           2.6980 -17.0935  14.3531 C.3            1 <1>                0.0000
      2 O2           2.0291 -17.9262  13.4038 O.3            1 <1>                0.0000
      3 C3           0.6511 -18.1578  13.7029 C.3            1 <1>                0.0000
      4 C4           0.5278 -18.7630  15.1027 C.3            1 <1>                0.0000
      5 C5           1.2906 -20.0882  15.1543 C.3            1 <1>                0.0000
      6 C6           0.7014 -21.0563  14.1264 C.3            1 <1>                0.0000
      7 C7           0.8248 -20.4511  12.7266 C.3            1 <1>                0.0000
      8 C8           0.2354 -21.4191  11.6988 C.3            1 <1>                0.0000
      9 C9           0.0619 -19.1258  12.6749 C.3            1 <1>                0.0000
     10 C10         -0.1002 -16.8524  13.6520 C.2            1 <1>                0.0000
     11 O11          0.1980 -15.9472  14.4124 O.co2          1 <1>                0.0000
     12 O12         -1.0064 -16.7014  12.8503 O.co2          1 <1>               -1.0000
     13 H13          2.6565 -17.5592  15.3378 H              1 <1>                0.0000
     14 H14          3.7387 -16.9660  14.0551 H              1 <1>                0.0000
     15 H15          2.2090 -16.1200  14.3908 H              1 <1>                0.0000
     16 H16          0.9476 -18.0733  15.8350 H              1 <1>                0.0000
     17 H17         -0.5233 -18.9396  15.3308 H              1 <1>                0.0000
     18 H18          2.3417 -19.9116  14.9261 H              1 <1>                0.0000
     19 H19          1.2028 -20.5194  16.1515 H              1 <1>                0.0000
     20 H20          1.2448 -22.0004  14.1632 H              1 <1>                0.0000
     21 H21         -0.3497 -21.2329  14.3546 H              1 <1>                0.0000
     22 H22          1.8758 -20.2744  12.4985 H              1 <1>                0.0000
     23 H23         -0.8156 -21.5958  11.9269 H              1 <1>                0.0000
     24 H24          0.3233 -20.9879  10.7015 H              1 <1>                0.0000
     25 H25          0.7789 -22.3633  11.7356 H              1 <1>                0.0000
     26 H26         -0.9893 -19.3025  12.9031 H              1 <1>                0.0000
     27 H27          0.1497 -18.6946  11.6777 H              1 <1>                0.0000
@<TRIPOS>BOND
    1    1    2 1     
    2    1   13 1     
    3    1   14 1     
    4    1   15 1     
    5    2    3 1     
    6    3    4 1     
    7    3    9 1     
    8    3   10 1     
    9    4    5 1     
   10    4   16 1     
   11    4   17 1     
   12    5    6 1     
   13    5   18 1     
   14    5   19 1     
   15    6    7 1     
   16    6   20 1     
   17    6   21 1     
   18    7    8 1     
   19    7    9 1     
   20    7   22 1     
   21    8   23 1     
   22    8   24 1     
   23    8   25 1     
   24    9   26 1     
   25    9   27 1     
   26   10   11 ar    
   27   10   12 ar    
@<TRIPOS>SUBSTRUCTURE
      1 ****           1
@<TRIPOS>COMMENT
> <Gold.Version>
2022.2.0

> <Gold.Id.Protein>
3pbl|protein|mol2

> <Gold.Protein.RotatedTorsions>
[ 1303 1298 1297 1294 ] final  167.57 input  179.99 | X-H torsion
[ 2461 2456 2455 2452 ] final  -24.75 input   30.03 | X-H torsion
[ 2515 2510 2509 2506 ] final  -84.68 input  -89.99 | X-H torsion
[ 3721 3712 3711 3710 ] final   84.69 input -179.91 | X-H torsion
[ 3841 3832 3831 3830 ] final  154.18 input -179.91 | X-H torsion
[ 3767 3762 3761 3758 ] final   93.77 input  -89.99 | X-H torsion
[ 2472 2467 2466 2463 ] final  -42.05 input  -89.97 | X-H torsion

> <Gold.Protein.ActiveResidues>
 VAL82   VAL86   LEU89   PHE106  VAL107  ASP110  VAL111  MET112  CYS114  THR115 
 CYS181  SER182  ILE183  PHE188  VAL189  ILE190  SER192  SER193  SER196  TRP342 
 PHE345  PHE346  HIS349  VAL350  TYR365  THR369  GLY372  TYR373 

> <Gold.Protein.RotatedAtoms>
    4.9010   -9.0473    4.7798 H   0  0  0  0  0  0  0  0  0  0  0  0  # atno 1303 bound_to 1298
    0.6863   -8.1723    7.0908 H   0  0  0  0  0  0  0  0  0  0  0  0  # atno 2461 bound_to 2456
   -3.6430   -5.0841    8.6980 H   0  0  0  0  0  0  0  0  0  0  0  0  # atno 2472 bound_to 2467
    2.8294   -8.8643    4.5556 H   0  0  0  0  0  0  0  0  0  0  0  0  # atno 2515 bound_to 2510
   -2.7457  -17.6761   13.1396 H   0  0  0  0  0  0  0  0  0  0  0  0  # atno 3721 bound_to 3712
   -4.1536  -23.3218   10.5487 H   0  0  0  0  0  0  0  0  0  0  0  0  # atno 3767 bound_to 3762
    3.1125  -20.3563    8.5899 H   0  0  0  0  0  0  0  0  0  0  0  0  # atno 3841 bound_to 3832
    3.8423  -10.2618    4.5148 LP  0  0  0  0  0  0  0  0  0  0  0  0  # atno 4297 bound_to 1298
    3.6185   -8.8123    3.7968 LP  0  0  0  0  0  0  0  0  0  0  0  0  # atno 4298 bound_to 1298
    0.8983   -9.2804    8.2717 LP  0  0  0  0  0  0  0  0  0  0  0  0  # atno 4299 bound_to 2456
    2.1530   -8.3553    7.7855 LP  0  0  0  0  0  0  0  0  0  0  0  0  # atno 4300 bound_to 2456
    2.1711   -8.7227    6.0430 LP  0  0  0  0  0  0  0  0  0  0  0  0  # atno 4301 bound_to 2510
    2.2960   -7.4119    5.0770 LP  0  0  0  0  0  0  0  0  0  0  0  0  # atno 4302 bound_to 2510
   -2.7975  -17.7636   14.7420 LP  0  0  0  0  0  0  0  0  0  0  0  0  # atno 4306 bound_to 3712
   -3.5601  -16.5554   13.9512 LP  0  0  0  0  0  0  0  0  0  0  0  0  # atno 4307 bound_to 3712
    1.9866  -20.9897    9.5424 LP  0  0  0  0  0  0  0  0  0  0  0  0  # atno 4314 bound_to 3832
    1.6474  -19.7010    8.5986 LP  0  0  0  0  0  0  0  0  0  0  0  0  # atno 4315 bound_to 3832
   -5.4882  -22.3963   10.3779 LP  0  0  0  0  0  0  0  0  0  0  0  0  # atno 4318 bound_to 3762
   -4.4854  -22.1572   11.6443 LP  0  0  0  0  0  0  0  0  0  0  0  0  # atno 4319 bound_to 3762
   -5.1460   -5.4397    9.2279 LP  0  0  0  0  0  0  0  0  0  0  0  0  # atno 4320 bound_to 2467
   -4.9278   -4.8698    7.7132 LP  0  0  0  0  0  0  0  0  0  0  0  0  # atno 4321 bound_to 2467

> <Gold.Score>
     Score     S(PLP)   S(hbond)     S(cho)   S(metal)  DE(clash)   DE(tors)     intcor
     31.13     -26.72       1.48       0.00       0.00       0.00       0.01       0.00

> <Gold.PLP.Fitness>
31.1349

> <Gold.PLP.PLP>
-26.7231

> <Gold.PLP.part.hbond>
-2.0000

> <Gold.PLP.part.metal>
0.0000

> <Gold.PLP.part.buried>
-4.1383

> <Gold.PLP.part.nonpolar>
-20.7620

> <Gold.PLP.part.repulsive>
0.1858

> <Gold.PLP.ligand.clash>
0.0000

> <Gold.PLP.ligand.torsion>
0.0146

> <Gold.PLP.Chemscore.Hbond>
1.4800

> <Gold.PLP.Chemscore.CHOScore>
0.0000

> <Gold.PLP.Chemscore.Metal>
0.0000

> <Gold.Chemscore.Hbonds>
donor molecule, donor type, donor heavy atom, donor atom, acceptor molecule, acceptor atom, score
      P1  H  2305  2313       L1    11  1.00
      P1  H  3712  3721       L1    12  0.48

> <Gold.PLP.Chemscore.Internal.Correction>
0.0010

