#       Name:                EN300-701715_i002
#       Creating user name   fsindt
#       Creation time:       Mon Feb 27 18:08:00 2023


#       File generated by GOLD software.
#

@<TRIPOS>MOLECULE
EN300-701715_i002|acide_3|mol2|292|dock15
    27    27     1
SMALL
USER_CHARGES


@<TRIPOS>ATOM
      1 C1          -1.2602 -11.8004   9.3673 C.3            1 <1>                0.0000
      2 O2          -1.0466 -12.7648   8.3348 O.3            1 <1>                0.0000
      3 C3           0.3244 -13.1212   8.1469 C.3            1 <1>                0.0000
      4 C4           0.4148 -14.3174   7.1972 C.3            1 <1>                0.0000
      5 C5          -0.3428 -15.5034   7.7973 C.3            1 <1>                0.0000
      6 C6           0.2770 -15.8749   9.1459 C.3            1 <1>                0.0000
      7 C7           0.1866 -14.6788  10.0956 C.3            1 <1>                0.0000
      8 C8           0.8065 -15.0502  11.4441 C.3            1 <1>                0.0000
      9 C9           0.9442 -13.4926   9.4955 C.3            1 <1>                0.0000
     10 C10          1.0706 -11.9529   7.5557 C.2            1 <1>                0.0000
     11 O11          1.1058 -10.8886   8.1494 O.co2          1 <1>                0.0000
     12 O12          1.6393 -12.0722   6.4838 O.co2          1 <1>               -1.0000
     13 H13         -0.7200 -10.8847   9.1267 H              1 <1>                0.0000
     14 H14         -2.3254 -11.5834   9.4473 H              1 <1>                0.0000
     15 H15         -0.8981 -12.1972  10.3158 H              1 <1>                0.0000
     16 H16         -0.0268 -14.0528   6.2364 H              1 <1>                0.0000
     17 H17          1.4606 -14.5892   7.0538 H              1 <1>                0.0000
     18 H18         -1.3886 -15.2316   7.9407 H              1 <1>                0.0000
     19 H19         -0.2784 -16.3556   7.1207 H              1 <1>                0.0000
     20 H20         -0.2627 -16.7198   9.5735 H              1 <1>                0.0000
     21 H21          1.3228 -16.1468   9.0025 H              1 <1>                0.0000
     22 H22         -0.8592 -14.4069  10.2389 H              1 <1>                0.0000
     23 H23          1.8522 -15.3221  11.3008 H              1 <1>                0.0000
     24 H24          0.7420 -14.1980  12.1207 H              1 <1>                0.0000
     25 H25          0.2667 -15.8952  11.8717 H              1 <1>                0.0000
     26 H26          1.9900 -13.7646   9.3521 H              1 <1>                0.0000
     27 H27          0.8798 -12.6404  10.1720 H              1 <1>                0.0000
@<TRIPOS>BOND
    1    1    2 1     
    2    1   13 1     
    3    1   14 1     
    4    1   15 1     
    5    2    3 1     
    6    3    4 1     
    7    3    9 1     
    8    3   10 1     
    9    4    5 1     
   10    4   16 1     
   11    4   17 1     
   12    5    6 1     
   13    5   18 1     
   14    5   19 1     
   15    6    7 1     
   16    6   20 1     
   17    6   21 1     
   18    7    8 1     
   19    7    9 1     
   20    7   22 1     
   21    8   23 1     
   22    8   24 1     
   23    8   25 1     
   24    9   26 1     
   25    9   27 1     
   26   10   11 ar    
   27   10   12 ar    
@<TRIPOS>SUBSTRUCTURE
      1 ****           1
@<TRIPOS>COMMENT
> <Gold.Version>
2022.2.0

> <Gold.Id.Protein>
3pbl|protein|mol2

> <Gold.Protein.RotatedTorsions>
[ 1303 1298 1297 1294 ] final  171.28 input  179.99 | X-H torsion
[ 2461 2456 2455 2452 ] final -153.89 input   30.03 | X-H torsion
[ 2515 2510 2509 2506 ] final   24.11 input  -89.99 | X-H torsion
[ 3721 3712 3711 3710 ] final  103.85 input -179.91 | X-H torsion
[ 3841 3832 3831 3830 ] final    5.38 input -179.91 | X-H torsion
[ 3767 3762 3761 3758 ] final   60.83 input  -89.99 | X-H torsion
[ 2472 2467 2466 2463 ] final  -33.57 input  -89.97 | X-H torsion

> <Gold.Protein.ActiveResidues>
 VAL82   VAL86   LEU89   PHE106  VAL107  ASP110  VAL111  MET112  CYS114  THR115 
 CYS181  SER182  ILE183  PHE188  VAL189  ILE190  SER192  SER193  SER196  TRP342 
 PHE345  PHE346  HIS349  VAL350  TYR365  THR369  GLY372  TYR373 

> <Gold.Protein.RotatedAtoms>
    4.8910   -8.9938    4.7522 H   0  0  0  0  0  0  0  0  0  0  0  0  # atno 1303 bound_to 1298
    1.0373   -9.2888    8.3286 H   0  0  0  0  0  0  0  0  0  0  0  0  # atno 2461 bound_to 2456
   -3.6345   -5.0361    8.5674 H   0  0  0  0  0  0  0  0  0  0  0  0  # atno 2472 bound_to 2467
    2.3727   -7.4458    4.9130 H   0  0  0  0  0  0  0  0  0  0  0  0  # atno 2515 bound_to 2510
   -2.8873  -17.4440   13.0438 H   0  0  0  0  0  0  0  0  0  0  0  0  # atno 3721 bound_to 3712
   -4.5576  -23.2849   10.2007 H   0  0  0  0  0  0  0  0  0  0  0  0  # atno 3767 bound_to 3762
    1.7859  -20.5471    9.5821 H   0  0  0  0  0  0  0  0  0  0  0  0  # atno 3841 bound_to 3832
    3.8908  -10.2688    4.5512 LP  0  0  0  0  0  0  0  0  0  0  0  0  # atno 4297 bound_to 1298
    3.5800   -8.8589    3.7881 LP  0  0  0  0  0  0  0  0  0  0  0  0  # atno 4298 bound_to 1298
    2.1220   -8.2567    7.6762 LP  0  0  0  0  0  0  0  0  0  0  0  0  # atno 4299 bound_to 2456
    0.5784   -8.2629    7.1435 LP  0  0  0  0  0  0  0  0  0  0  0  0  # atno 4300 bound_to 2456
    2.8078   -9.0015    4.6765 LP  0  0  0  0  0  0  0  0  0  0  0  0  # atno 4301 bound_to 2510
    2.1163   -8.5523    6.0859 LP  0  0  0  0  0  0  0  0  0  0  0  0  # atno 4302 bound_to 2510
   -2.6879  -17.9860   14.5419 LP  0  0  0  0  0  0  0  0  0  0  0  0  # atno 4306 bound_to 3712
   -3.5064  -16.6009   14.2619 LP  0  0  0  0  0  0  0  0  0  0  0  0  # atno 4307 bound_to 3712
    2.0642  -19.6410    8.2868 LP  0  0  0  0  0  0  0  0  0  0  0  0  # atno 4314 bound_to 3832
    3.1021  -20.8293    8.7080 LP  0  0  0  0  0  0  0  0  0  0  0  0  # atno 4315 bound_to 3832
   -5.4670  -22.0674   10.7986 LP  0  0  0  0  0  0  0  0  0  0  0  0  # atno 4318 bound_to 3762
   -4.1026  -22.5230   11.5716 LP  0  0  0  0  0  0  0  0  0  0  0  0  # atno 4319 bound_to 3762
   -5.0304   -5.4545    9.3043 LP  0  0  0  0  0  0  0  0  0  0  0  0  # atno 4320 bound_to 2467
   -5.0518   -4.9029    7.7674 LP  0  0  0  0  0  0  0  0  0  0  0  0  # atno 4321 bound_to 2467

> <Gold.Score>
     Score     S(PLP)   S(hbond)     S(cho)   S(metal)  DE(clash)   DE(tors)     intcor
     34.07     -31.23       0.99       0.00       0.00       0.00       0.07       0.00

> <Gold.PLP.Fitness>
34.0655

> <Gold.PLP.PLP>
-31.2324

> <Gold.PLP.part.hbond>
-0.7453

> <Gold.PLP.part.metal>
0.0000

> <Gold.PLP.part.buried>
-0.1784

> <Gold.PLP.part.nonpolar>
-30.7173

> <Gold.PLP.part.repulsive>
0.1048

> <Gold.PLP.ligand.clash>
0.0000

> <Gold.PLP.ligand.torsion>
0.0719

> <Gold.PLP.Chemscore.Hbond>
0.9920

> <Gold.PLP.Chemscore.CHOScore>
0.0000

> <Gold.PLP.Chemscore.Metal>
0.0000

> <Gold.Chemscore.Hbonds>
donor molecule, donor type, donor heavy atom, donor atom, acceptor molecule, acceptor atom, score
      P1  H  2456  2461       L1    11  0.99

> <Gold.PLP.Chemscore.Internal.Correction>
0.0010

