#       Name:                EN300-701715_i002
#       Creating user name   fsindt
#       Creation time:       Mon Feb 27 18:08:01 2023


#       File generated by GOLD software.
#

@<TRIPOS>MOLECULE
EN300-701715_i002|acide_3|mol2|292|dock18
    27    27     1
SMALL
USER_CHARGES


@<TRIPOS>ATOM
      1 C1           1.0308 -13.9682  10.2132 C.3            1 <1>                0.0000
      2 O2          -0.2155 -13.2701  10.1790 O.3            1 <1>                0.0000
      3 C3          -0.3092 -12.2987   9.1351 C.3            1 <1>                0.0000
      4 C4           0.5877 -11.1046   9.4678 C.3            1 <1>                0.0000
      5 C5           0.1350 -10.4791  10.7886 C.3            1 <1>                0.0000
      6 C6          -1.3148 -10.0077  10.6594 C.3            1 <1>                0.0000
      7 C7          -2.2117 -11.2018  10.3268 C.3            1 <1>                0.0000
      8 C8          -3.6614 -10.7303  10.1974 C.3            1 <1>                0.0000
      9 C9          -1.7590 -11.8273   9.0058 C.3            1 <1>                0.0000
     10 C10          0.1366 -12.9148   7.8341 C.2            1 <1>                0.0000
     11 O11         -0.4159 -13.9167   7.4130 O.co2          1 <1>                0.0000
     12 O12          1.0500 -12.4113   7.2025 O.co2          1 <1>               -1.0000
     13 H13          1.8423 -13.2559  10.3629 H              1 <1>                0.0000
     14 H14          1.0225 -14.6870  11.0326 H              1 <1>                0.0000
     15 H15          1.1787 -14.4942   9.2700 H              1 <1>                0.0000
     16 H16          1.6205 -11.4405   9.5599 H              1 <1>                0.0000
     17 H17          0.5162 -10.3637   8.6716 H              1 <1>                0.0000
     18 H18          0.2064 -11.2201  11.5848 H              1 <1>                0.0000
     19 H19          0.7739  -9.6284  11.0256 H              1 <1>                0.0000
     20 H20         -1.6373  -9.5621  11.6004 H              1 <1>                0.0000
     21 H21         -1.3862  -9.2667   9.8632 H              1 <1>                0.0000
     22 H22         -2.1402 -11.9428  11.1229 H              1 <1>                0.0000
     23 H23         -3.7329  -9.9893   9.4012 H              1 <1>                0.0000
     24 H24         -4.3004 -11.5811   9.9604 H              1 <1>                0.0000
     25 H25         -3.9839 -10.2847  11.1385 H              1 <1>                0.0000
     26 H26         -1.8305 -11.0862   8.2096 H              1 <1>                0.0000
     27 H27         -2.3980 -12.6780   8.7688 H              1 <1>                0.0000
@<TRIPOS>BOND
    1    1    2 1     
    2    1   13 1     
    3    1   14 1     
    4    1   15 1     
    5    2    3 1     
    6    3    4 1     
    7    3    9 1     
    8    3   10 1     
    9    4    5 1     
   10    4   16 1     
   11    4   17 1     
   12    5    6 1     
   13    5   18 1     
   14    5   19 1     
   15    6    7 1     
   16    6   20 1     
   17    6   21 1     
   18    7    8 1     
   19    7    9 1     
   20    7   22 1     
   21    8   23 1     
   22    8   24 1     
   23    8   25 1     
   24    9   26 1     
   25    9   27 1     
   26   10   11 ar    
   27   10   12 ar    
@<TRIPOS>SUBSTRUCTURE
      1 ****           1
@<TRIPOS>COMMENT
> <Gold.Version>
2022.2.0

> <Gold.Id.Protein>
3pbl|protein|mol2

> <Gold.Protein.RotatedTorsions>
[ 1303 1298 1297 1294 ] final -136.63 input  179.99 | X-H torsion
[ 2461 2456 2455 2452 ] final  146.61 input   30.03 | X-H torsion
[ 2515 2510 2509 2506 ] final  -17.81 input  -89.99 | X-H torsion
[ 3721 3712 3711 3710 ] final   73.27 input -179.91 | X-H torsion
[ 3841 3832 3831 3830 ] final -108.19 input -179.91 | X-H torsion
[ 3767 3762 3761 3758 ] final  130.33 input  -89.99 | X-H torsion
[ 2472 2467 2466 2463 ] final -127.04 input  -89.97 | X-H torsion

> <Gold.Protein.ActiveResidues>
 VAL82   VAL86   LEU89   PHE106  VAL107  ASP110  VAL111  MET112  CYS114  THR115 
 CYS181  SER182  ILE183  PHE188  VAL189  ILE190  SER192  SER193  SER196  TRP342 
 PHE345  PHE346  HIS349  VAL350  TYR365  THR369  GLY372  TYR373 

> <Gold.Protein.RotatedAtoms>
    4.4525   -8.4982    4.2550 H   0  0  0  0  0  0  0  0  0  0  0  0  # atno 1303 bound_to 1298
    1.9081   -8.9479    8.2920 H   0  0  0  0  0  0  0  0  0  0  0  0  # atno 2461 bound_to 2456
   -4.6166   -5.4553    9.4306 H   0  0  0  0  0  0  0  0  0  0  0  0  # atno 2472 bound_to 2467
    2.6546   -7.8461    4.4494 H   0  0  0  0  0  0  0  0  0  0  0  0  # atno 2515 bound_to 2510
   -2.6688  -17.7952   13.2376 H   0  0  0  0  0  0  0  0  0  0  0  0  # atno 3721 bound_to 3712
   -3.9179  -23.1024   11.0450 H   0  0  0  0  0  0  0  0  0  0  0  0  # atno 3767 bound_to 3762
    2.0675  -19.5796    8.5415 H   0  0  0  0  0  0  0  0  0  0  0  0  # atno 3841 bound_to 3832
    4.5768   -9.9853    4.9179 LP  0  0  0  0  0  0  0  0  0  0  0  0  # atno 4297 bound_to 1298
    3.3328   -9.6381    3.9187 LP  0  0  0  0  0  0  0  0  0  0  0  0  # atno 4298 bound_to 1298
    1.4623   -7.9169    7.1064 LP  0  0  0  0  0  0  0  0  0  0  0  0  # atno 4299 bound_to 2456
    0.3675   -8.9435    7.7498 LP  0  0  0  0  0  0  0  0  0  0  0  0  # atno 4300 bound_to 2456
    2.6128   -9.2574    5.2694 LP  0  0  0  0  0  0  0  0  0  0  0  0  # atno 4301 bound_to 2510
    2.0292   -7.8959    5.9568 LP  0  0  0  0  0  0  0  0  0  0  0  0  # atno 4302 bound_to 2510
   -2.8791  -17.6093   14.8185 LP  0  0  0  0  0  0  0  0  0  0  0  0  # atno 4306 bound_to 3712
   -3.5674  -16.5721   13.7615 LP  0  0  0  0  0  0  0  0  0  0  0  0  # atno 4307 bound_to 3712
    3.1134  -20.7906    8.6665 LP  0  0  0  0  0  0  0  0  0  0  0  0  # atno 4314 bound_to 3832
    1.7277  -20.7973    9.5304 LP  0  0  0  0  0  0  0  0  0  0  0  0  # atno 4315 bound_to 3832
   -5.2209  -22.8421   10.0956 LP  0  0  0  0  0  0  0  0  0  0  0  0  # atno 4318 bound_to 3762
   -4.9883  -21.9308   11.4305 LP  0  0  0  0  0  0  0  0  0  0  0  0  # atno 4319 bound_to 3762
   -5.3614   -5.0351    8.0396 LP  0  0  0  0  0  0  0  0  0  0  0  0  # atno 4320 bound_to 2467
   -3.7389   -4.9033    8.1691 LP  0  0  0  0  0  0  0  0  0  0  0  0  # atno 4321 bound_to 2467

> <Gold.Score>
     Score     S(PLP)   S(hbond)     S(cho)   S(metal)  DE(clash)   DE(tors)     intcor
     38.06     -38.32       0.00       0.00       0.00       0.00       0.13       0.00

> <Gold.PLP.Fitness>
38.0624

> <Gold.PLP.PLP>
-38.3153

> <Gold.PLP.part.hbond>
0.0000

> <Gold.PLP.part.metal>
0.0000

> <Gold.PLP.part.buried>
-3.5893

> <Gold.PLP.part.nonpolar>
-35.5290

> <Gold.PLP.part.repulsive>
0.0475

> <Gold.PLP.ligand.clash>
0.0000

> <Gold.PLP.ligand.torsion>
0.1264

> <Gold.PLP.Chemscore.Hbond>
0.0000

> <Gold.PLP.Chemscore.CHOScore>
0.0000

> <Gold.PLP.Chemscore.Metal>
0.0000

> <Gold.PLP.Chemscore.Internal.Correction>
0.0000

