#       Name:                EN300-701715_i002
#       Creating user name   fsindt
#       Creation time:       Mon Feb 27 18:07:54 2023


#       File generated by GOLD software.
#

@<TRIPOS>MOLECULE
EN300-701715_i002|acide_3|mol2|292|dock2
    27    27     1
SMALL
USER_CHARGES


@<TRIPOS>ATOM
      1 C1          -0.4762 -20.1038  14.2232 C.3            1 <1>                0.0000
      2 O2          -0.6294 -18.8327  13.5885 O.3            1 <1>                0.0000
      3 C3           0.4370 -18.4949  12.6992 C.3            1 <1>                0.0000
      4 C4           1.7316 -18.3250  13.4967 C.3            1 <1>                0.0000
      5 C5           1.5533 -17.2079  14.5267 C.3            1 <1>                0.0000
      6 C6           1.2219 -15.8989  13.8073 C.3            1 <1>                0.0000
      7 C7          -0.0727 -16.0687  13.0098 C.3            1 <1>                0.0000
      8 C8          -0.4039 -14.7598  12.2902 C.3            1 <1>                0.0000
      9 C9           0.1057 -17.1859  11.9797 C.3            1 <1>                0.0000
     10 C10          0.6127 -19.5953  11.6846 C.2            1 <1>                0.0000
     11 O11         -0.2876 -19.8545  10.9044 O.co2          1 <1>                0.0000
     12 O12          1.6551 -20.2263  11.6440 O.co2          1 <1>               -1.0000
     13 H13          0.4439 -20.1096  14.8076 H              1 <1>                0.0000
     14 H14         -1.3258 -20.2860  14.8814 H              1 <1>                0.0000
     15 H15         -0.4299 -20.8854  13.4649 H              1 <1>                0.0000
     16 H16          1.9677 -19.2576  14.0093 H              1 <1>                0.0000
     17 H17          2.5450 -18.0674  12.8184 H              1 <1>                0.0000
     18 H18          0.7398 -17.4655  15.2050 H              1 <1>                0.0000
     19 H19          2.4756 -17.0868  15.0948 H              1 <1>                0.0000
     20 H20          1.0949 -15.1030  14.5410 H              1 <1>                0.0000
     21 H21          2.0354 -15.6412  13.1290 H              1 <1>                0.0000
     22 H22         -0.8860 -16.3265  13.6881 H              1 <1>                0.0000
     23 H23          0.4094 -14.5020  11.6120 H              1 <1>                0.0000
     24 H24         -1.3263 -14.8808  11.7221 H              1 <1>                0.0000
     25 H25         -0.5310 -13.9638  13.0241 H              1 <1>                0.0000
     26 H26          0.9191 -16.9282  11.3014 H              1 <1>                0.0000
     27 H27         -0.8166 -17.3070  11.4115 H              1 <1>                0.0000
@<TRIPOS>BOND
    1    1    2 1     
    2    1   13 1     
    3    1   14 1     
    4    1   15 1     
    5    2    3 1     
    6    3    4 1     
    7    3    9 1     
    8    3   10 1     
    9    4    5 1     
   10    4   16 1     
   11    4   17 1     
   12    5    6 1     
   13    5   18 1     
   14    5   19 1     
   15    6    7 1     
   16    6   20 1     
   17    6   21 1     
   18    7    8 1     
   19    7    9 1     
   20    7   22 1     
   21    8   23 1     
   22    8   24 1     
   23    8   25 1     
   24    9   26 1     
   25    9   27 1     
   26   10   11 ar    
   27   10   12 ar    
@<TRIPOS>SUBSTRUCTURE
      1 ****           1
@<TRIPOS>COMMENT
> <Gold.Version>
2022.2.0

> <Gold.Id.Protein>
3pbl|protein|mol2

> <Gold.Protein.RotatedTorsions>
[ 1303 1298 1297 1294 ] final   57.21 input  179.99 | X-H torsion
[ 2461 2456 2455 2452 ] final   31.05 input   30.03 | X-H torsion
[ 2515 2510 2509 2506 ] final  -96.71 input  -89.99 | X-H torsion
[ 3721 3712 3711 3710 ] final   41.11 input -179.91 | X-H torsion
[ 3841 3832 3831 3830 ] final   22.25 input -179.91 | X-H torsion
[ 3767 3762 3761 3758 ] final  -74.09 input  -89.99 | X-H torsion
[ 2472 2467 2466 2463 ] final -106.09 input  -89.97 | X-H torsion

> <Gold.Protein.ActiveResidues>
 VAL82   VAL86   LEU89   PHE106  VAL107  ASP110  VAL111  MET112  CYS114  THR115 
 CYS181  SER182  ILE183  PHE188  VAL189  ILE190  SER192  SER193  SER196  TRP342 
 PHE345  PHE346  HIS349  VAL350  TYR365  THR369  GLY372  TYR373 

> <Gold.Protein.RotatedAtoms>
    3.9701  -10.2717    4.6081 H   0  0  0  0  0  0  0  0  0  0  0  0  # atno 1303 bound_to 1298
    1.5305   -7.9189    7.1323 H   0  0  0  0  0  0  0  0  0  0  0  0  # atno 2461 bound_to 2456
   -4.2788   -5.4067    9.3989 H   0  0  0  0  0  0  0  0  0  0  0  0  # atno 2472 bound_to 2467
    2.8056   -9.0103    4.6864 H   0  0  0  0  0  0  0  0  0  0  0  0  # atno 2515 bound_to 2510
   -2.5106  -18.0093   13.6369 H   0  0  0  0  0  0  0  0  0  0  0  0  # atno 3721 bound_to 3712
   -5.3735  -21.9722   11.0040 H   0  0  0  0  0  0  0  0  0  0  0  0  # atno 3767 bound_to 3762
    1.9697  -20.7179    9.6212 H   0  0  0  0  0  0  0  0  0  0  0  0  # atno 3841 bound_to 3832
    3.5233   -8.9376    3.7792 LP  0  0  0  0  0  0  0  0  0  0  0  0  # atno 4297 bound_to 1298
    4.8688   -8.9117    4.7042 LP  0  0  0  0  0  0  0  0  0  0  0  0  # atno 4298 bound_to 1298
    0.3503   -8.8965    7.6968 LP  0  0  0  0  0  0  0  0  0  0  0  0  # atno 4299 bound_to 2456
    1.8571   -8.9926    8.3188 LP  0  0  0  0  0  0  0  0  0  0  0  0  # atno 4300 bound_to 2456
    2.1127   -8.5394    6.0878 LP  0  0  0  0  0  0  0  0  0  0  0  0  # atno 4301 bound_to 2510
    2.3782   -7.4492    4.9013 LP  0  0  0  0  0  0  0  0  0  0  0  0  # atno 4302 bound_to 2510
   -3.1415  -17.1487   14.8365 LP  0  0  0  0  0  0  0  0  0  0  0  0  # atno 4306 bound_to 3712
   -3.4877  -16.7856   13.2825 LP  0  0  0  0  0  0  0  0  0  0  0  0  # atno 4307 bound_to 3712
    1.8267  -19.6442    8.4367 LP  0  0  0  0  0  0  0  0  0  0  0  0  # atno 4314 bound_to 3832
    3.1273  -20.6288    8.5130 LP  0  0  0  0  0  0  0  0  0  0  0  0  # atno 4315 bound_to 3832
   -3.9880  -22.7074   11.4587 LP  0  0  0  0  0  0  0  0  0  0  0  0  # atno 4318 bound_to 3762
   -4.7661  -23.1952   10.1084 LP  0  0  0  0  0  0  0  0  0  0  0  0  # atno 4319 bound_to 3762
   -5.4904   -5.1552    8.3335 LP  0  0  0  0  0  0  0  0  0  0  0  0  # atno 4320 bound_to 2467
   -3.9477   -4.8317    7.9069 LP  0  0  0  0  0  0  0  0  0  0  0  0  # atno 4321 bound_to 2467

> <Gold.Score>
     Score     S(PLP)   S(hbond)     S(cho)   S(metal)  DE(clash)   DE(tors)     intcor
     35.64     -29.76       1.99       0.00       0.00       0.00       0.05       0.00

> <Gold.PLP.Fitness>
35.6399

> <Gold.PLP.PLP>
-29.7633

> <Gold.PLP.part.hbond>
-2.0332

> <Gold.PLP.part.metal>
0.0000

> <Gold.PLP.part.buried>
-4.6046

> <Gold.PLP.part.nonpolar>
-23.4773

> <Gold.PLP.part.repulsive>
0.1583

> <Gold.PLP.ligand.clash>
0.0000

> <Gold.PLP.ligand.torsion>
0.0491

> <Gold.PLP.Chemscore.Hbond>
1.9913

> <Gold.PLP.Chemscore.CHOScore>
0.0000

> <Gold.PLP.Chemscore.Metal>
0.0000

> <Gold.Chemscore.Hbonds>
donor molecule, donor type, donor heavy atom, donor atom, acceptor molecule, acceptor atom, score
      P1  H  3712  3721       L1     2  1.00
      P1  H  3832  3841       L1    12  0.99

> <Gold.PLP.Chemscore.Internal.Correction>
0.0010

