#       Name:                EN300-701715_i002
#       Creating user name   fsindt
#       Creation time:       Mon Feb 27 18:07:53 2023


#       File generated by GOLD software.
#

@<TRIPOS>MOLECULE
EN300-701715_i002
    27    27     1
SMALL
USER_CHARGES


@<TRIPOS>ATOM
      1 C1           2.2054  -1.6472  -0.8830 C.3            1 <1>                0.0000
      2 O2           1.1723  -0.6842  -1.1005 O.3            1 <1>                0.0000
      3 C3           1.0093   0.2457  -0.0278 C.3            1 <1>                0.0000
      4 C4           0.6580  -0.5114   1.2545 C.3            1 <1>                0.0000
      5 C5          -0.6452  -1.2860   1.0486 C.3            1 <1>                0.0000
      6 C6          -1.7717  -0.3080   0.7089 C.3            1 <1>                0.0000
      7 C7          -1.4204   0.4491  -0.5734 C.3            1 <1>                0.0000
      8 C8          -2.5468   1.4272  -0.9130 C.3            1 <1>                0.0000
      9 C9          -0.1171   1.2238  -0.3675 C.3            1 <1>                0.0000
     10 C10          2.2930   1.0087   0.1750 C.2            1 <1>                0.0000
     11 O11          3.2580   0.7776  -0.5334 O.co2          1 <1>                0.0000
     12 O12          2.3665   1.8572   1.0475 O.co2          1 <1>               -1.0000
     13 H13          1.9800  -2.2259   0.0128 H              1 <1>                0.0000
     14 H14          2.2657  -2.3158  -1.7418 H              1 <1>                0.0000
     15 H15          3.1587  -1.1346  -0.7540 H              1 <1>                0.0000
     16 H16          1.4605  -1.2082   1.4965 H              1 <1>                0.0000
     17 H17          0.5337   0.1979   2.0727 H              1 <1>                0.0000
     18 H18         -0.5209  -1.9953   0.2303 H              1 <1>                0.0000
     19 H19         -0.8955  -1.8254   1.9621 H              1 <1>                0.0000
     20 H20         -2.7001  -0.8598   0.5622 H              1 <1>                0.0000
     21 H21         -1.8960   0.4013   1.5272 H              1 <1>                0.0000
     22 H22         -1.2960  -0.2602  -1.3916 H              1 <1>                0.0000
     23 H23         -2.6712   2.1365  -0.0948 H              1 <1>                0.0000
     24 H24         -2.2965   1.9666  -1.8266 H              1 <1>                0.0000
     25 H25         -3.4753   0.8753  -1.0597 H              1 <1>                0.0000
     26 H26         -0.2415   1.9331   0.4508 H              1 <1>                0.0000
     27 H27          0.1332   1.7632  -1.2810 H              1 <1>                0.0000
@<TRIPOS>BOND
    1    1    2 1     
    2    1   13 1     
    3    1   14 1     
    4    1   15 1     
    5    2    3 1     
    6    3    4 1     
    7    3    9 1     
    8    3   10 1     
    9    4    5 1     
   10    4   16 1     
   11    4   17 1     
   12    5    6 1     
   13    5   18 1     
   14    5   19 1     
   15    6    7 1     
   16    6   20 1     
   17    6   21 1     
   18    7    8 1     
   19    7    9 1     
   20    7   22 1     
   21    8   23 1     
   22    8   24 1     
   23    8   25 1     
   24    9   26 1     
   25    9   27 1     
   26   10   11 ar    
   27   10   12 ar    
@<TRIPOS>SUBSTRUCTURE
      1 ****           1
