#       Name:                EN300-701715_i002
#       Creating user name   fsindt
#       Creation time:       Mon Feb 27 18:08:01 2023


#       File generated by GOLD software.
#

@<TRIPOS>MOLECULE
EN300-701715_i002|acide_3|mol2|292|dock17
    27    27     1
SMALL
USER_CHARGES


@<TRIPOS>ATOM
      1 C1          -0.5193 -17.1349  11.6687 C.3            1 <1>                0.0000
      2 O2          -0.7085 -18.1290  12.6777 O.3            1 <1>                0.0000
      3 C3           0.3051 -18.1352  13.6849 C.3            1 <1>                0.0000
      4 C4           1.6711 -18.3565  13.0323 C.3            1 <1>                0.0000
      5 C5           1.6739 -19.6986  12.2977 C.3            1 <1>                0.0000
      6 C6           1.3960 -20.8260  13.2939 C.3            1 <1>                0.0000
      7 C7           0.0299 -20.6047  13.9465 C.3            1 <1>                0.0000
      8 C8          -0.2480 -21.7320  14.9428 C.3            1 <1>                0.0000
      9 C9           0.0271 -19.2625  14.6812 C.3            1 <1>                0.0000
     10 C10          0.3023 -16.8133  14.4085 C.2            1 <1>                0.0000
     11 O11         -0.6978 -16.4442  15.0002 O.co2          1 <1>                0.0000
     12 O12          1.3003 -16.1128  14.4023 O.co2          1 <1>               -1.0000
     13 H13          0.4328 -17.3044  11.1657 H              1 <1>                0.0000
     14 H14         -1.3297 -17.1955  10.9423 H              1 <1>                0.0000
     15 H15         -0.5164 -16.1466  12.1283 H              1 <1>                0.0000
     16 H16          1.8692 -17.5534  12.3225 H              1 <1>                0.0000
     17 H17          2.4443 -18.3612  13.8006 H              1 <1>                0.0000
     18 H18          0.9007 -19.6939  11.5294 H              1 <1>                0.0000
     19 H19          2.6471 -19.8563  11.8327 H              1 <1>                0.0000
     20 H20          1.3979 -21.7821  12.7706 H              1 <1>                0.0000
     21 H21          2.1692 -20.8307  14.0622 H              1 <1>                0.0000
     22 H22         -0.7432 -20.5999  13.1782 H              1 <1>                0.0000
     23 H23          0.5252 -21.7368  15.7111 H              1 <1>                0.0000
     24 H24         -1.2212 -21.5743  15.4077 H              1 <1>                0.0000
     25 H25         -0.2460 -22.6882  14.4194 H              1 <1>                0.0000
     26 H26          0.8004 -19.2674  15.4495 H              1 <1>                0.0000
     27 H27         -0.9461 -19.1048  15.1461 H              1 <1>                0.0000
@<TRIPOS>BOND
    1    1    2 1     
    2    1   13 1     
    3    1   14 1     
    4    1   15 1     
    5    2    3 1     
    6    3    4 1     
    7    3    9 1     
    8    3   10 1     
    9    4    5 1     
   10    4   16 1     
   11    4   17 1     
   12    5    6 1     
   13    5   18 1     
   14    5   19 1     
   15    6    7 1     
   16    6   20 1     
   17    6   21 1     
   18    7    8 1     
   19    7    9 1     
   20    7   22 1     
   21    8   23 1     
   22    8   24 1     
   23    8   25 1     
   24    9   26 1     
   25    9   27 1     
   26   10   11 ar    
   27   10   12 ar    
@<TRIPOS>SUBSTRUCTURE
      1 ****           1
@<TRIPOS>COMMENT
> <Gold.Version>
2022.2.0

> <Gold.Id.Protein>
3pbl|protein|mol2

> <Gold.Protein.RotatedTorsions>
[ 1303 1298 1297 1294 ] final -113.17 input  179.99 | X-H torsion
[ 2461 2456 2455 2452 ] final   19.98 input   30.03 | X-H torsion
[ 2515 2510 2509 2506 ] final   50.49 input  -89.99 | X-H torsion
[ 3721 3712 3711 3710 ] final   53.40 input -179.91 | X-H torsion
[ 3841 3832 3831 3830 ] final   86.66 input -179.91 | X-H torsion
[ 3767 3762 3761 3758 ] final   64.62 input  -89.99 | X-H torsion
[ 2472 2467 2466 2463 ] final   76.34 input  -89.97 | X-H torsion

> <Gold.Protein.ActiveResidues>
 VAL82   VAL86   LEU89   PHE106  VAL107  ASP110  VAL111  MET112  CYS114  THR115 
 CYS181  SER182  ILE183  PHE188  VAL189  ILE190  SER192  SER193  SER196  TRP342 
 PHE345  PHE346  HIS349  VAL350  TYR365  THR369  GLY372  TYR373 

> <Gold.Protein.RotatedAtoms>
    4.1391   -8.4908    4.0344 H   0  0  0  0  0  0  0  0  0  0  0  0  # atno 1303 bound_to 1298
    1.3583   -7.9209    7.0742 H   0  0  0  0  0  0  0  0  0  0  0  0  # atno 2461 bound_to 2456
   -4.9032   -4.8648    7.7047 H   0  0  0  0  0  0  0  0  0  0  0  0  # atno 2472 bound_to 2467
    2.2016   -7.4229    5.3069 H   0  0  0  0  0  0  0  0  0  0  0  0  # atno 2515 bound_to 2510
   -2.5587  -17.9516   13.4673 H   0  0  0  0  0  0  0  0  0  0  0  0  # atno 3721 bound_to 3712
   -4.5059  -23.3008   10.2316 H   0  0  0  0  0  0  0  0  0  0  0  0  # atno 3767 bound_to 3762
    2.8059  -20.9333    9.2963 H   0  0  0  0  0  0  0  0  0  0  0  0  # atno 3841 bound_to 3832
    4.7966   -9.6727    4.9493 LP  0  0  0  0  0  0  0  0  0  0  0  0  # atno 4297 bound_to 1298
    3.4265   -9.9581    4.1080 LP  0  0  0  0  0  0  0  0  0  0  0  0  # atno 4298 bound_to 1298
    0.4031   -9.0099    7.8286 LP  0  0  0  0  0  0  0  0  0  0  0  0  # atno 4299 bound_to 2456
    1.9764   -8.8771    8.2451 LP  0  0  0  0  0  0  0  0  0  0  0  0  # atno 4300 bound_to 2456
    2.8344   -8.6481    4.4327 LP  0  0  0  0  0  0  0  0  0  0  0  0  # atno 4301 bound_to 2510
    2.2608   -8.9286    5.9356 LP  0  0  0  0  0  0  0  0  0  0  0  0  # atno 4302 bound_to 2510
   -3.0386  -17.3238   14.8649 LP  0  0  0  0  0  0  0  0  0  0  0  0  # atno 4306 bound_to 3712
   -3.5350  -16.6771   13.4500 LP  0  0  0  0  0  0  0  0  0  0  0  0  # atno 4307 bound_to 3712
    1.3919  -20.1818    9.1873 LP  0  0  0  0  0  0  0  0  0  0  0  0  # atno 4314 bound_to 3832
    2.5961  -19.8424    8.1378 LP  0  0  0  0  0  0  0  0  0  0  0  0  # atno 4315 bound_to 3832
   -5.4828  -22.0977   10.7464 LP  0  0  0  0  0  0  0  0  0  0  0  0  # atno 4318 bound_to 3762
   -4.1386  -22.4768   11.5928 LP  0  0  0  0  0  0  0  0  0  0  0  0  # atno 4319 bound_to 3762
   -3.6470   -5.0927    8.7227 LP  0  0  0  0  0  0  0  0  0  0  0  0  # atno 4320 bound_to 2467
   -5.1668   -5.4360    9.2116 LP  0  0  0  0  0  0  0  0  0  0  0  0  # atno 4321 bound_to 2467

> <Gold.Score>
     Score     S(PLP)   S(hbond)     S(cho)   S(metal)  DE(clash)   DE(tors)     intcor
     30.12     -24.13       2.00       0.00       0.00       0.00       0.00       0.00

> <Gold.PLP.Fitness>
30.1203

> <Gold.PLP.PLP>
-24.1259

> <Gold.PLP.part.hbond>
-3.0000

> <Gold.PLP.part.metal>
0.0000

> <Gold.PLP.part.buried>
-3.9588

> <Gold.PLP.part.nonpolar>
-17.3681

> <Gold.PLP.part.repulsive>
0.1182

> <Gold.PLP.ligand.clash>
0.0000

> <Gold.PLP.ligand.torsion>
0.0028

> <Gold.PLP.Chemscore.Hbond>
2.0000

> <Gold.PLP.Chemscore.CHOScore>
0.0000

> <Gold.PLP.Chemscore.Metal>
0.0000

> <Gold.Chemscore.Hbonds>
donor molecule, donor type, donor heavy atom, donor atom, acceptor molecule, acceptor atom, score
      P1  H  2305  2313       L1    12  1.00
      P1  H  3712  3721       L1     2  1.00

> <Gold.PLP.Chemscore.Internal.Correction>
0.0000

