#       Name:                EN300-701715_i002
#       Creating user name   fsindt
#       Creation time:       Mon Feb 27 18:07:54 2023


#       File generated by GOLD software.
#

@<TRIPOS>MOLECULE
EN300-701715_i002|acide_3|mol2|292|dock3
    27    27     1
SMALL
USER_CHARGES


@<TRIPOS>ATOM
      1 C1          -0.6989 -17.7193  11.7099 C.3            1 <1>                0.0000
      2 O2          -0.6901 -18.1381  13.0761 O.3            1 <1>                0.0000
      3 C3           0.5888 -18.0398  13.7059 C.3            1 <1>                0.0000
      4 C4           1.6206 -18.8209  12.8898 C.3            1 <1>                0.0000
      5 C5           1.2023 -20.2905  12.8116 C.3            1 <1>                0.0000
      6 C6           1.1215 -20.8737  14.2237 C.3            1 <1>                0.0000
      7 C7           0.0897 -20.0925  15.0399 C.3            1 <1>                0.0000
      8 C8           0.0090 -20.6757  16.4520 C.3            1 <1>                0.0000
      9 C9           0.5080 -18.6229  15.1181 C.3            1 <1>                0.0000
     10 C10          1.0009 -16.5922  13.7830 C.2            1 <1>                0.0000
     11 O11          0.3347 -15.8023  14.4301 O.co2          1 <1>                0.0000
     12 O12          2.0005 -16.2110  13.1982 O.co2          1 <1>               -1.0000
     13 H13         -0.0093 -18.3381  11.1357 H              1 <1>                0.0000
     14 H14         -1.7051 -17.8242  11.3041 H              1 <1>                0.0000
     15 H15         -0.3890 -16.6761  11.6476 H              1 <1>                0.0000
     16 H16          1.6782 -18.4055  11.8837 H              1 <1>                0.0000
     17 H17          2.5961 -18.7459  13.3702 H              1 <1>                0.0000
     18 H18          0.2267 -20.3655  12.3312 H              1 <1>                0.0000
     19 H19          1.9373 -20.8471  12.2301 H              1 <1>                0.0000
     20 H20          0.8234 -21.9206  14.1680 H              1 <1>                0.0000
     21 H21          2.0971 -20.7987  14.7041 H              1 <1>                0.0000
     22 H22         -0.8858 -20.1675  14.5594 H              1 <1>                0.0000
     23 H23          0.9845 -20.6007  16.9325 H              1 <1>                0.0000
     24 H24         -0.7262 -20.1191  17.0335 H              1 <1>                0.0000
     25 H25         -0.2891 -21.7227  16.3963 H              1 <1>                0.0000
     26 H26          1.4836 -18.5479  15.5985 H              1 <1>                0.0000
     27 H27         -0.2270 -18.0663  15.6996 H              1 <1>                0.0000
@<TRIPOS>BOND
    1    1    2 1     
    2    1   13 1     
    3    1   14 1     
    4    1   15 1     
    5    2    3 1     
    6    3    4 1     
    7    3    9 1     
    8    3   10 1     
    9    4    5 1     
   10    4   16 1     
   11    4   17 1     
   12    5    6 1     
   13    5   18 1     
   14    5   19 1     
   15    6    7 1     
   16    6   20 1     
   17    6   21 1     
   18    7    8 1     
   19    7    9 1     
   20    7   22 1     
   21    8   23 1     
   22    8   24 1     
   23    8   25 1     
   24    9   26 1     
   25    9   27 1     
   26   10   11 ar    
   27   10   12 ar    
@<TRIPOS>SUBSTRUCTURE
      1 ****           1
@<TRIPOS>COMMENT
> <Gold.Version>
2022.2.0

> <Gold.Id.Protein>
3pbl|protein|mol2

> <Gold.Protein.RotatedTorsions>
[ 1303 1298 1297 1294 ] final -134.82 input  179.99 | X-H torsion
[ 2461 2456 2455 2452 ] final  144.18 input   30.03 | X-H torsion
[ 2515 2510 2509 2506 ] final   35.37 input  -89.99 | X-H torsion
[ 3721 3712 3711 3710 ] final   36.25 input -179.91 | X-H torsion
[ 3841 3832 3831 3830 ] final  -14.41 input -179.91 | X-H torsion
[ 3767 3762 3761 3758 ] final  -57.20 input  -89.99 | X-H torsion
[ 2472 2467 2466 2463 ] final  171.32 input  -89.97 | X-H torsion

> <Gold.Protein.ActiveResidues>
 VAL82   VAL86   LEU89   PHE106  VAL107  ASP110  VAL111  MET112  CYS114  THR115 
 CYS181  SER182  ILE183  PHE188  VAL189  ILE190  SER192  SER193  SER196  TRP342 
 PHE345  PHE346  HIS349  VAL350  TYR365  THR369  GLY372  TYR373 

> <Gold.Protein.RotatedAtoms>
    4.4296   -8.4923    4.2369 H   0  0  0  0  0  0  0  0  0  0  0  0  # atno 1303 bound_to 1298
    1.9343   -8.9224    8.2758 H   0  0  0  0  0  0  0  0  0  0  0  0  # atno 2461 bound_to 2456
   -5.4176   -5.3523    8.9005 H   0  0  0  0  0  0  0  0  0  0  0  0  # atno 2472 bound_to 2467
    2.2959   -7.4122    5.0779 H   0  0  0  0  0  0  0  0  0  0  0  0  # atno 2515 bound_to 2510
   -2.4964  -18.0230   13.7076 H   0  0  0  0  0  0  0  0  0  0  0  0  # atno 3721 bound_to 3712
   -5.4754  -22.0822   10.7711 H   0  0  0  0  0  0  0  0  0  0  0  0  # atno 3767 bound_to 3762
    1.6327  -20.3173    9.4712 H   0  0  0  0  0  0  0  0  0  0  0  0  # atno 3841 bound_to 3832
    4.5970   -9.9642    4.9238 LP  0  0  0  0  0  0  0  0  0  0  0  0  # atno 4297 bound_to 1298
    3.3354   -9.6651    3.9310 LP  0  0  0  0  0  0  0  0  0  0  0  0  # atno 4298 bound_to 1298
    1.4244   -7.9174    7.0937 LP  0  0  0  0  0  0  0  0  0  0  0  0  # atno 4299 bound_to 2456
    0.3792   -8.9685    7.7789 LP  0  0  0  0  0  0  0  0  0  0  0  0  # atno 4300 bound_to 2456
    2.8294   -8.8639    4.5547 LP  0  0  0  0  0  0  0  0  0  0  0  0  # atno 4301 bound_to 2510
    2.1714   -8.7235    6.0427 LP  0  0  0  0  0  0  0  0  0  0  0  0  # atno 4302 bound_to 2510
   -3.1817  -17.0820   14.8135 LP  0  0  0  0  0  0  0  0  0  0  0  0  # atno 4306 bound_to 3712
   -3.4638  -16.8364   13.2239 LP  0  0  0  0  0  0  0  0  0  0  0  0  # atno 4307 bound_to 3712
    2.3627  -19.7199    8.1726 LP  0  0  0  0  0  0  0  0  0  0  0  0  # atno 4314 bound_to 3832
    2.9806  -21.0159    8.9504 LP  0  0  0  0  0  0  0  0  0  0  0  0  # atno 4315 bound_to 3832
   -4.1211  -22.4988   11.5830 LP  0  0  0  0  0  0  0  0  0  0  0  0  # atno 4318 bound_to 3762
   -4.5312  -23.2938   10.2169 LP  0  0  0  0  0  0  0  0  0  0  0  0  # atno 4319 bound_to 3762
   -4.5013   -4.8053    7.6646 LP  0  0  0  0  0  0  0  0  0  0  0  0  # atno 4320 bound_to 2467
   -3.7981   -5.2359    9.0741 LP  0  0  0  0  0  0  0  0  0  0  0  0  # atno 4321 bound_to 2467

> <Gold.Score>
     Score     S(PLP)   S(hbond)     S(cho)   S(metal)  DE(clash)   DE(tors)     intcor
     31.88     -25.96       2.00       0.00       0.00       0.00       0.04       0.00

> <Gold.PLP.Fitness>
31.8848

> <Gold.PLP.PLP>
-25.9559

> <Gold.PLP.part.hbond>
-2.0000

> <Gold.PLP.part.metal>
0.0000

> <Gold.PLP.part.buried>
-4.7221

> <Gold.PLP.part.nonpolar>
-19.1583

> <Gold.PLP.part.repulsive>
0.1208

> <Gold.PLP.ligand.clash>
0.0000

> <Gold.PLP.ligand.torsion>
0.0360

> <Gold.PLP.Chemscore.Hbond>
2.0000

> <Gold.PLP.Chemscore.CHOScore>
0.0000

> <Gold.PLP.Chemscore.Metal>
0.0000

> <Gold.Chemscore.Hbonds>
donor molecule, donor type, donor heavy atom, donor atom, acceptor molecule, acceptor atom, score
      P1  H  2305  2313       L1    11  1.00
      P1  H  3712  3721       L1     2  1.00

> <Gold.PLP.Chemscore.Internal.Correction>
0.0010

