#       Name:                EN300-701715_i002
#       Creating user name   fsindt
#       Creation time:       Mon Feb 27 18:07:58 2023


#       File generated by GOLD software.
#

@<TRIPOS>MOLECULE
EN300-701715_i002|acide_3|mol2|292|dock11
    27    27     1
SMALL
USER_CHARGES


@<TRIPOS>ATOM
      1 C1           0.1028  -9.9089  11.3893 C.3            1 <1>                0.0000
      2 O2           0.3586 -10.3652  10.0595 O.3            1 <1>                0.0000
      3 C3          -0.6813 -11.1797   9.5143 C.3            1 <1>                0.0000
      4 C4          -0.6960 -12.5332  10.2275 C.3            1 <1>                0.0000
      5 C5           0.6526 -13.2282  10.0301 C.3            1 <1>                0.0000
      6 C6           0.9025 -13.4418   8.5359 C.3            1 <1>                0.0000
      7 C7           0.9171 -12.0883   7.8226 C.3            1 <1>                0.0000
      8 C8           1.1669 -12.3019   6.3284 C.3            1 <1>                0.0000
      9 C9          -0.4316 -11.3932   8.0200 C.3            1 <1>                0.0000
     10 C10         -2.0097 -10.4950   9.7088 C.2            1 <1>                0.0000
     11 O11         -2.9047 -11.0611  10.3130 O.co2          1 <1>                0.0000
     12 O12         -2.1894  -9.3749   9.2619 O.co2          1 <1>               -1.0000
     13 H13         -0.0144 -10.7667  12.0515 H              1 <1>                0.0000
     14 H14          0.9383  -9.2978  11.7308 H              1 <1>                0.0000
     15 H15         -0.8106  -9.3141  11.4000 H              1 <1>                0.0000
     16 H16         -0.8739 -12.3810  11.2921 H              1 <1>                0.0000
     17 H17         -1.4892 -13.1544   9.8117 H              1 <1>                0.0000
     18 H18          1.4459 -12.6069  10.4459 H              1 <1>                0.0000
     19 H19          0.6423 -14.1925  10.5382 H              1 <1>                0.0000
     20 H20          1.8632 -13.9369   8.3952 H              1 <1>                0.0000
     21 H21          0.1092 -14.0631   8.1201 H              1 <1>                0.0000
     22 H22          1.7103 -11.4670   8.2385 H              1 <1>                0.0000
     23 H23          0.3737 -12.9231   5.9125 H              1 <1>                0.0000
     24 H24          1.1773 -11.3375   5.8203 H              1 <1>                0.0000
     25 H25          2.1277 -12.7971   6.1878 H              1 <1>                0.0000
     26 H26         -1.2248 -12.0145   7.6042 H              1 <1>                0.0000
     27 H27         -0.4212 -10.4289   7.5119 H              1 <1>                0.0000
@<TRIPOS>BOND
    1    1    2 1     
    2    1   13 1     
    3    1   14 1     
    4    1   15 1     
    5    2    3 1     
    6    3    4 1     
    7    3    9 1     
    8    3   10 1     
    9    4    5 1     
   10    4   16 1     
   11    4   17 1     
   12    5    6 1     
   13    5   18 1     
   14    5   19 1     
   15    6    7 1     
   16    6   20 1     
   17    6   21 1     
   18    7    8 1     
   19    7    9 1     
   20    7   22 1     
   21    8   23 1     
   22    8   24 1     
   23    8   25 1     
   24    9   26 1     
   25    9   27 1     
   26   10   11 ar    
   27   10   12 ar    
@<TRIPOS>SUBSTRUCTURE
      1 ****           1
@<TRIPOS>COMMENT
> <Gold.Version>
2022.2.0

> <Gold.Id.Protein>
3pbl|protein|mol2

> <Gold.Protein.RotatedTorsions>
[ 1303 1298 1297 1294 ] final  119.15 input  179.99 | X-H torsion
[ 2461 2456 2455 2452 ] final -148.77 input   30.03 | X-H torsion
[ 2515 2510 2509 2506 ] final   -1.46 input  -89.99 | X-H torsion
[ 3721 3712 3711 3710 ] final   52.11 input -179.91 | X-H torsion
[ 3841 3832 3831 3830 ] final    1.50 input -179.91 | X-H torsion
[ 3767 3762 3761 3758 ] final  107.20 input  -89.99 | X-H torsion
[ 2472 2467 2466 2463 ] final -153.67 input  -89.97 | X-H torsion

> <Gold.Protein.ActiveResidues>
 VAL82   VAL86   LEU89   PHE106  VAL107  ASP110  VAL111  MET112  CYS114  THR115 
 CYS181  SER182  ILE183  PHE188  VAL189  ILE190  SER192  SER193  SER196  TRP342 
 PHE345  PHE346  HIS349  VAL350  TYR365  THR369  GLY372  TYR373 

> <Gold.Protein.RotatedAtoms>
    4.7352   -9.7829    4.9500 H   0  0  0  0  0  0  0  0  0  0  0  0  # atno 1303 bound_to 1298
    0.9585   -9.2863    8.2987 H   0  0  0  0  0  0  0  0  0  0  0  0  # atno 2461 bound_to 2456
   -5.0318   -5.4550    9.3032 H   0  0  0  0  0  0  0  0  0  0  0  0  # atno 2472 bound_to 2467
    2.5508   -7.6445    4.5925 H   0  0  0  0  0  0  0  0  0  0  0  0  # atno 2515 bound_to 2510
   -2.5529  -17.9592   13.4844 H   0  0  0  0  0  0  0  0  0  0  0  0  # atno 3721 bound_to 3712
   -4.0343  -23.2707   10.7271 H   0  0  0  0  0  0  0  0  0  0  0  0  # atno 3767 bound_to 3762
    1.7499  -20.5038    9.5656 H   0  0  0  0  0  0  0  0  0  0  0  0  # atno 3841 bound_to 3832
    3.3819   -9.8616    4.0396 LP  0  0  0  0  0  0  0  0  0  0  0  0  # atno 4297 bound_to 1298
    4.2448   -8.4766    4.1018 LP  0  0  0  0  0  0  0  0  0  0  0  0  # atno 4298 bound_to 1298
    2.1422   -8.3110    7.7375 LP  0  0  0  0  0  0  0  0  0  0  0  0  # atno 4299 bound_to 2456
    0.6370   -8.2110    7.1122 LP  0  0  0  0  0  0  0  0  0  0  0  0  # atno 4300 bound_to 2456
    2.7071   -9.2118    5.0225 LP  0  0  0  0  0  0  0  0  0  0  0  0  # atno 4301 bound_to 2510
    2.0388   -8.1431    6.0606 LP  0  0  0  0  0  0  0  0  0  0  0  0  # atno 4302 bound_to 2510
   -3.0494  -17.3050   14.8640 LP  0  0  0  0  0  0  0  0  0  0  0  0  # atno 4306 bound_to 3712
   -3.5309  -16.6871   13.4311 LP  0  0  0  0  0  0  0  0  0  0  0  0  # atno 4307 bound_to 3712
    2.1221  -19.6496    8.2587 LP  0  0  0  0  0  0  0  0  0  0  0  0  # atno 4314 bound_to 3832
    3.0859  -20.8707    8.7552 LP  0  0  0  0  0  0  0  0  0  0  0  0  # atno 4315 bound_to 3832
   -5.4224  -22.5588   10.2441 LP  0  0  0  0  0  0  0  0  0  0  0  0  # atno 4318 bound_to 3762
   -4.6704  -22.0458   11.5998 LP  0  0  0  0  0  0  0  0  0  0  0  0  # atno 4319 bound_to 3762
   -5.0505   -4.9025    7.7667 LP  0  0  0  0  0  0  0  0  0  0  0  0  # atno 4320 bound_to 2467
   -3.6346   -5.0360    8.5693 LP  0  0  0  0  0  0  0  0  0  0  0  0  # atno 4321 bound_to 2467

> <Gold.Score>
     Score     S(PLP)   S(hbond)     S(cho)   S(metal)  DE(clash)   DE(tors)     intcor
     39.26     -37.16       0.77       0.00       0.00       0.00       0.11       0.00

> <Gold.PLP.Fitness>
39.2602

> <Gold.PLP.PLP>
-37.1569

> <Gold.PLP.part.hbond>
-1.8732

> <Gold.PLP.part.metal>
0.0000

> <Gold.PLP.part.buried>
-4.8896

> <Gold.PLP.part.nonpolar>
-31.4546

> <Gold.PLP.part.repulsive>
0.1548

> <Gold.PLP.ligand.clash>
0.0000

> <Gold.PLP.ligand.torsion>
0.1072

> <Gold.PLP.Chemscore.Hbond>
0.7722

> <Gold.PLP.Chemscore.CHOScore>
0.0000

> <Gold.PLP.Chemscore.Metal>
0.0000

> <Gold.Chemscore.Hbonds>
donor molecule, donor type, donor heavy atom, donor atom, acceptor molecule, acceptor atom, score
      P1  H  2456  2461       L1     2  0.77

> <Gold.PLP.Chemscore.Internal.Correction>
0.0010

