#       Name:                EN300-701715_i002
#       Creating user name   fsindt
#       Creation time:       Mon Feb 27 18:08:02 2023


#       File generated by GOLD software.
#

@<TRIPOS>MOLECULE
EN300-701715_i002|acide_3|mol2|292|dock19
    27    27     1
SMALL
USER_CHARGES


@<TRIPOS>ATOM
      1 C1          -0.3936 -18.6582  15.3522 C.3            1 <1>                0.0000
      2 O2          -0.6853 -17.9828  14.1271 O.3            1 <1>                0.0000
      3 C3           0.4537 -17.7847  13.2872 C.3            1 <1>                0.0000
      4 C4           0.0186 -17.0963  11.9919 C.3            1 <1>                0.0000
      5 C5          -1.0036 -17.9737  11.2666 C.3            1 <1>                0.0000
      6 C6          -0.3713 -19.3275  10.9372 C.3            1 <1>                0.0000
      7 C7           0.0638 -20.0159  12.2324 C.3            1 <1>                0.0000
      8 C8           0.6962 -21.3695  11.9030 C.3            1 <1>                0.0000
      9 C9           1.0860 -19.1384  12.9578 C.3            1 <1>                0.0000
     10 C10          1.4605 -16.9205  14.0017 C.2            1 <1>                0.0000
     11 O11          2.5933 -17.3310  14.1879 O.co2          1 <1>                0.0000
     12 O12          1.1423 -15.8106  14.3934 O.co2          1 <1>               -1.0000
     13 H13          0.3304 -18.0776  15.9238 H              1 <1>                0.0000
     14 H14         -1.3095 -18.7697  15.9327 H              1 <1>                0.0000
     15 H15          0.0207 -19.6427  15.1346 H              1 <1>                0.0000
     16 H16         -0.4319 -16.1319  12.2266 H              1 <1>                0.0000
     17 H17          0.8874 -16.9452  11.3513 H              1 <1>                0.0000
     18 H18         -1.8723 -18.1249  11.9073 H              1 <1>                0.0000
     19 H19         -1.3135 -17.4833  10.3438 H              1 <1>                0.0000
     20 H20         -1.0995 -19.9525  10.4204 H              1 <1>                0.0000
     21 H21          0.4975 -19.1763  10.2964 H              1 <1>                0.0000
     22 H22         -0.8050 -20.1669  12.8731 H              1 <1>                0.0000
     23 H23          1.5649 -21.2185  11.2623 H              1 <1>                0.0000
     24 H24          1.0061 -21.8599  12.8259 H              1 <1>                0.0000
     25 H25         -0.0321 -21.9946  11.3862 H              1 <1>                0.0000
     26 H26          1.9548 -18.9873  12.3171 H              1 <1>                0.0000
     27 H27          1.3960 -19.6288  13.8806 H              1 <1>                0.0000
@<TRIPOS>BOND
    1    1    2 1     
    2    1   13 1     
    3    1   14 1     
    4    1   15 1     
    5    2    3 1     
    6    3    4 1     
    7    3    9 1     
    8    3   10 1     
    9    4    5 1     
   10    4   16 1     
   11    4   17 1     
   12    5    6 1     
   13    5   18 1     
   14    5   19 1     
   15    6    7 1     
   16    6   20 1     
   17    6   21 1     
   18    7    8 1     
   19    7    9 1     
   20    7   22 1     
   21    8   23 1     
   22    8   24 1     
   23    8   25 1     
   24    9   26 1     
   25    9   27 1     
   26   10   11 ar    
   27   10   12 ar    
@<TRIPOS>SUBSTRUCTURE
      1 ****           1
@<TRIPOS>COMMENT
> <Gold.Version>
2022.2.0

> <Gold.Id.Protein>
3pbl|protein|mol2

> <Gold.Protein.RotatedTorsions>
[ 1303 1298 1297 1294 ] final -123.95 input  179.99 | X-H torsion
[ 2461 2456 2455 2452 ] final  153.89 input   30.03 | X-H torsion
[ 2515 2510 2509 2506 ] final   44.44 input  -89.99 | X-H torsion
[ 3721 3712 3711 3710 ] final   13.55 input -179.91 | X-H torsion
[ 3841 3832 3831 3830 ] final  167.81 input -179.91 | X-H torsion
[ 3767 3762 3761 3758 ] final  -75.78 input  -89.99 | X-H torsion
[ 2472 2467 2466 2463 ] final -100.67 input  -89.97 | X-H torsion

> <Gold.Protein.ActiveResidues>
 VAL82   VAL86   LEU89   PHE106  VAL107  ASP110  VAL111  MET112  CYS114  THR115 
 CYS181  SER182  ILE183  PHE188  VAL189  ILE190  SER192  SER193  SER196  TRP342 
 PHE345  PHE346  HIS349  VAL350  TYR365  THR369  GLY372  TYR373 

> <Gold.Protein.RotatedAtoms>
    4.2867   -8.4756    4.1311 H   0  0  0  0  0  0  0  0  0  0  0  0  # atno 1303 bound_to 1298
    1.8227   -9.0202    8.3345 H   0  0  0  0  0  0  0  0  0  0  0  0  # atno 2461 bound_to 2456
   -4.1959   -5.3878    9.3718 H   0  0  0  0  0  0  0  0  0  0  0  0  # atno 2472 bound_to 2467
    2.2377   -7.4109    5.2151 H   0  0  0  0  0  0  0  0  0  0  0  0  # atno 2515 bound_to 2510
   -2.4703  -18.0159   14.0475 H   0  0  0  0  0  0  0  0  0  0  0  0  # atno 3721 bound_to 3712
   -5.3599  -21.9642   11.0270 H   0  0  0  0  0  0  0  0  0  0  0  0  # atno 3767 bound_to 3762
    3.0486  -20.1929    8.4832 H   0  0  0  0  0  0  0  0  0  0  0  0  # atno 3841 bound_to 3832
    4.7077   -9.8259    4.9470 LP  0  0  0  0  0  0  0  0  0  0  0  0  # atno 4297 bound_to 1298
    3.3677   -9.8202    4.0136 LP  0  0  0  0  0  0  0  0  0  0  0  0  # atno 4298 bound_to 1298
    1.5733   -7.9227    7.1510 LP  0  0  0  0  0  0  0  0  0  0  0  0  # atno 4299 bound_to 2456
    0.3420   -8.8654    7.6629 LP  0  0  0  0  0  0  0  0  0  0  0  0  # atno 4300 bound_to 2456
    2.8358   -8.7379    4.4753 LP  0  0  0  0  0  0  0  0  0  0  0  0  # atno 4301 bound_to 2510
    2.2233   -8.8507    5.9848 LP  0  0  0  0  0  0  0  0  0  0  0  0  # atno 4302 bound_to 2510
   -3.3561  -16.8071   14.6237 LP  0  0  0  0  0  0  0  0  0  0  0  0  # atno 4306 bound_to 3712
   -3.3196  -17.1195   13.0213 LP  0  0  0  0  0  0  0  0  0  0  0  0  # atno 4307 bound_to 3712
    2.1887  -21.0855    9.5030 LP  0  0  0  0  0  0  0  0  0  0  0  0  # atno 4314 bound_to 3832
    1.5190  -19.7939    8.7613 LP  0  0  0  0  0  0  0  0  0  0  0  0  # atno 4315 bound_to 3832
   -3.9780  -22.7282   11.4432 LP  0  0  0  0  0  0  0  0  0  0  0  0  # atno 4318 bound_to 3762
   -4.7897  -23.1824   10.1010 LP  0  0  0  0  0  0  0  0  0  0  0  0  # atno 4319 bound_to 3762
   -5.5043   -5.1864    8.4158 LP  0  0  0  0  0  0  0  0  0  0  0  0  # atno 4320 bound_to 2467
   -4.0166   -4.8194    7.8516 LP  0  0  0  0  0  0  0  0  0  0  0  0  # atno 4321 bound_to 2467

> <Gold.Score>
     Score     S(PLP)   S(hbond)     S(cho)   S(metal)  DE(clash)   DE(tors)     intcor
     32.52     -26.58       1.99       0.00       0.00       0.00       0.02       0.00

> <Gold.PLP.Fitness>
32.5227

> <Gold.PLP.PLP>
-26.5836

> <Gold.PLP.part.hbond>
-2.0000

> <Gold.PLP.part.metal>
0.0000

> <Gold.PLP.part.buried>
-5.3192

> <Gold.PLP.part.nonpolar>
-19.6067

> <Gold.PLP.part.repulsive>
0.0926

> <Gold.PLP.ligand.clash>
0.0000

> <Gold.PLP.ligand.torsion>
0.0185

> <Gold.PLP.Chemscore.Hbond>
1.9920

> <Gold.PLP.Chemscore.CHOScore>
0.0000

> <Gold.PLP.Chemscore.Metal>
0.0000

> <Gold.Chemscore.Hbonds>
donor molecule, donor type, donor heavy atom, donor atom, acceptor molecule, acceptor atom, score
      P1  H  2305  2313       L1    12  1.00
      P1  H  3712  3721       L1     2  0.99

> <Gold.PLP.Chemscore.Internal.Correction>
0.0000

