#       Name:                EN300-701715_i002
#       Creating user name   fsindt
#       Creation time:       Mon Feb 27 18:07:59 2023


#       File generated by GOLD software.
#

@<TRIPOS>MOLECULE
EN300-701715_i002|acide_3|mol2|292|dock14
    27    27     1
SMALL
USER_CHARGES


@<TRIPOS>ATOM
      1 C1           2.1789 -17.0222  12.9025 C.3            1 <1>                0.0000
      2 O2           2.0150 -17.8223  14.0751 O.3            1 <1>                0.0000
      3 C3           0.6606 -18.1911  14.3425 C.3            1 <1>                0.0000
      4 C4           0.6265 -19.2236  15.4711 C.3            1 <1>                0.0000
      5 C5           1.4194 -20.4632  15.0523 C.3            1 <1>                0.0000
      6 C6           0.7963 -21.0653  13.7912 C.3            1 <1>                0.0000
      7 C7           0.8303 -20.0327  12.6627 C.3            1 <1>                0.0000
      8 C8           0.2071 -20.6347  11.4017 C.3            1 <1>                0.0000
      9 C9           0.0374 -18.7930  13.0815 C.3            1 <1>                0.0000
     10 C10         -0.1203 -16.9700  14.7551 C.2            1 <1>                0.0000
     11 O11         -1.2381 -17.0917  15.2265 O.co2          1 <1>                0.0000
     12 O12          0.3657 -15.8603  14.6175 O.co2          1 <1>               -1.0000
     13 H13          1.6095 -16.0989  13.0101 H              1 <1>                0.0000
     14 H14          3.2343 -16.7846  12.7691 H              1 <1>                0.0000
     15 H15          1.8177 -17.5725  12.0336 H              1 <1>                0.0000
     16 H16          1.0705 -18.7947  16.3695 H              1 <1>                0.0000
     17 H17         -0.4066 -19.5048  15.6751 H              1 <1>                0.0000
     18 H18          2.4525 -20.1820  14.8482 H              1 <1>                0.0000
     19 H19          1.3951 -21.1988  15.8562 H              1 <1>                0.0000
     20 H20          1.3611 -21.9484  13.4928 H              1 <1>                0.0000
     21 H21         -0.2369 -21.3465  13.9953 H              1 <1>                0.0000
     22 H22          1.8634 -19.7514  12.4587 H              1 <1>                0.0000
     23 H23         -0.8260 -20.9160  11.6057 H              1 <1>                0.0000
     24 H24          0.2314 -19.8991  10.5977 H              1 <1>                0.0000
     25 H25          0.7720 -21.5179  11.1033 H              1 <1>                0.0000
     26 H26         -0.9957 -19.0744  13.2856 H              1 <1>                0.0000
     27 H27          0.0616 -18.0574  12.2775 H              1 <1>                0.0000
@<TRIPOS>BOND
    1    1    2 1     
    2    1   13 1     
    3    1   14 1     
    4    1   15 1     
    5    2    3 1     
    6    3    4 1     
    7    3    9 1     
    8    3   10 1     
    9    4    5 1     
   10    4   16 1     
   11    4   17 1     
   12    5    6 1     
   13    5   18 1     
   14    5   19 1     
   15    6    7 1     
   16    6   20 1     
   17    6   21 1     
   18    7    8 1     
   19    7    9 1     
   20    7   22 1     
   21    8   23 1     
   22    8   24 1     
   23    8   25 1     
   24    9   26 1     
   25    9   27 1     
   26   10   11 ar    
   27   10   12 ar    
@<TRIPOS>SUBSTRUCTURE
      1 ****           1
@<TRIPOS>COMMENT
> <Gold.Version>
2022.2.0

> <Gold.Id.Protein>
3pbl|protein|mol2

> <Gold.Protein.RotatedTorsions>
[ 1303 1298 1297 1294 ] final  123.95 input  179.99 | X-H torsion
[ 2461 2456 2455 2452 ] final  164.92 input   30.03 | X-H torsion
[ 2515 2510 2509 2506 ] final   80.43 input  -89.99 | X-H torsion
[ 3721 3712 3711 3710 ] final  -42.24 input -179.91 | X-H torsion
[ 3841 3832 3831 3830 ] final  -70.64 input -179.91 | X-H torsion
[ 3767 3762 3761 3758 ] final   34.92 input  -89.99 | X-H torsion
[ 2472 2467 2466 2463 ] final -116.31 input  -89.97 | X-H torsion

> <Gold.Protein.ActiveResidues>
 VAL82   VAL86   LEU89   PHE106  VAL107  ASP110  VAL111  MET112  CYS114  THR115 
 CYS181  SER182  ILE183  PHE188  VAL189  ILE190  SER192  SER193  SER196  TRP342 
 PHE345  PHE346  HIS349  VAL350  TYR365  THR369  GLY372  TYR373 

> <Gold.Protein.RotatedAtoms>
    4.7747   -9.7146    4.9510 H   0  0  0  0  0  0  0  0  0  0  0  0  # atno 1303 bound_to 1298
    1.6760   -9.1167    8.3796 H   0  0  0  0  0  0  0  0  0  0  0  0  # atno 2461 bound_to 2456
   -4.4414   -5.4354    9.4291 H   0  0  0  0  0  0  0  0  0  0  0  0  # atno 2472 bound_to 2467
    2.0672   -7.6252    5.7290 H   0  0  0  0  0  0  0  0  0  0  0  0  # atno 2515 bound_to 2510
   -2.6763  -17.5577   14.6834 H   0  0  0  0  0  0  0  0  0  0  0  0  # atno 3721 bound_to 3712
   -4.9171  -23.1035   10.0716 H   0  0  0  0  0  0  0  0  0  0  0  0  # atno 3767 bound_to 3762
    1.6778  -19.7244    8.9125 H   0  0  0  0  0  0  0  0  0  0  0  0  # atno 3841 bound_to 3832
    3.4082   -9.9230    4.0817 LP  0  0  0  0  0  0  0  0  0  0  0  0  # atno 4297 bound_to 1298
    4.1790   -8.4836    4.0587 LP  0  0  0  0  0  0  0  0  0  0  0  0  # atno 4298 bound_to 1298
    1.7308   -7.9524    7.2356 LP  0  0  0  0  0  0  0  0  0  0  0  0  # atno 4299 bound_to 2456
    0.3312   -8.7393    7.5331 LP  0  0  0  0  0  0  0  0  0  0  0  0  # atno 4300 bound_to 2456
    2.7636   -8.1720    4.3572 LP  0  0  0  0  0  0  0  0  0  0  0  0  # atno 4301 bound_to 2510
    2.4662   -9.2022    5.5888 LP  0  0  0  0  0  0  0  0  0  0  0  0  # atno 4302 bound_to 2510
   -3.5675  -16.5680   13.7867 LP  0  0  0  0  0  0  0  0  0  0  0  0  # atno 4306 bound_to 3712
   -2.8703  -17.8877   13.1241 LP  0  0  0  0  0  0  0  0  0  0  0  0  # atno 4307 bound_to 3712
    3.0341  -20.3117    8.2868 LP  0  0  0  0  0  0  0  0  0  0  0  0  # atno 4314 bound_to 3832
    2.2571  -21.1088    9.4816 LP  0  0  0  0  0  0  0  0  0  0  0  0  # atno 4315 bound_to 3832
   -5.2760  -21.9311   11.1502 LP  0  0  0  0  0  0  0  0  0  0  0  0  # atno 4318 bound_to 3762
   -3.9343  -22.8405   11.3490 LP  0  0  0  0  0  0  0  0  0  0  0  0  # atno 4319 bound_to 3762
   -5.4420   -5.0960    8.1841 LP  0  0  0  0  0  0  0  0  0  0  0  0  # atno 4320 bound_to 2467
   -3.8335   -4.8621    8.0261 LP  0  0  0  0  0  0  0  0  0  0  0  0  # atno 4321 bound_to 2467

> <Gold.Score>
     Score     S(PLP)   S(hbond)     S(cho)   S(metal)  DE(clash)   DE(tors)     intcor
     31.03     -26.03       1.94       0.00       0.00       0.00       0.41       0.00

> <Gold.PLP.Fitness>
31.0317

> <Gold.PLP.PLP>
-26.0266

> <Gold.PLP.part.hbond>
-1.6805

> <Gold.PLP.part.metal>
0.0000

> <Gold.PLP.part.buried>
-3.9558

> <Gold.PLP.part.nonpolar>
-21.0011

> <Gold.PLP.part.repulsive>
0.1715

> <Gold.PLP.ligand.clash>
0.0000

> <Gold.PLP.ligand.torsion>
0.4139

> <Gold.PLP.Chemscore.Hbond>
1.9440

> <Gold.PLP.Chemscore.CHOScore>
0.0000

> <Gold.PLP.Chemscore.Metal>
0.0000

> <Gold.Chemscore.Hbonds>
donor molecule, donor type, donor heavy atom, donor atom, acceptor molecule, acceptor atom, score
      P1  H  2305  2313       L1    12  1.00
      P1  H  3712  3721       L1    11  0.94

> <Gold.PLP.Chemscore.Internal.Correction>
0.0010

