#       Name:                EN300-701715_i002
#       Creating user name   fsindt
#       Creation time:       Mon Feb 27 18:08:00 2023


#       File generated by GOLD software.
#

@<TRIPOS>MOLECULE
EN300-701715_i002|acide_3|mol2|292|dock16
    27    27     1
SMALL
USER_CHARGES


@<TRIPOS>ATOM
      1 C1           1.5656 -20.4102  12.1067 C.3            1 <1>                0.0000
      2 O2           0.3911 -21.1894  12.3422 O.3            1 <1>                0.0000
      3 C3          -0.0557 -21.1717  13.6994 C.3            1 <1>                0.0000
      4 C4           0.9539 -21.9124  14.5784 C.3            1 <1>                0.0000
      5 C5           1.0793 -23.3608  14.1016 C.3            1 <1>                0.0000
      6 C6          -0.2835 -24.0495  14.1988 C.3            1 <1>                0.0000
      7 C7          -1.2932 -23.3088  13.3198 C.3            1 <1>                0.0000
      8 C8          -2.6559 -23.9974  13.4171 C.3            1 <1>                0.0000
      9 C9          -1.4185 -21.8603  13.7966 C.3            1 <1>                0.0000
     10 C10         -0.1792 -19.7450  14.1690 C.2            1 <1>                0.0000
     11 O11          0.5046 -19.3472  15.0967 O.co2          1 <1>                0.0000
     12 O12         -0.9629 -18.9885  13.6211 O.co2          1 <1>               -1.0000
     13 H13          2.3829 -20.7907  12.7193 H              1 <1>                0.0000
     14 H14          1.8400 -20.4755  11.0538 H              1 <1>                0.0000
     15 H15          1.3699 -19.3701  12.3674 H              1 <1>                0.0000
     16 H16          1.9248 -21.4218  14.5091 H              1 <1>                0.0000
     17 H17          0.6131 -21.8989  15.6136 H              1 <1>                0.0000
     18 H18          1.4201 -23.3743  13.0663 H              1 <1>                0.0000
     19 H19          1.7986 -23.8885  14.7278 H              1 <1>                0.0000
     20 H20         -0.1942 -25.0813  13.8592 H              1 <1>                0.0000
     21 H21         -0.6243 -24.0360  15.2341 H              1 <1>                0.0000
     22 H22         -0.9523 -23.3222  12.2846 H              1 <1>                0.0000
     23 H23         -2.9968 -23.9840  14.4523 H              1 <1>                0.0000
     24 H24         -3.3753 -23.4697  12.7908 H              1 <1>                0.0000
     25 H25         -2.5666 -25.0294  13.0774 H              1 <1>                0.0000
     26 H26         -1.7594 -21.8469  14.8319 H              1 <1>                0.0000
     27 H27         -2.1379 -21.3326  13.1704 H              1 <1>                0.0000
@<TRIPOS>BOND
    1    1    2 1     
    2    1   13 1     
    3    1   14 1     
    4    1   15 1     
    5    2    3 1     
    6    3    4 1     
    7    3    9 1     
    8    3   10 1     
    9    4    5 1     
   10    4   16 1     
   11    4   17 1     
   12    5    6 1     
   13    5   18 1     
   14    5   19 1     
   15    6    7 1     
   16    6   20 1     
   17    6   21 1     
   18    7    8 1     
   19    7    9 1     
   20    7   22 1     
   21    8   23 1     
   22    8   24 1     
   23    8   25 1     
   24    9   26 1     
   25    9   27 1     
   26   10   11 ar    
   27   10   12 ar    
@<TRIPOS>SUBSTRUCTURE
      1 ****           1
@<TRIPOS>COMMENT
> <Gold.Version>
2022.2.0

> <Gold.Id.Protein>
3pbl|protein|mol2

> <Gold.Protein.RotatedTorsions>
[ 1303 1298 1297 1294 ] final -162.17 input  179.99 | X-H torsion
[ 2461 2456 2455 2452 ] final -107.09 input   30.03 | X-H torsion
[ 2515 2510 2509 2506 ] final -128.18 input  -89.99 | X-H torsion
[ 3721 3712 3711 3710 ] final   15.44 input -179.91 | X-H torsion
[ 3841 3832 3831 3830 ] final  -56.99 input -179.91 | X-H torsion
[ 3767 3762 3761 3758 ] final    2.70 input  -89.99 | X-H torsion
[ 2472 2467 2466 2463 ] final  179.97 input  -89.97 | X-H torsion

> <Gold.Protein.ActiveResidues>
 VAL82   VAL86   LEU89   PHE106  VAL107  ASP110  VAL111  MET112  CYS114  THR115 
 CYS181  SER182  ILE183  PHE188  VAL189  ILE190  SER192  SER193  SER196  TRP342 
 PHE345  PHE346  HIS349  VAL350  TYR365  THR369  GLY372  TYR373 

> <Gold.Protein.RotatedAtoms>
    4.7296   -8.6701    4.5144 H   0  0  0  0  0  0  0  0  0  0  0  0  # atno 1303 bound_to 1298
    0.4532   -9.0749    7.9111 H   0  0  0  0  0  0  0  0  0  0  0  0  # atno 2461 bound_to 2456
   -5.3469   -5.3872    9.0189 H   0  0  0  0  0  0  0  0  0  0  0  0  # atno 2472 bound_to 2467
    2.6707   -9.2391    5.1232 H   0  0  0  0  0  0  0  0  0  0  0  0  # atno 2515 bound_to 2510
   -2.4699  -18.0210   14.0194 H   0  0  0  0  0  0  0  0  0  0  0  0  # atno 3721 bound_to 3712
   -5.2982  -22.7498   10.1313 H   0  0  0  0  0  0  0  0  0  0  0  0  # atno 3767 bound_to 3762
    1.5995  -19.8395    9.0640 H   0  0  0  0  0  0  0  0  0  0  0  0  # atno 3841 bound_to 3832
    4.2535  -10.2093    4.7801 LP  0  0  0  0  0  0  0  0  0  0  0  0  # atno 4297 bound_to 1298
    3.3789   -9.2422    3.7970 LP  0  0  0  0  0  0  0  0  0  0  0  0  # atno 4298 bound_to 1298
    2.0388   -8.7975    8.1874 LP  0  0  0  0  0  0  0  0  0  0  0  0  # atno 4299 bound_to 2456
    1.2455   -7.9358    7.0496 LP  0  0  0  0  0  0  0  0  0  0  0  0  # atno 4300 bound_to 2456
    2.0309   -8.0383    6.0257 LP  0  0  0  0  0  0  0  0  0  0  0  0  # atno 4301 bound_to 2510
    2.5950   -7.7212    4.5264 LP  0  0  0  0  0  0  0  0  0  0  0  0  # atno 4302 bound_to 2510
   -3.3428  -16.8271   14.6442 LP  0  0  0  0  0  0  0  0  0  0  0  0  # atno 4306 bound_to 3712
   -3.3333  -17.0937   13.0332 LP  0  0  0  0  0  0  0  0  0  0  0  0  # atno 4307 bound_to 3712
    2.9193  -20.1354    8.2000 LP  0  0  0  0  0  0  0  0  0  0  0  0  # atno 4314 bound_to 3832
    2.4624  -21.1522    9.3933 LP  0  0  0  0  0  0  0  0  0  0  0  0  # atno 4315 bound_to 3832
   -4.8861  -21.9569   11.4982 LP  0  0  0  0  0  0  0  0  0  0  0  0  # atno 4318 bound_to 3762
   -3.9434  -23.1684   10.9413 LP  0  0  0  0  0  0  0  0  0  0  0  0  # atno 4319 bound_to 3762
   -4.6428   -4.8191    7.6596 LP  0  0  0  0  0  0  0  0  0  0  0  0  # atno 4320 bound_to 2467
   -3.7273   -5.1873    8.9607 LP  0  0  0  0  0  0  0  0  0  0  0  0  # atno 4321 bound_to 2467

> <Gold.Score>
     Score     S(PLP)   S(hbond)     S(cho)   S(metal)  DE(clash)   DE(tors)     intcor
     30.75     -27.88       1.00       0.00       0.00       0.00       0.06       0.00

> <Gold.PLP.Fitness>
30.7538

> <Gold.PLP.PLP>
-27.8759

> <Gold.PLP.part.hbond>
-1.0000

> <Gold.PLP.part.metal>
0.0000

> <Gold.PLP.part.buried>
-3.8507

> <Gold.PLP.part.nonpolar>
-23.4838

> <Gold.PLP.part.repulsive>
0.0626

> <Gold.PLP.ligand.clash>
0.0000

> <Gold.PLP.ligand.torsion>
0.0610

> <Gold.PLP.Chemscore.Hbond>
1.0000

> <Gold.PLP.Chemscore.CHOScore>
0.0000

> <Gold.PLP.Chemscore.Metal>
0.0000

> <Gold.Chemscore.Hbonds>
donor molecule, donor type, donor heavy atom, donor atom, acceptor molecule, acceptor atom, score
      P1  H  3712  3721       L1    12  1.00

> <Gold.PLP.Chemscore.Internal.Correction>
0.0000

