#       Name:                EN300-701715_i002
#       Creating user name   fsindt
#       Creation time:       Mon Feb 27 18:07:55 2023


#       File generated by GOLD software.
#

@<TRIPOS>MOLECULE
EN300-701715_i002|acide_3|mol2|292|dock6
    27    27     1
SMALL
USER_CHARGES


@<TRIPOS>ATOM
      1 C1           2.7085 -17.1235  13.6505 C.3            1 <1>                0.0000
      2 O2           1.7013 -17.1377  12.6369 O.3            1 <1>                0.0000
      3 C3           0.4269 -17.5986  13.0902 C.3            1 <1>                0.0000
      4 C4           0.5698 -19.0091  13.6655 C.3            1 <1>                0.0000
      5 C5           1.0966 -19.9511  12.5811 C.3            1 <1>                0.0000
      6 C6           0.1162 -19.9761  11.4068 C.3            1 <1>                0.0000
      7 C7          -0.0267 -18.5656  10.8315 C.3            1 <1>                0.0000
      8 C8          -1.0072 -18.5906   9.6573 C.3            1 <1>                0.0000
      9 C9          -0.5536 -17.6235  11.9159 C.3            1 <1>                0.0000
     10 C10         -0.0920 -16.6706  14.1583 C.2            1 <1>                0.0000
     11 O11          0.4784 -15.6160  14.3794 O.co2          1 <1>                0.0000
     12 O12         -1.0823 -16.9745  14.8013 O.co2          1 <1>               -1.0000
     13 H13          2.8502 -18.1331  14.0362 H              1 <1>                0.0000
     14 H14          3.6454 -16.7616  13.2269 H              1 <1>                0.0000
     15 H15          2.3982 -16.4649  14.4619 H              1 <1>                0.0000
     16 H16          1.2683 -18.9913  14.5020 H              1 <1>                0.0000
     17 H17         -0.4023 -19.3606  14.0112 H              1 <1>                0.0000
     18 H18          2.0687 -19.5996  12.2353 H              1 <1>                0.0000
     19 H19          1.1984 -20.9560  12.9909 H              1 <1>                0.0000
     20 H20          0.4914 -20.6472  10.6343 H              1 <1>                0.0000
     21 H21         -0.8559 -20.3277  11.7526 H              1 <1>                0.0000
     22 H22          0.9454 -18.2141  10.4858 H              1 <1>                0.0000
     23 H23         -1.9793 -18.9421  10.0030 H              1 <1>                0.0000
     24 H24         -1.1090 -17.5856   9.2475 H              1 <1>                0.0000
     25 H25         -0.6319 -19.2618   8.8848 H              1 <1>                0.0000
     26 H26         -1.5257 -17.9751  12.2617 H              1 <1>                0.0000
     27 H27         -0.6553 -16.6186  11.5062 H              1 <1>                0.0000
@<TRIPOS>BOND
    1    1    2 1     
    2    1   13 1     
    3    1   14 1     
    4    1   15 1     
    5    2    3 1     
    6    3    4 1     
    7    3    9 1     
    8    3   10 1     
    9    4    5 1     
   10    4   16 1     
   11    4   17 1     
   12    5    6 1     
   13    5   18 1     
   14    5   19 1     
   15    6    7 1     
   16    6   20 1     
   17    6   21 1     
   18    7    8 1     
   19    7    9 1     
   20    7   22 1     
   21    8   23 1     
   22    8   24 1     
   23    8   25 1     
   24    9   26 1     
   25    9   27 1     
   26   10   11 ar    
   27   10   12 ar    
@<TRIPOS>SUBSTRUCTURE
      1 ****           1
@<TRIPOS>COMMENT
> <Gold.Version>
2022.2.0

> <Gold.Id.Protein>
3pbl|protein|mol2

> <Gold.Protein.RotatedTorsions>
[ 1303 1298 1297 1294 ] final   54.94 input  179.99 | X-H torsion
[ 2461 2456 2455 2452 ] final  -80.68 input   30.03 | X-H torsion
[ 2515 2510 2509 2506 ] final -139.21 input  -89.99 | X-H torsion
[ 3721 3712 3711 3710 ] final  -34.58 input -179.91 | X-H torsion
[ 3841 3832 3831 3830 ] final -101.57 input -179.91 | X-H torsion
[ 3767 3762 3761 3758 ] final   65.53 input  -89.99 | X-H torsion
[ 2472 2467 2466 2463 ] final   50.28 input  -89.97 | X-H torsion

> <Gold.Protein.ActiveResidues>
 VAL82   VAL86   LEU89   PHE106  VAL107  ASP110  VAL111  MET112  CYS114  THR115 
 CYS181  SER182  ILE183  PHE188  VAL189  ILE190  SER192  SER193  SER196  TRP342 
 PHE345  PHE346  HIS349  VAL350  TYR365  THR369  GLY372  TYR373 

> <Gold.Protein.RotatedAtoms>
    3.9394  -10.2715    4.5867 H   0  0  0  0  0  0  0  0  0  0  0  0  # atno 1303 bound_to 1298
    0.3322   -8.8042    7.5984 H   0  0  0  0  0  0  0  0  0  0  0  0  # atno 2461 bound_to 2456
   -4.4841   -4.8048    7.6663 H   0  0  0  0  0  0  0  0  0  0  0  0  # atno 2472 bound_to 2467
    2.6041   -9.2574    5.2905 H   0  0  0  0  0  0  0  0  0  0  0  0  # atno 2515 bound_to 2510
   -2.6291  -17.6484   14.6296 H   0  0  0  0  0  0  0  0  0  0  0  0  # atno 3721 bound_to 3712
   -4.4937  -23.3042   10.2394 H   0  0  0  0  0  0  0  0  0  0  0  0  # atno 3767 bound_to 3762
    1.9847  -19.5846    8.5972 H   0  0  0  0  0  0  0  0  0  0  0  0  # atno 3841 bound_to 3832
    3.5444   -8.9068    3.7819 LP  0  0  0  0  0  0  0  0  0  0  0  0  # atno 4297 bound_to 1298
    4.8785   -8.9426    4.7229 LP  0  0  0  0  0  0  0  0  0  0  0  0  # atno 4298 bound_to 1298
    1.7526   -9.0698    8.3595 LP  0  0  0  0  0  0  0  0  0  0  0  0  # atno 4299 bound_to 2456
    1.6527   -7.9342    7.1902 LP  0  0  0  0  0  0  0  0  0  0  0  0  # atno 4300 bound_to 2456
    2.0299   -7.8762    5.9450 LP  0  0  0  0  0  0  0  0  0  0  0  0  # atno 4301 bound_to 2510
    2.6626   -7.8652    4.4396 LP  0  0  0  0  0  0  0  0  0  0  0  0  # atno 4302 bound_to 2510
   -3.5631  -16.5561   13.9138 LP  0  0  0  0  0  0  0  0  0  0  0  0  # atno 4306 bound_to 3712
   -2.9293  -17.7948   13.0591 LP  0  0  0  0  0  0  0  0  0  0  0  0  # atno 4307 bound_to 3712
    3.1262  -20.7129    8.5890 LP  0  0  0  0  0  0  0  0  0  0  0  0  # atno 4314 bound_to 3832
    1.8105  -20.8692    9.5436 LP  0  0  0  0  0  0  0  0  0  0  0  0  # atno 4315 bound_to 3832
   -5.4860  -22.1053   10.7341 LP  0  0  0  0  0  0  0  0  0  0  0  0  # atno 4318 bound_to 3762
   -4.1476  -22.4658   11.5974 LP  0  0  0  0  0  0  0  0  0  0  0  0  # atno 4319 bound_to 3762
   -3.8078   -5.2416    9.0869 LP  0  0  0  0  0  0  0  0  0  0  0  0  # atno 4320 bound_to 2467
   -5.4250   -5.3470    8.8858 LP  0  0  0  0  0  0  0  0  0  0  0  0  # atno 4321 bound_to 2467

> <Gold.Score>
     Score     S(PLP)   S(hbond)     S(cho)   S(metal)  DE(clash)   DE(tors)     intcor
     32.32     -27.91       1.64       0.00       0.00       0.00       0.25       0.00

> <Gold.PLP.Fitness>
32.3172

> <Gold.PLP.PLP>
-27.9059

> <Gold.PLP.part.hbond>
-1.5973

> <Gold.PLP.part.metal>
0.0000

> <Gold.PLP.part.buried>
-3.2656

> <Gold.PLP.part.nonpolar>
-23.8005

> <Gold.PLP.part.repulsive>
0.2068

> <Gold.PLP.ligand.clash>
0.0000

> <Gold.PLP.ligand.torsion>
0.2549

> <Gold.PLP.Chemscore.Hbond>
1.6400

> <Gold.PLP.Chemscore.CHOScore>
0.0000

> <Gold.PLP.Chemscore.Metal>
0.0000

> <Gold.Chemscore.Hbonds>
donor molecule, donor type, donor heavy atom, donor atom, acceptor molecule, acceptor atom, score
      P1  H  2305  2313       L1    11  1.00
      P1  H  3712  3721       L1    12  0.64

> <Gold.PLP.Chemscore.Internal.Correction>
0.0010

