#       Name:                EN300-658808_i001
#       Creating user name   aseyller
#       Creation time:       Fri Apr 21 16:48:12 2023


#       File generated by GOLD software.
#

@<TRIPOS>MOLECULE
EN300-658808_i001|aminophenols|mol2|128|dock20
    21    21     1
SMALL
USER_CHARGES


@<TRIPOS>ATOM
      1 C1          28.9828  39.2847  37.0016 C.3            1 <1>                0.0000
      2 C2          27.8020  38.3435  37.2482 C.3            1 <1>                0.0000
      3 C3          28.1250  37.4223  38.3963 C.ar           1 <1>                0.0000
      4 C4          29.4200  36.9709  38.5774 C.ar           1 <1>                0.0000
      5 C5          29.7206  36.1264  39.6293 C.ar           1 <1>                0.0000
      6 C6          28.7285  35.7284  40.5062 C.ar           1 <1>                0.0000
      7 C7          27.4279  36.1769  40.3309 C.ar           1 <1>                0.0000
      8 N8          26.4218  35.7755  41.2171 N.pl3          1 <1>                0.0000
      9 C9          27.1266  37.0326  39.2730 C.ar           1 <1>                0.0000
     10 O10         25.8530  37.4758  39.0962 O.3            1 <1>                0.0000
     11 H11         28.7491  39.9510  36.1712 H              1 <1>                0.0000
     12 H12         29.1708  39.8744  37.8988 H              1 <1>                0.0000
     13 H13         29.8697  38.6991  36.7592 H              1 <1>                0.0000
     14 H14         26.9151  38.9290  37.4906 H              1 <1>                0.0000
     15 H15         27.6139  37.7538  36.3510 H              1 <1>                0.0000
     16 H16         30.1981  37.2790  37.8947 H              1 <1>                0.0000
     17 H17         30.7331  35.7762  39.7665 H              1 <1>                0.0000
     18 H18         28.9662  35.0682  41.3271 H              1 <1>                0.0000
     19 H19         26.6337  35.1827  41.9551 H              1 <1>                0.0000
     20 H20         25.5125  36.0899  41.0932 H              1 <1>                0.0000
     21 H21         25.1757  36.8119  39.2847 H              1 <1>                0.0000
@<TRIPOS>BOND
    1    1    2 1     
    2    1   11 1     
    3    1   12 1     
    4    1   13 1     
    5    2    3 1     
    6    2   14 1     
    7    2   15 1     
    8    3    4 ar    
    9    3    9 ar    
   10    4    5 ar    
   11    4   16 1     
   12    5    6 ar    
   13    5   17 1     
   14    6    7 ar    
   15    6   18 1     
   16    7    8 1     
   17    7    9 ar    
   18    8   19 1     
   19    8   20 1     
   20    9   10 1     
   21   10   21 1     
@<TRIPOS>SUBSTRUCTURE
      1 ****           1
@<TRIPOS>SET
DONOR_HYDROGENS      STATIC     ATOMS    <user>   **** ""
3 19 20 21
ATOM$RED        STATIC     ATOMS    COLORGROUP SYSTEM
3 19 20 21
@<TRIPOS>COMMENT
> <Gold.Version>
2022.2.0

> <Gold.Id.Protein>
1qkm|1qkm_protein|mol2

> <Gold.Protein.RotatedTorsions>
[  496  491  490  487 ] final  166.47 input  -89.99 | X-H torsion

> <Gold.Protein.ActiveResidues>
 MET295  LEU298  THR299  LEU301  ALA302  GLU305  TRP335  MET336  LEU339  MET340 
 GLY342  LEU343  ARG346  PHE356  ILE373  ILE376  PHE377  LEU380  LYS471  GLY472 
 MET473  HIS475  LEU476  LEU477  ASN478  MET479  VAL484  VAL487 

> <Gold.Protein.RotatedAtoms>
   37.3105   33.2813   40.9969 H   0  0  0  0  0  0  0  0  0  0  0  0  # atno 496  bound_to 491 

> <Gold.Score>
     Score     S(PLP)   S(hbond)     S(cho)   S(metal)  DE(clash)   DE(tors)     intcor
     34.87     -32.83       0.91       0.00       0.00       0.00       0.35       0.00

> <Gold.PLP.Fitness>
34.8684

> <Gold.PLP.PLP>
-32.8273

> <Gold.PLP.part.hbond>
-1.0000

> <Gold.PLP.part.metal>
0.0000

> <Gold.PLP.part.buried>
-3.4429

> <Gold.PLP.part.nonpolar>
-28.7011

> <Gold.PLP.part.repulsive>
0.0310

> <Gold.PLP.ligand.clash>
0.0000

> <Gold.PLP.ligand.torsion>
0.3475

> <Gold.PLP.Chemscore.Hbond>
0.9120

> <Gold.PLP.Chemscore.CHOScore>
0.0000

> <Gold.PLP.Chemscore.Metal>
0.0000

> <Gold.Chemscore.Hbonds>
donor molecule, donor type, donor heavy atom, donor atom, acceptor molecule, acceptor atom, score
      L1  H     8    19       P1   582  0.91

> <Gold.PLP.Chemscore.Internal.Correction>
0.0000

