#       Name:                EN300-658808_i001
#       Creating user name   aseyller
#       Creation time:       Fri Apr 21 16:48:08 2023


#       File generated by GOLD software.
#

@<TRIPOS>MOLECULE
EN300-658808_i001|aminophenols|mol2|128|dock12
    21    21     1
SMALL
USER_CHARGES


@<TRIPOS>ATOM
      1 C1          31.8038  33.8958  38.2076 C.3            1 <1>                0.0000
      2 C2          31.8694  35.4087  38.4265 C.3            1 <1>                0.0000
      3 C3          32.1657  36.0933  37.1170 C.ar           1 <1>                0.0000
      4 C4          33.3155  35.7770  36.4161 C.ar           1 <1>                0.0000
      5 C5          33.5908  36.4021  35.2146 C.ar           1 <1>                0.0000
      6 C6          32.7183  37.3469  34.7070 C.ar           1 <1>                0.0000
      7 C7          31.5635  37.6691  35.4042 C.ar           1 <1>                0.0000
      8 N8          30.6786  38.6252  34.8926 N.pl3          1 <1>                0.0000
      9 C9          31.2840  37.0345  36.6131 C.ar           1 <1>                0.0000
     10 O10         30.1531  37.3464  37.3013 O.3            1 <1>                0.0000
     11 H11         31.5895  33.4006  39.1547 H              1 <1>                0.0000
     12 H12         31.0153  33.6662  37.4910 H              1 <1>                0.0000
     13 H13         32.7600  33.5428  37.8213 H              1 <1>                0.0000
     14 H14         30.9133  35.7617  38.8128 H              1 <1>                0.0000
     15 H15         32.6579  35.6383  39.1431 H              1 <1>                0.0000
     16 H16         34.0001  35.0398  36.8089 H              1 <1>                0.0000
     17 H17         34.4900  36.1522  34.6709 H              1 <1>                0.0000
     18 H18         32.9360  37.8341  33.7681 H              1 <1>                0.0000
     19 H19         30.8726  39.0635  34.0493 H              1 <1>                0.0000
     20 H20         29.8714  38.8497  35.3815 H              1 <1>                0.0000
     21 H21         30.2537  38.0951  37.9049 H              1 <1>                0.0000
@<TRIPOS>BOND
    1    1    2 1     
    2    1   11 1     
    3    1   12 1     
    4    1   13 1     
    5    2    3 1     
    6    2   14 1     
    7    2   15 1     
    8    3    4 ar    
    9    3    9 ar    
   10    4    5 ar    
   11    4   16 1     
   12    5    6 ar    
   13    5   17 1     
   14    6    7 ar    
   15    6   18 1     
   16    7    8 1     
   17    7    9 ar    
   18    8   19 1     
   19    8   20 1     
   20    9   10 1     
   21   10   21 1     
@<TRIPOS>SUBSTRUCTURE
      1 ****           1
@<TRIPOS>SET
DONOR_HYDROGENS      STATIC     ATOMS    <user>   **** ""
3 19 20 21
ATOM$RED        STATIC     ATOMS    COLORGROUP SYSTEM
3 19 20 21
@<TRIPOS>COMMENT
> <Gold.Version>
2022.2.0

> <Gold.Id.Protein>
1qkm|1qkm_protein|mol2

> <Gold.Protein.RotatedTorsions>
[  496  491  490  487 ] final  -74.70 input  -89.99 | X-H torsion

> <Gold.Protein.ActiveResidues>
 MET295  LEU298  THR299  LEU301  ALA302  GLU305  TRP335  MET336  LEU339  MET340 
 GLY342  LEU343  ARG346  PHE356  ILE373  ILE376  PHE377  LEU380  LYS471  GLY472 
 MET473  HIS475  LEU476  LEU477  ASN478  MET479  VAL484  VAL487 

> <Gold.Protein.RotatedAtoms>
   36.6188   34.7236   41.2766 H   0  0  0  0  0  0  0  0  0  0  0  0  # atno 496  bound_to 491 

> <Gold.Score>
     Score     S(PLP)   S(hbond)     S(cho)   S(metal)  DE(clash)   DE(tors)     intcor
     34.93     -34.94       0.00       0.00       0.00       0.00       0.00       0.00

> <Gold.PLP.Fitness>
34.9302

> <Gold.PLP.PLP>
-34.9359

> <Gold.PLP.part.hbond>
0.0000

> <Gold.PLP.part.metal>
0.0000

> <Gold.PLP.part.buried>
-3.1275

> <Gold.PLP.part.nonpolar>
-31.6653

> <Gold.PLP.part.repulsive>
0.0000

> <Gold.PLP.ligand.clash>
0.0000

> <Gold.PLP.ligand.torsion>
0.0029

> <Gold.PLP.Chemscore.Hbond>
0.0000

> <Gold.PLP.Chemscore.CHOScore>
0.0000

> <Gold.PLP.Chemscore.Metal>
0.0000

> <Gold.PLP.Chemscore.Internal.Correction>
0.0000

