#       Name:                EN300-658808_i001
#       Creating user name   aseyller
#       Creation time:       Fri Apr 21 16:48:11 2023


#       File generated by GOLD software.
#

@<TRIPOS>MOLECULE
EN300-658808_i001|aminophenols|mol2|128|dock18
    21    21     1
SMALL
USER_CHARGES


@<TRIPOS>ATOM
      1 C1          31.1803  36.0988  38.5771 C.3            1 <1>                0.0000
      2 C2          29.9948  36.9995  38.2245 C.3            1 <1>                0.0000
      3 C3          28.8539  36.7209  39.1689 C.ar           1 <1>                0.0000
      4 C4          29.0973  36.1104  40.3861 C.ar           1 <1>                0.0000
      5 C5          28.0539  35.8535  41.2554 C.ar           1 <1>                0.0000
      6 C6          26.7615  36.2055  40.9128 C.ar           1 <1>                0.0000
      7 C7          26.5099  36.8178  39.6941 C.ar           1 <1>                0.0000
      8 N8          25.2025  37.1750  39.3449 N.pl3          1 <1>                0.0000
      9 C9          27.5632  37.0812  38.8204 C.ar           1 <1>                0.0000
     10 O10         27.3226  37.6816  37.6239 O.3            1 <1>                0.0000
     11 H11         32.0055  36.3004  37.8940 H              1 <1>                0.0000
     12 H12         31.4980  36.3002  39.6001 H              1 <1>                0.0000
     13 H13         30.8820  35.0542  38.4882 H              1 <1>                0.0000
     14 H14         30.2931  38.0441  38.3133 H              1 <1>                0.0000
     15 H15         29.6772  36.7982  37.2015 H              1 <1>                0.0000
     16 H16         30.1052  35.8335  40.6578 H              1 <1>                0.0000
     17 H17         28.2486  35.3763  42.2045 H              1 <1>                0.0000
     18 H18         25.9480  36.0032  41.5937 H              1 <1>                0.0000
     19 H19         24.4709  36.9943  39.9555 H              1 <1>                0.0000
     20 H20         25.0281  37.6031  38.4921 H              1 <1>                0.0000
     21 H21         27.8075  37.2918  36.8837 H              1 <1>                0.0000
@<TRIPOS>BOND
    1    1    2 1     
    2    1   11 1     
    3    1   12 1     
    4    1   13 1     
    5    2    3 1     
    6    2   14 1     
    7    2   15 1     
    8    3    4 ar    
    9    3    9 ar    
   10    4    5 ar    
   11    4   16 1     
   12    5    6 ar    
   13    5   17 1     
   14    6    7 ar    
   15    6   18 1     
   16    7    8 1     
   17    7    9 ar    
   18    8   19 1     
   19    8   20 1     
   20    9   10 1     
   21   10   21 1     
@<TRIPOS>SUBSTRUCTURE
      1 ****           1
@<TRIPOS>SET
DONOR_HYDROGENS      STATIC     ATOMS    <user>   **** ""
3 19 20 21
ATOM$RED        STATIC     ATOMS    COLORGROUP SYSTEM
3 19 20 21
@<TRIPOS>COMMENT
> <Gold.Version>
2022.2.0

> <Gold.Id.Protein>
1qkm|1qkm_protein|mol2

> <Gold.Protein.RotatedTorsions>
[  496  491  490  487 ] final  174.83 input  -89.99 | X-H torsion

> <Gold.Protein.ActiveResidues>
 MET295  LEU298  THR299  LEU301  ALA302  GLU305  TRP335  MET336  LEU339  MET340 
 GLY342  LEU343  ARG346  PHE356  ILE373  ILE376  PHE377  LEU380  LYS471  GLY472 
 MET473  HIS475  LEU476  LEU477  ASN478  MET479  VAL484  VAL487 

> <Gold.Protein.RotatedAtoms>
   37.3185   33.3897   40.9127 H   0  0  0  0  0  0  0  0  0  0  0  0  # atno 496  bound_to 491 

> <Gold.Score>
     Score     S(PLP)   S(hbond)     S(cho)   S(metal)  DE(clash)   DE(tors)     intcor
     34.85     -34.40       0.34       0.00       0.00       0.00       0.29       0.00

> <Gold.PLP.Fitness>
34.8492

> <Gold.PLP.PLP>
-34.4049

> <Gold.PLP.part.hbond>
-1.0000

> <Gold.PLP.part.metal>
0.0000

> <Gold.PLP.part.buried>
-3.1285

> <Gold.PLP.part.nonpolar>
-31.6248

> <Gold.PLP.part.repulsive>
0.1176

> <Gold.PLP.ligand.clash>
0.0000

> <Gold.PLP.ligand.torsion>
0.2857

> <Gold.PLP.Chemscore.Hbond>
0.3385

> <Gold.PLP.Chemscore.CHOScore>
0.0000

> <Gold.PLP.Chemscore.Metal>
0.0000

> <Gold.Chemscore.Hbonds>
donor molecule, donor type, donor heavy atom, donor atom, acceptor molecule, acceptor atom, score
      L1  H     8    19       P1  1131  0.34

> <Gold.PLP.Chemscore.Internal.Correction>
0.0000

