#       Name:                EN300-658808_i001
#       Creating user name   aseyller
#       Creation time:       Fri Apr 21 16:48:10 2023


#       File generated by GOLD software.
#

@<TRIPOS>MOLECULE
EN300-658808_i001|aminophenols|mol2|128|dock15
    21    21     1
SMALL
USER_CHARGES


@<TRIPOS>ATOM
      1 C1          28.8023  35.9424  40.7572 C.3            1 <1>                0.0000
      2 C2          29.2186  36.6969  39.4929 C.3            1 <1>                0.0000
      3 C3          30.3281  35.9463  38.8023 C.ar           1 <1>                0.0000
      4 C4          30.5543  34.6153  39.1038 C.ar           1 <1>                0.0000
      5 C5          31.5705  33.9230  38.4725 C.ar           1 <1>                0.0000
      6 C6          32.3659  34.5573  37.5363 C.ar           1 <1>                0.0000
      7 C7          32.1449  35.8915  37.2290 C.ar           1 <1>                0.0000
      8 N8          32.9488  36.5359  36.2817 N.pl3          1 <1>                0.0000
      9 C9          31.1168  36.5874  37.8621 C.ar           1 <1>                0.0000
     10 O10         30.8953  37.8960  37.5648 O.3            1 <1>                0.0000
     11 H11         27.9998  36.4854  41.2566 H              1 <1>                0.0000
     12 H12         28.4534  34.9458  40.4872 H              1 <1>                0.0000
     13 H13         29.6570  35.8588  41.4284 H              1 <1>                0.0000
     14 H14         28.3640  36.7805  38.8216 H              1 <1>                0.0000
     15 H15         29.5674  37.6936  39.7628 H              1 <1>                0.0000
     16 H16         29.9357  34.1159  39.8347 H              1 <1>                0.0000
     17 H17         31.7437  32.8841  38.7113 H              1 <1>                0.0000
     18 H18         33.1594  34.0141  37.0447 H              1 <1>                0.0000
     19 H19         33.6617  36.0493  35.8391 H              1 <1>                0.0000
     20 H20         32.7932  37.4692  36.0678 H              1 <1>                0.0000
     21 H21         30.2897  38.3406  38.1735 H              1 <1>                0.0000
@<TRIPOS>BOND
    1    1    2 1     
    2    1   11 1     
    3    1   12 1     
    4    1   13 1     
    5    2    3 1     
    6    2   14 1     
    7    2   15 1     
    8    3    4 ar    
    9    3    9 ar    
   10    4    5 ar    
   11    4   16 1     
   12    5    6 ar    
   13    5   17 1     
   14    6    7 ar    
   15    6   18 1     
   16    7    8 1     
   17    7    9 ar    
   18    8   19 1     
   19    8   20 1     
   20    9   10 1     
   21   10   21 1     
@<TRIPOS>SUBSTRUCTURE
      1 ****           1
@<TRIPOS>SET
DONOR_HYDROGENS      STATIC     ATOMS    <user>   **** ""
3 19 20 21
ATOM$RED        STATIC     ATOMS    COLORGROUP SYSTEM
3 19 20 21
@<TRIPOS>COMMENT
> <Gold.Version>
2022.2.0

> <Gold.Id.Protein>
1qkm|1qkm_protein|mol2

> <Gold.Protein.RotatedTorsions>
[  496  491  490  487 ] final  -59.78 input  -89.99 | X-H torsion

> <Gold.Protein.ActiveResidues>
 MET295  LEU298  THR299  LEU301  ALA302  GLU305  TRP335  MET336  LEU339  MET340 
 GLY342  LEU343  ARG346  PHE356  ILE373  ILE376  PHE377  LEU380  LYS471  GLY472 
 MET473  HIS475  LEU476  LEU477  ASN478  MET479  VAL484  VAL487 

> <Gold.Protein.RotatedAtoms>
   36.4953   34.7317   41.4878 H   0  0  0  0  0  0  0  0  0  0  0  0  # atno 496  bound_to 491 

> <Gold.Score>
     Score     S(PLP)   S(hbond)     S(cho)   S(metal)  DE(clash)   DE(tors)     intcor
     33.58     -34.07       0.00       0.00       0.00       0.00       0.24       0.00

> <Gold.PLP.Fitness>
33.5836

> <Gold.PLP.PLP>
-34.0730

> <Gold.PLP.part.hbond>
0.0000

> <Gold.PLP.part.metal>
0.0000

> <Gold.PLP.part.buried>
-1.6315

> <Gold.PLP.part.nonpolar>
-32.3752

> <Gold.PLP.part.repulsive>
0.0000

> <Gold.PLP.ligand.clash>
0.0000

> <Gold.PLP.ligand.torsion>
0.2447

> <Gold.PLP.Chemscore.Hbond>
0.0000

> <Gold.PLP.Chemscore.CHOScore>
0.0000

> <Gold.PLP.Chemscore.Metal>
0.0000

> <Gold.PLP.Chemscore.Internal.Correction>
0.0000

