#       Name:                EN300-658808_i001
#       Creating user name   aseyller
#       Creation time:       Fri Apr 21 16:48:10 2023


#       File generated by GOLD software.
#

@<TRIPOS>MOLECULE
EN300-658808_i001|aminophenols|mol2|128|dock16
    21    21     1
SMALL
USER_CHARGES


@<TRIPOS>ATOM
      1 C1          31.2049  32.7991  38.2018 C.3            1 <1>                0.0000
      2 C2          32.3881  33.7244  38.4930 C.3            1 <1>                0.0000
      3 C3          32.1068  35.0927  37.9276 C.ar           1 <1>                0.0000
      4 C4          32.8529  35.5682  36.8642 C.ar           1 <1>                0.0000
      5 C5          32.5979  36.8223  36.3423 C.ar           1 <1>                0.0000
      6 C6          31.5956  37.6081  36.8804 C.ar           1 <1>                0.0000
      7 C7          30.8435  37.1381  37.9467 C.ar           1 <1>                0.0000
      8 N8          29.8285  37.9316  38.4933 N.pl3          1 <1>                0.0000
      9 C9          31.0978  35.8713  38.4690 C.ar           1 <1>                0.0000
     10 O10         30.3635  35.4049  39.5145 O.3            1 <1>                0.0000
     11 H11         31.4085  31.8094  38.6108 H              1 <1>                0.0000
     12 H12         30.3045  33.2047  38.6630 H              1 <1>                0.0000
     13 H13         31.0591  32.7239  37.1242 H              1 <1>                0.0000
     14 H14         32.5340  33.7995  39.5705 H              1 <1>                0.0000
     15 H15         33.2887  33.3188  38.0319 H              1 <1>                0.0000
     16 H16         33.6370  34.9580  36.4409 H              1 <1>                0.0000
     17 H17         33.1832  37.1896  35.5122 H              1 <1>                0.0000
     18 H18         31.3987  38.5879  36.4709 H              1 <1>                0.0000
     19 H19         29.6502  38.8116  38.1264 H              1 <1>                0.0000
     20 H20         29.3034  37.6015  39.2392 H              1 <1>                0.0000
     21 H21         30.8046  35.4843  40.3714 H              1 <1>                0.0000
@<TRIPOS>BOND
    1    1    2 1     
    2    1   11 1     
    3    1   12 1     
    4    1   13 1     
    5    2    3 1     
    6    2   14 1     
    7    2   15 1     
    8    3    4 ar    
    9    3    9 ar    
   10    4    5 ar    
   11    4   16 1     
   12    5    6 ar    
   13    5   17 1     
   14    6    7 ar    
   15    6   18 1     
   16    7    8 1     
   17    7    9 ar    
   18    8   19 1     
   19    8   20 1     
   20    9   10 1     
   21   10   21 1     
@<TRIPOS>SUBSTRUCTURE
      1 ****           1
@<TRIPOS>SET
DONOR_HYDROGENS      STATIC     ATOMS    <user>   **** ""
3 19 20 21
ATOM$RED        STATIC     ATOMS    COLORGROUP SYSTEM
3 19 20 21
@<TRIPOS>COMMENT
> <Gold.Version>
2022.2.0

> <Gold.Id.Protein>
1qkm|1qkm_protein|mol2

> <Gold.Protein.RotatedTorsions>
[  496  491  490  487 ] final  -79.17 input  -89.99 | X-H torsion

> <Gold.Protein.ActiveResidues>
 MET295  LEU298  THR299  LEU301  ALA302  GLU305  TRP335  MET336  LEU339  MET340 
 GLY342  LEU343  ARG346  PHE356  ILE373  ILE376  PHE377  LEU380  LYS471  GLY472 
 MET473  HIS475  LEU476  LEU477  ASN478  MET479  VAL484  VAL487 

> <Gold.Protein.RotatedAtoms>
   36.6584   34.7094   41.2163 H   0  0  0  0  0  0  0  0  0  0  0  0  # atno 496  bound_to 491 

> <Gold.Score>
     Score     S(PLP)   S(hbond)     S(cho)   S(metal)  DE(clash)   DE(tors)     intcor
     34.34     -31.45       1.00       0.00       0.00       0.00       0.05       0.00

> <Gold.PLP.Fitness>
34.3377

> <Gold.PLP.PLP>
-31.4464

> <Gold.PLP.part.hbond>
-1.0000

> <Gold.PLP.part.metal>
0.0000

> <Gold.PLP.part.buried>
-2.7996

> <Gold.PLP.part.nonpolar>
-28.1577

> <Gold.PLP.part.repulsive>
0.0000

> <Gold.PLP.ligand.clash>
0.0000

> <Gold.PLP.ligand.torsion>
0.0544

> <Gold.PLP.Chemscore.Hbond>
1.0000

> <Gold.PLP.Chemscore.CHOScore>
0.0000

> <Gold.PLP.Chemscore.Metal>
0.0000

> <Gold.Chemscore.Hbonds>
donor molecule, donor type, donor heavy atom, donor atom, acceptor molecule, acceptor atom, score
      L1  H    10    21       P1   470  1.00

> <Gold.PLP.Chemscore.Internal.Correction>
0.0000

