#       Name:                EN300-658808_i001
#       Creating user name   aseyller
#       Creation time:       Fri Apr 21 16:48:03 2023


#       File generated by GOLD software.
#

@<TRIPOS>MOLECULE
EN300-658808_i001|aminophenols|mol2|128|dock1
    21    21     1
SMALL
USER_CHARGES


@<TRIPOS>ATOM
      1 C1          30.5336  36.1708  38.8309 C.3            1 <1>                0.0000
      2 C2          29.4672  35.2218  39.3818 C.3            1 <1>                0.0000
      3 C3          28.1667  35.9663  39.5419 C.ar           1 <1>                0.0000
      4 C4          27.6502  36.6913  38.4831 C.ar           1 <1>                0.0000
      5 C5          26.4575  37.3751  38.6256 C.ar           1 <1>                0.0000
      6 C6          25.7745  37.3379  39.8271 C.ar           1 <1>                0.0000
      7 C7          26.2863  36.6130  40.8930 C.ar           1 <1>                0.0000
      8 N8          25.5970  36.5738  42.1104 N.pl3          1 <1>                0.0000
      9 C9          27.4863  35.9196  40.7469 C.ar           1 <1>                0.0000
     10 O10         27.9931  35.2070  41.7887 O.3            1 <1>                0.0000
     11 H11         31.4742  35.6323  38.7151 H              1 <1>                0.0000
     12 H12         30.2130  36.5546  37.8625 H              1 <1>                0.0000
     13 H13         30.6732  37.0014  39.5229 H              1 <1>                0.0000
     14 H14         29.3276  34.3913  38.6899 H              1 <1>                0.0000
     15 H15         29.7878  34.8379  40.3502 H              1 <1>                0.0000
     16 H16         28.1804  36.7235  37.5428 H              1 <1>                0.0000
     17 H17         26.0582  37.9402  37.7963 H              1 <1>                0.0000
     18 H18         24.8430  37.8734  39.9358 H              1 <1>                0.0000
     19 H19         24.7600  37.0540  42.2095 H              1 <1>                0.0000
     20 H20         25.9562  36.0665  42.8551 H              1 <1>                0.0000
     21 H21         27.3297  34.7048  42.2814 H              1 <1>                0.0000
@<TRIPOS>BOND
    1    1    2 1     
    2    1   11 1     
    3    1   12 1     
    4    1   13 1     
    5    2    3 1     
    6    2   14 1     
    7    2   15 1     
    8    3    4 ar    
    9    3    9 ar    
   10    4    5 ar    
   11    4   16 1     
   12    5    6 ar    
   13    5   17 1     
   14    6    7 ar    
   15    6   18 1     
   16    7    8 1     
   17    7    9 ar    
   18    8   19 1     
   19    8   20 1     
   20    9   10 1     
   21   10   21 1     
@<TRIPOS>SUBSTRUCTURE
      1 ****           1
@<TRIPOS>SET
DONOR_HYDROGENS      STATIC     ATOMS    <user>   **** ""
3 19 20 21
ATOM$RED        STATIC     ATOMS    COLORGROUP SYSTEM
3 19 20 21
@<TRIPOS>COMMENT
> <Gold.Version>
2022.2.0

> <Gold.Id.Protein>
1qkm|1qkm_protein|mol2

> <Gold.Protein.RotatedTorsions>
[  496  491  490  487 ] final  118.62 input  -89.99 | X-H torsion

> <Gold.Protein.ActiveResidues>
 MET295  LEU298  THR299  LEU301  ALA302  GLU305  TRP335  MET336  LEU339  MET340 
 GLY342  LEU343  ARG346  PHE356  ILE373  ILE376  PHE377  LEU380  LYS471  GLY472 
 MET473  HIS475  LEU476  LEU477  ASN478  MET479  VAL484  VAL487 

> <Gold.Protein.RotatedAtoms>
   37.0698   32.9415   41.6387 H   0  0  0  0  0  0  0  0  0  0  0  0  # atno 496  bound_to 491 

> <Gold.Score>
     Score     S(PLP)   S(hbond)     S(cho)   S(metal)  DE(clash)   DE(tors)     intcor
     43.64     -37.78       2.00       0.00       0.00       0.00       0.07       0.00

> <Gold.PLP.Fitness>
43.6421

> <Gold.PLP.PLP>
-37.7792

> <Gold.PLP.part.hbond>
-2.0000

> <Gold.PLP.part.metal>
0.0000

> <Gold.PLP.part.buried>
-4.7448

> <Gold.PLP.part.nonpolar>
-32.9960

> <Gold.PLP.part.repulsive>
1.2553

> <Gold.PLP.ligand.clash>
0.0000

> <Gold.PLP.ligand.torsion>
0.0686

> <Gold.PLP.Chemscore.Hbond>
2.0000

> <Gold.PLP.Chemscore.CHOScore>
0.0000

> <Gold.PLP.Chemscore.Metal>
0.0000

> <Gold.Chemscore.Hbonds>
donor molecule, donor type, donor heavy atom, donor atom, acceptor molecule, acceptor atom, score
      L1  H     8    20       P1   582  1.00
      L1  H    10    21       P1   582  1.00

> <Gold.PLP.Chemscore.Internal.Correction>
0.0000

