#       Name:                EN300-658808_i001
#       Creating user name   aseyller
#       Creation time:       Fri Apr 21 16:48:07 2023


#       File generated by GOLD software.
#

@<TRIPOS>MOLECULE
EN300-658808_i001|aminophenols|mol2|128|dock9
    21    21     1
SMALL
USER_CHARGES


@<TRIPOS>ATOM
      1 C1          33.0295  36.5522  35.8274 C.3            1 <1>                0.0000
      2 C2          32.2360  35.4700  36.5624 C.3            1 <1>                0.0000
      3 C3          31.1340  36.1127  37.3647 C.ar           1 <1>                0.0000
      4 C4          30.3870  37.1391  36.8151 C.ar           1 <1>                0.0000
      5 C5          29.3751  37.7309  37.5473 C.ar           1 <1>                0.0000
      6 C6          29.1042  37.3000  38.8328 C.ar           1 <1>                0.0000
      7 C7          29.8490  36.2715  39.3903 C.ar           1 <1>                0.0000
      8 N8          29.5769  35.8335  40.6915 N.pl3          1 <1>                0.0000
      9 C9          30.8657  35.6717  38.6495 C.ar           1 <1>                0.0000
     10 O10         31.5994  34.6626  39.1910 O.3            1 <1>                0.0000
     11 H11         33.8266  36.0873  35.2471 H              1 <1>                0.0000
     12 H12         32.3649  37.0991  35.1588 H              1 <1>                0.0000
     13 H13         33.4626  37.2410  36.5528 H              1 <1>                0.0000
     14 H14         31.8031  34.7812  35.8371 H              1 <1>                0.0000
     15 H15         32.9007  34.9230  37.2310 H              1 <1>                0.0000
     16 H16         30.5953  37.4791  35.8115 H              1 <1>                0.0000
     17 H17         28.7947  38.5322  37.1143 H              1 <1>                0.0000
     18 H18         28.3132  37.7645  39.4028 H              1 <1>                0.0000
     19 H19         28.8666  36.2494  41.2046 H              1 <1>                0.0000
     20 H20         30.0988  35.1141  41.0802 H              1 <1>                0.0000
     21 H21         31.5271  34.5960  40.1530 H              1 <1>                0.0000
@<TRIPOS>BOND
    1    1    2 1     
    2    1   11 1     
    3    1   12 1     
    4    1   13 1     
    5    2    3 1     
    6    2   14 1     
    7    2   15 1     
    8    3    4 ar    
    9    3    9 ar    
   10    4    5 ar    
   11    4   16 1     
   12    5    6 ar    
   13    5   17 1     
   14    6    7 ar    
   15    6   18 1     
   16    7    8 1     
   17    7    9 ar    
   18    8   19 1     
   19    8   20 1     
   20    9   10 1     
   21   10   21 1     
@<TRIPOS>SUBSTRUCTURE
      1 ****           1
@<TRIPOS>SET
DONOR_HYDROGENS      STATIC     ATOMS    <user>   **** ""
3 19 20 21
ATOM$RED        STATIC     ATOMS    COLORGROUP SYSTEM
3 19 20 21
@<TRIPOS>COMMENT
> <Gold.Version>
2022.2.0

> <Gold.Id.Protein>
1qkm|1qkm_protein|mol2

> <Gold.Protein.RotatedTorsions>
[  496  491  490  487 ] final   -9.28 input  -89.99 | X-H torsion

> <Gold.Protein.ActiveResidues>
 MET295  LEU298  THR299  LEU301  ALA302  GLU305  TRP335  MET336  LEU339  MET340 
 GLY342  LEU343  ARG346  PHE356  ILE373  ILE376  PHE377  LEU380  LYS471  GLY472 
 MET473  HIS475  LEU476  LEU477  ASN478  MET479  VAL484  VAL487 

> <Gold.Protein.RotatedAtoms>
   36.2616   34.3402   42.1509 H   0  0  0  0  0  0  0  0  0  0  0  0  # atno 496  bound_to 491 

> <Gold.Score>
     Score     S(PLP)   S(hbond)     S(cho)   S(metal)  DE(clash)   DE(tors)     intcor
     35.15     -30.71       1.64       0.00       0.00       0.00       0.24       0.00

> <Gold.PLP.Fitness>
35.1522

> <Gold.PLP.PLP>
-30.7095

> <Gold.PLP.part.hbond>
-2.0000

> <Gold.PLP.part.metal>
0.0000

> <Gold.PLP.part.buried>
-2.5639

> <Gold.PLP.part.nonpolar>
-26.6139

> <Gold.PLP.part.repulsive>
0.0741

> <Gold.PLP.ligand.clash>
0.0000

> <Gold.PLP.ligand.torsion>
0.2386

> <Gold.PLP.Chemscore.Hbond>
1.6400

> <Gold.PLP.Chemscore.CHOScore>
0.0000

> <Gold.PLP.Chemscore.Metal>
0.0000

> <Gold.Chemscore.Hbonds>
donor molecule, donor type, donor heavy atom, donor atom, acceptor molecule, acceptor atom, score
      L1  H     8    20       P1   470  0.64
      L1  H    10    21       P1   470  1.00

> <Gold.PLP.Chemscore.Internal.Correction>
0.0000

