#       Name:                EN300-658808_i001
#       Creating user name   aseyller
#       Creation time:       Fri Apr 21 16:48:06 2023


#       File generated by GOLD software.
#

@<TRIPOS>MOLECULE
EN300-658808_i001|aminophenols|mol2|128|dock8
    21    21     1
SMALL
USER_CHARGES


@<TRIPOS>ATOM
      1 C1          26.8549  36.1958  38.8015 C.3            1 <1>                0.0000
      2 C2          28.0971  36.5496  39.6218 C.3            1 <1>                0.0000
      3 C3          29.2159  36.9465  38.6935 C.ar           1 <1>                0.0000
      4 C4          29.0440  38.0008  37.8146 C.ar           1 <1>                0.0000
      5 C5          30.0677  38.3683  36.9619 C.ar           1 <1>                0.0000
      6 C6          31.2689  37.6842  36.9830 C.ar           1 <1>                0.0000
      7 C7          31.4486  36.6261  37.8614 C.ar           1 <1>                0.0000
      8 N8          32.6636  35.9318  37.8847 N.pl3          1 <1>                0.0000
      9 C9          30.4177  36.2594  38.7246 C.ar           1 <1>                0.0000
     10 O10         30.5880  35.2227  39.5883 O.3            1 <1>                0.0000
     11 H11         26.0457  35.9088  39.4730 H              1 <1>                0.0000
     12 H12         26.5494  37.0611  38.2133 H              1 <1>                0.0000
     13 H13         27.0849  35.3654  38.1338 H              1 <1>                0.0000
     14 H14         27.8672  37.3799  40.2895 H              1 <1>                0.0000
     15 H15         28.4026  35.6843  40.2101 H              1 <1>                0.0000
     16 H16         28.1073  38.5378  37.7944 H              1 <1>                0.0000
     17 H17         29.9288  39.1919  36.2771 H              1 <1>                0.0000
     18 H18         32.0671  37.9733  36.3153 H              1 <1>                0.0000
     19 H19         33.3815  36.1905  37.2859 H              1 <1>                0.0000
     20 H20         32.7877  35.1919  38.4996 H              1 <1>                0.0000
     21 H21         30.9820  35.4761  40.4343 H              1 <1>                0.0000
@<TRIPOS>BOND
    1    1    2 1     
    2    1   11 1     
    3    1   12 1     
    4    1   13 1     
    5    2    3 1     
    6    2   14 1     
    7    2   15 1     
    8    3    4 ar    
    9    3    9 ar    
   10    4    5 ar    
   11    4   16 1     
   12    5    6 ar    
   13    5   17 1     
   14    6    7 ar    
   15    6   18 1     
   16    7    8 1     
   17    7    9 ar    
   18    8   19 1     
   19    8   20 1     
   20    9   10 1     
   21   10   21 1     
@<TRIPOS>SUBSTRUCTURE
      1 ****           1
@<TRIPOS>SET
DONOR_HYDROGENS      STATIC     ATOMS    <user>   **** ""
3 19 20 21
ATOM$RED        STATIC     ATOMS    COLORGROUP SYSTEM
3 19 20 21
@<TRIPOS>COMMENT
> <Gold.Version>
2022.2.0

> <Gold.Id.Protein>
1qkm|1qkm_protein|mol2

> <Gold.Protein.RotatedTorsions>
[  496  491  490  487 ] final  -84.85 input  -89.99 | X-H torsion

> <Gold.Protein.ActiveResidues>
 MET295  LEU298  THR299  LEU301  ALA302  GLU305  TRP335  MET336  LEU339  MET340 
 GLY342  LEU343  ARG346  PHE356  ILE373  ILE376  PHE377  LEU380  LYS471  GLY472 
 MET473  HIS475  LEU476  LEU477  ASN478  MET479  VAL484  VAL487 

> <Gold.Protein.RotatedAtoms>
   36.7100   34.6837   41.1425 H   0  0  0  0  0  0  0  0  0  0  0  0  # atno 496  bound_to 491 

> <Gold.Score>
     Score     S(PLP)   S(hbond)     S(cho)   S(metal)  DE(clash)   DE(tors)     intcor
     33.71     -30.72       1.00       0.00       0.00       0.00       0.00       0.00

> <Gold.PLP.Fitness>
33.7088

> <Gold.PLP.PLP>
-30.7173

> <Gold.PLP.part.hbond>
-1.0000

> <Gold.PLP.part.metal>
0.0000

> <Gold.PLP.part.buried>
-2.6993

> <Gold.PLP.part.nonpolar>
-27.4618

> <Gold.PLP.part.repulsive>
0.0454

> <Gold.PLP.ligand.clash>
0.0000

> <Gold.PLP.ligand.torsion>
0.0043

> <Gold.PLP.Chemscore.Hbond>
1.0000

> <Gold.PLP.Chemscore.CHOScore>
0.0000

> <Gold.PLP.Chemscore.Metal>
0.0000

> <Gold.Chemscore.Hbonds>
donor molecule, donor type, donor heavy atom, donor atom, acceptor molecule, acceptor atom, score
      L1  H    10    21       P1   470  1.00

> <Gold.PLP.Chemscore.Internal.Correction>
0.0000

