#       Name:                EN300-658808_i001
#       Creating user name   aseyller
#       Creation time:       Fri Apr 21 16:48:04 2023


#       File generated by GOLD software.
#

@<TRIPOS>MOLECULE
EN300-658808_i001|aminophenols|mol2|128|dock4
    21    21     1
SMALL
USER_CHARGES


@<TRIPOS>ATOM
      1 C1          28.5198  38.6894  37.2965 C.3            1 <1>                0.0000
      2 C2          27.5960  37.4863  37.4968 C.3            1 <1>                0.0000
      3 C3          27.7085  36.9977  38.9180 C.ar           1 <1>                0.0000
      4 C4          28.9538  36.7546  39.4690 C.ar           1 <1>                0.0000
      5 C5          29.0615  36.3069  40.7722 C.ar           1 <1>                0.0000
      6 C6          27.9251  36.0998  41.5318 C.ar           1 <1>                0.0000
      7 C7          26.6732  36.3414  40.9861 C.ar           1 <1>                0.0000
      8 N8          25.5211  36.1324  41.7529 N.pl3          1 <1>                0.0000
      9 C9          26.5656  36.7978  39.6737 C.ar           1 <1>                0.0000
     10 O10         25.3406  37.0365  39.1332 O.3            1 <1>                0.0000
     11 H11         28.4383  39.0428  36.2685 H              1 <1>                0.0000
     12 H12         28.2296  39.4879  37.9792 H              1 <1>                0.0000
     13 H13         29.5495  38.3945  37.4988 H              1 <1>                0.0000
     14 H14         26.5663  37.7811  37.2945 H              1 <1>                0.0000
     15 H15         27.8861  36.6877  36.8140 H              1 <1>                0.0000
     16 H16         29.8442  36.9147  38.8792 H              1 <1>                0.0000
     17 H17         30.0359  36.1181  41.1981 H              1 <1>                0.0000
     18 H18         28.0121  35.7496  42.5497 H              1 <1>                0.0000
     19 H19         25.5977  35.8182  42.6674 H              1 <1>                0.0000
     20 H20         24.6462  36.3017  41.3698 H              1 <1>                0.0000
     21 H21         24.6031  36.8306  39.7238 H              1 <1>                0.0000
@<TRIPOS>BOND
    1    1    2 1     
    2    1   11 1     
    3    1   12 1     
    4    1   13 1     
    5    2    3 1     
    6    2   14 1     
    7    2   15 1     
    8    3    4 ar    
    9    3    9 ar    
   10    4    5 ar    
   11    4   16 1     
   12    5    6 ar    
   13    5   17 1     
   14    6    7 ar    
   15    6   18 1     
   16    7    8 1     
   17    7    9 ar    
   18    8   19 1     
   19    8   20 1     
   20    9   10 1     
   21   10   21 1     
@<TRIPOS>SUBSTRUCTURE
      1 ****           1
@<TRIPOS>SET
DONOR_HYDROGENS      STATIC     ATOMS    <user>   **** ""
3 19 20 21
ATOM$RED        STATIC     ATOMS    COLORGROUP SYSTEM
3 19 20 21
@<TRIPOS>COMMENT
> <Gold.Version>
2022.2.0

> <Gold.Id.Protein>
1qkm|1qkm_protein|mol2

> <Gold.Protein.RotatedTorsions>
[  496  491  490  487 ] final -131.89 input  -89.99 | X-H torsion

> <Gold.Protein.ActiveResidues>
 MET295  LEU298  THR299  LEU301  ALA302  GLU305  TRP335  MET336  LEU339  MET340 
 GLY342  LEU343  ARG346  PHE356  ILE373  ILE376  PHE377  LEU380  LYS471  GLY472 
 MET473  HIS475  LEU476  LEU477  ASN478  MET479  VAL484  VAL487 

> <Gold.Protein.RotatedAtoms>
   37.1186   34.1939   40.7431 H   0  0  0  0  0  0  0  0  0  0  0  0  # atno 496  bound_to 491 

> <Gold.Score>
     Score     S(PLP)   S(hbond)     S(cho)   S(metal)  DE(clash)   DE(tors)     intcor
     39.03     -35.31       1.30       0.00       0.00       0.00       0.08       0.00

> <Gold.PLP.Fitness>
39.0275

> <Gold.PLP.PLP>
-35.3073

> <Gold.PLP.part.hbond>
-1.8201

> <Gold.PLP.part.metal>
0.0000

> <Gold.PLP.part.buried>
-2.8258

> <Gold.PLP.part.nonpolar>
-32.3009

> <Gold.PLP.part.repulsive>
0.0907

> <Gold.PLP.ligand.clash>
0.0000

> <Gold.PLP.ligand.torsion>
0.0848

> <Gold.PLP.Chemscore.Hbond>
1.2965

> <Gold.PLP.Chemscore.CHOScore>
0.0000

> <Gold.PLP.Chemscore.Metal>
0.0000

> <Gold.Chemscore.Hbonds>
donor molecule, donor type, donor heavy atom, donor atom, acceptor molecule, acceptor atom, score
      L1  H     8    19       P1   582  0.99
      L1  H    10    21       P1  1131  0.30

> <Gold.PLP.Chemscore.Internal.Correction>
0.0000

