#       Name:                EN300-658808_i001
#       Creating user name   aseyller
#       Creation time:       Fri Apr 21 16:48:06 2023


#       File generated by GOLD software.
#

@<TRIPOS>MOLECULE
EN300-658808_i001|aminophenols|mol2|128|dock7
    21    21     1
SMALL
USER_CHARGES


@<TRIPOS>ATOM
      1 C1          28.8095  36.6588  41.4791 C.3            1 <1>                0.0000
      2 C2          28.8900  35.7151  40.2775 C.3            1 <1>                0.0000
      3 C3          29.7032  36.3608  39.1853 C.ar           1 <1>                0.0000
      4 C4          29.2482  37.5161  38.5756 C.ar           1 <1>                0.0000
      5 C5          29.9911  38.1118  37.5738 C.ar           1 <1>                0.0000
      6 C6          31.1929  37.5560  37.1760 C.ar           1 <1>                0.0000
      7 C7          31.6554  36.3978  37.7827 C.ar           1 <1>                0.0000
      8 N8          32.8716  35.8331  37.3818 N.pl3          1 <1>                0.0000
      9 C9          30.9083  35.8007  38.7963 C.ar           1 <1>                0.0000
     10 O10         31.3568  34.6648  39.3950 O.3            1 <1>                0.0000
     11 H11         28.2214  36.1917  42.2691 H              1 <1>                0.0000
     12 H12         29.8145  36.8644  41.8476 H              1 <1>                0.0000
     13 H13         28.3352  37.5925  41.1768 H              1 <1>                0.0000
     14 H14         29.3643  34.7814  40.5798 H              1 <1>                0.0000
     15 H15         27.8851  35.5094  39.9090 H              1 <1>                0.0000
     16 H16         28.3099  37.9536  38.8829 H              1 <1>                0.0000
     17 H17         29.6318  39.0136  37.1003 H              1 <1>                0.0000
     18 H18         31.7713  38.0234  36.3927 H              1 <1>                0.0000
     19 H19         33.3924  36.2519  36.6786 H              1 <1>                0.0000
     20 H20         33.1938  35.0229  37.8070 H              1 <1>                0.0000
     21 H21         31.3365  34.6951  40.3613 H              1 <1>                0.0000
@<TRIPOS>BOND
    1    1    2 1     
    2    1   11 1     
    3    1   12 1     
    4    1   13 1     
    5    2    3 1     
    6    2   14 1     
    7    2   15 1     
    8    3    4 ar    
    9    3    9 ar    
   10    4    5 ar    
   11    4   16 1     
   12    5    6 ar    
   13    5   17 1     
   14    6    7 ar    
   15    6   18 1     
   16    7    8 1     
   17    7    9 ar    
   18    8   19 1     
   19    8   20 1     
   20    9   10 1     
   21   10   21 1     
@<TRIPOS>SUBSTRUCTURE
      1 ****           1
@<TRIPOS>SET
DONOR_HYDROGENS      STATIC     ATOMS    <user>   **** ""
3 19 20 21
ATOM$RED        STATIC     ATOMS    COLORGROUP SYSTEM
3 19 20 21
@<TRIPOS>COMMENT
> <Gold.Version>
2022.2.0

> <Gold.Id.Protein>
1qkm|1qkm_protein|mol2

> <Gold.Protein.RotatedTorsions>
[  496  491  490  487 ] final   48.80 input  -89.99 | X-H torsion

> <Gold.Protein.ActiveResidues>
 MET295  LEU298  THR299  LEU301  ALA302  GLU305  TRP335  MET336  LEU339  MET340 
 GLY342  LEU343  ARG346  PHE356  ILE373  ILE376  PHE377  LEU380  LYS471  GLY472 
 MET473  HIS475  LEU476  LEU477  ASN478  MET479  VAL484  VAL487 

> <Gold.Protein.RotatedAtoms>
   36.4640   33.4715   42.3580 H   0  0  0  0  0  0  0  0  0  0  0  0  # atno 496  bound_to 491 

> <Gold.Score>
     Score     S(PLP)   S(hbond)     S(cho)   S(metal)  DE(clash)   DE(tors)     intcor
     36.01     -33.05       1.00       0.00       0.00       0.00       0.02       0.00

> <Gold.PLP.Fitness>
36.0063

> <Gold.PLP.PLP>
-33.0461

> <Gold.PLP.part.hbond>
-1.0000

> <Gold.PLP.part.metal>
0.0000

> <Gold.PLP.part.buried>
-2.0489

> <Gold.PLP.part.nonpolar>
-30.0379

> <Gold.PLP.part.repulsive>
0.0236

> <Gold.PLP.ligand.clash>
0.0000

> <Gold.PLP.ligand.torsion>
0.0199

> <Gold.PLP.Chemscore.Hbond>
1.0000

> <Gold.PLP.Chemscore.CHOScore>
0.0000

> <Gold.PLP.Chemscore.Metal>
0.0000

> <Gold.Chemscore.Hbonds>
donor molecule, donor type, donor heavy atom, donor atom, acceptor molecule, acceptor atom, score
      L1  H    10    21       P1   470  1.00

> <Gold.PLP.Chemscore.Internal.Correction>
0.0000

