#       Name:                EN300-658808_i001
#       Creating user name   aseyller
#       Creation time:       Fri Apr 21 16:48:05 2023


#       File generated by GOLD software.
#

@<TRIPOS>MOLECULE
EN300-658808_i001|aminophenols|mol2|128|dock6
    21    21     1
SMALL
USER_CHARGES


@<TRIPOS>ATOM
      1 C1          29.7021  38.1058  36.3599 C.3            1 <1>                0.0000
      2 C2          29.7609  36.7006  36.9624 C.3            1 <1>                0.0000
      3 C3          28.9271  36.6566  38.2170 C.ar           1 <1>                0.0000
      4 C4          27.5936  37.0220  38.1741 C.ar           1 <1>                0.0000
      5 C5          26.8252  36.9827  39.3222 C.ar           1 <1>                0.0000
      6 C6          27.3854  36.5779  40.5196 C.ar           1 <1>                0.0000
      7 C7          28.7217  36.2101  40.5703 C.ar           1 <1>                0.0000
      8 N8          29.2912  35.8000  41.7812 N.pl3          1 <1>                0.0000
      9 C9          29.4945  36.2450  39.4111 C.ar           1 <1>                0.0000
     10 O10         30.8054  35.8855  39.4547 O.3            1 <1>                0.0000
     11 H11         30.3052  38.1375  35.4525 H              1 <1>                0.0000
     12 H12         28.6688  38.3545  36.1183 H              1 <1>                0.0000
     13 H13         30.0906  38.8263  37.0797 H              1 <1>                0.0000
     14 H14         29.3725  35.9801  36.2427 H              1 <1>                0.0000
     15 H15         30.7942  36.4518  37.2040 H              1 <1>                0.0000
     16 H16         27.1519  37.3392  37.2410 H              1 <1>                0.0000
     17 H17         25.7846  37.2692  39.2840 H              1 <1>                0.0000
     18 H18         26.7828  36.5484  41.4154 H              1 <1>                0.0000
     19 H19         28.7512  35.7728  42.5865 H              1 <1>                0.0000
     20 H20         30.2261  35.5432  41.8152 H              1 <1>                0.0000
     21 H21         31.0389  35.3411  40.2190 H              1 <1>                0.0000
@<TRIPOS>BOND
    1    1    2 1     
    2    1   11 1     
    3    1   12 1     
    4    1   13 1     
    5    2    3 1     
    6    2   14 1     
    7    2   15 1     
    8    3    4 ar    
    9    3    9 ar    
   10    4    5 ar    
   11    4   16 1     
   12    5    6 ar    
   13    5   17 1     
   14    6    7 ar    
   15    6   18 1     
   16    7    8 1     
   17    7    9 ar    
   18    8   19 1     
   19    8   20 1     
   20    9   10 1     
   21   10   21 1     
@<TRIPOS>SUBSTRUCTURE
      1 ****           1
@<TRIPOS>SET
DONOR_HYDROGENS      STATIC     ATOMS    <user>   **** ""
3 19 20 21
ATOM$RED        STATIC     ATOMS    COLORGROUP SYSTEM
3 19 20 21
@<TRIPOS>COMMENT
> <Gold.Version>
2022.2.0

> <Gold.Id.Protein>
1qkm|1qkm_protein|mol2

> <Gold.Protein.RotatedTorsions>
[  496  491  490  487 ] final  -66.09 input  -89.99 | X-H torsion

> <Gold.Protein.ActiveResidues>
 MET295  LEU298  THR299  LEU301  ALA302  GLU305  TRP335  MET336  LEU339  MET340 
 GLY342  LEU343  ARG346  PHE356  ILE373  ILE376  PHE377  LEU380  LYS471  GLY472 
 MET473  HIS475  LEU476  LEU477  ASN478  MET479  VAL484  VAL487 

> <Gold.Protein.RotatedAtoms>
   36.5456   34.7357   41.3972 H   0  0  0  0  0  0  0  0  0  0  0  0  # atno 496  bound_to 491 

> <Gold.Score>
     Score     S(PLP)   S(hbond)     S(cho)   S(metal)  DE(clash)   DE(tors)     intcor
     37.07     -31.11       2.00       0.00       0.00       0.00       0.02       0.00

> <Gold.PLP.Fitness>
37.0702

> <Gold.PLP.PLP>
-31.1065

> <Gold.PLP.part.hbond>
-2.0000

> <Gold.PLP.part.metal>
0.0000

> <Gold.PLP.part.buried>
-1.6733

> <Gold.PLP.part.nonpolar>
-27.6406

> <Gold.PLP.part.repulsive>
0.1035

> <Gold.PLP.ligand.clash>
0.0000

> <Gold.PLP.ligand.torsion>
0.0182

> <Gold.PLP.Chemscore.Hbond>
2.0000

> <Gold.PLP.Chemscore.CHOScore>
0.0000

> <Gold.PLP.Chemscore.Metal>
0.0000

> <Gold.Chemscore.Hbonds>
donor molecule, donor type, donor heavy atom, donor atom, acceptor molecule, acceptor atom, score
      L1  H     8    20       P1   470  1.00
      L1  H    10    21       P1   470  1.00

> <Gold.PLP.Chemscore.Internal.Correction>
0.0000

