#       Name:                EN300-658808_i001
#       Creating user name   aseyller
#       Creation time:       Fri Apr 21 16:48:09 2023


#       File generated by GOLD software.
#

@<TRIPOS>MOLECULE
EN300-658808_i001|aminophenols|mol2|128|dock13
    21    21     1
SMALL
USER_CHARGES


@<TRIPOS>ATOM
      1 C1          29.8862  37.0018  39.2797 C.3            1 <1>                0.0000
      2 C2          29.6802  36.9439  37.7647 C.3            1 <1>                0.0000
      3 C3          31.0024  36.6907  37.0873 C.ar           1 <1>                0.0000
      4 C4          31.8294  35.6790  37.5413 C.ar           1 <1>                0.0000
      5 C5          33.0426  35.4432  36.9227 C.ar           1 <1>                0.0000
      6 C6          33.4358  36.2171  35.8466 C.ar           1 <1>                0.0000
      7 C7          32.6119  37.2331  35.3859 C.ar           1 <1>                0.0000
      8 N8          33.0077  38.0181  34.2968 N.pl3          1 <1>                0.0000
      9 C9          31.3864  37.4670  36.0069 C.ar           1 <1>                0.0000
     10 O10         30.5742  38.4619  35.5595 O.3            1 <1>                0.0000
     11 H11         28.9298  37.1849  39.7696 H              1 <1>                0.0000
     12 H12         30.2967  36.0538  39.6270 H              1 <1>                0.0000
     13 H13         30.5786  37.8081  39.5216 H              1 <1>                0.0000
     14 H14         28.9878  36.1377  37.5227 H              1 <1>                0.0000
     15 H15         29.2696  37.8919  37.4173 H              1 <1>                0.0000
     16 H16         31.5264  35.0722  38.3817 H              1 <1>                0.0000
     17 H17         33.6852  34.6524  37.2809 H              1 <1>                0.0000
     18 H18         34.3845  36.0309  35.3652 H              1 <1>                0.0000
     19 H19         33.8593  37.8519  33.8632 H              1 <1>                0.0000
     20 H20         32.4304  38.7285  33.9757 H              1 <1>                0.0000
     21 H21         30.9755  39.0223  34.8813 H              1 <1>                0.0000
@<TRIPOS>BOND
    1    1    2 1     
    2    1   11 1     
    3    1   12 1     
    4    1   13 1     
    5    2    3 1     
    6    2   14 1     
    7    2   15 1     
    8    3    4 ar    
    9    3    9 ar    
   10    4    5 ar    
   11    4   16 1     
   12    5    6 ar    
   13    5   17 1     
   14    6    7 ar    
   15    6   18 1     
   16    7    8 1     
   17    7    9 ar    
   18    8   19 1     
   19    8   20 1     
   20    9   10 1     
   21   10   21 1     
@<TRIPOS>SUBSTRUCTURE
      1 ****           1
@<TRIPOS>SET
DONOR_HYDROGENS      STATIC     ATOMS    <user>   **** ""
3 19 20 21
ATOM$RED        STATIC     ATOMS    COLORGROUP SYSTEM
3 19 20 21
@<TRIPOS>COMMENT
> <Gold.Version>
2022.2.0

> <Gold.Id.Protein>
1qkm|1qkm_protein|mol2

> <Gold.Protein.RotatedTorsions>
[  496  491  490  487 ] final    6.47 input  -89.99 | X-H torsion

> <Gold.Protein.ActiveResidues>
 MET295  LEU298  THR299  LEU301  ALA302  GLU305  TRP335  MET336  LEU339  MET340 
 GLY342  LEU343  ARG346  PHE356  ILE373  ILE376  PHE377  LEU380  LYS471  GLY472 
 MET473  HIS475  LEU476  LEU477  ASN478  MET479  VAL484  VAL487 

> <Gold.Protein.RotatedAtoms>
   36.2666   34.1194   42.2849 H   0  0  0  0  0  0  0  0  0  0  0  0  # atno 496  bound_to 491 

> <Gold.Score>
     Score     S(PLP)   S(hbond)     S(cho)   S(metal)  DE(clash)   DE(tors)     intcor
     32.93     -30.19       1.00       0.00       0.00       0.00       0.13       0.00

> <Gold.PLP.Fitness>
32.9326

> <Gold.PLP.PLP>
-30.1894

> <Gold.PLP.part.hbond>
-1.0000

> <Gold.PLP.part.metal>
0.0000

> <Gold.PLP.part.buried>
-3.0763

> <Gold.PLP.part.nonpolar>
-26.3467

> <Gold.PLP.part.repulsive>
0.0535

> <Gold.PLP.ligand.clash>
0.0000

> <Gold.PLP.ligand.torsion>
0.1284

> <Gold.PLP.Chemscore.Hbond>
1.0000

> <Gold.PLP.Chemscore.CHOScore>
0.0000

> <Gold.PLP.Chemscore.Metal>
0.0000

> <Gold.Chemscore.Hbonds>
donor molecule, donor type, donor heavy atom, donor atom, acceptor molecule, acceptor atom, score
      L1  H     8    19       P1  3229  1.00

> <Gold.PLP.Chemscore.Internal.Correction>
0.0000

