#       Name:                EN300-658808_i001
#       Creating user name   aseyller
#       Creation time:       Fri Apr 21 16:48:07 2023


#       File generated by GOLD software.
#

@<TRIPOS>MOLECULE
EN300-658808_i001|aminophenols|mol2|128|dock10
    21    21     1
SMALL
USER_CHARGES


@<TRIPOS>ATOM
      1 C1          25.5015  37.5443  41.1393 C.3            1 <1>                0.0000
      2 C2          26.2661  36.2364  40.9249 C.3            1 <1>                0.0000
      3 C3          27.3258  36.4407  39.8730 C.ar           1 <1>                0.0000
      4 C4          26.9939  37.0168  38.6600 C.ar           1 <1>                0.0000
      5 C5          27.9627  37.2064  37.6927 C.ar           1 <1>                0.0000
      6 C6          29.2687  36.8211  37.9326 C.ar           1 <1>                0.0000
      7 C7          29.6088  36.2428  39.1464 C.ar           1 <1>                0.0000
      8 N8          30.9301  35.8519  39.3917 N.pl3          1 <1>                0.0000
      9 C9          28.6324  36.0568  40.1232 C.ar           1 <1>                0.0000
     10 O10         28.9600  35.4903  41.3155 O.3            1 <1>                0.0000
     11 H11         24.7351  37.3966  41.9002 H              1 <1>                0.0000
     12 H12         26.1936  38.3202  41.4666 H              1 <1>                0.0000
     13 H13         25.0312  37.8478  40.2040 H              1 <1>                0.0000
     14 H14         26.7363  35.9329  41.8602 H              1 <1>                0.0000
     15 H15         25.5741  35.4605  40.5977 H              1 <1>                0.0000
     16 H16         25.9750  37.3190  38.4681 H              1 <1>                0.0000
     17 H17         27.6989  37.6563  36.7469 H              1 <1>                0.0000
     18 H18         30.0237  36.9701  37.1749 H              1 <1>                0.0000
     19 H19         31.6094  35.9853  38.7123 H              1 <1>                0.0000
     20 H20         31.1665  35.4474  40.2411 H              1 <1>                0.0000
     21 H21         29.9085  35.3441  41.4342 H              1 <1>                0.0000
@<TRIPOS>BOND
    1    1    2 1     
    2    1   11 1     
    3    1   12 1     
    4    1   13 1     
    5    2    3 1     
    6    2   14 1     
    7    2   15 1     
    8    3    4 ar    
    9    3    9 ar    
   10    4    5 ar    
   11    4   16 1     
   12    5    6 ar    
   13    5   17 1     
   14    6    7 ar    
   15    6   18 1     
   16    7    8 1     
   17    7    9 ar    
   18    8   19 1     
   19    8   20 1     
   20    9   10 1     
   21   10   21 1     
@<TRIPOS>SUBSTRUCTURE
      1 ****           1
@<TRIPOS>SET
DONOR_HYDROGENS      STATIC     ATOMS    <user>   **** ""
3 19 20 21
ATOM$RED        STATIC     ATOMS    COLORGROUP SYSTEM
3 19 20 21
@<TRIPOS>COMMENT
> <Gold.Version>
2022.2.0

> <Gold.Id.Protein>
1qkm|1qkm_protein|mol2

> <Gold.Protein.RotatedTorsions>
[  496  491  490  487 ] final  -81.24 input  -89.99 | X-H torsion

> <Gold.Protein.ActiveResidues>
 MET295  LEU298  THR299  LEU301  ALA302  GLU305  TRP335  MET336  LEU339  MET340 
 GLY342  LEU343  ARG346  PHE356  ILE373  ILE376  PHE377  LEU380  LYS471  GLY472 
 MET473  HIS475  LEU476  LEU477  ASN478  MET479  VAL484  VAL487 

> <Gold.Protein.RotatedAtoms>
   36.6771   34.7010   41.1889 H   0  0  0  0  0  0  0  0  0  0  0  0  # atno 496  bound_to 491 

> <Gold.Score>
     Score     S(PLP)   S(hbond)     S(cho)   S(metal)  DE(clash)   DE(tors)     intcor
     39.76     -34.38       1.85       0.00       0.00       0.00       0.08       0.00

> <Gold.PLP.Fitness>
39.7610

> <Gold.PLP.PLP>
-34.3804

> <Gold.PLP.part.hbond>
-2.0000

> <Gold.PLP.part.metal>
0.0000

> <Gold.PLP.part.buried>
-1.0855

> <Gold.PLP.part.nonpolar>
-31.1048

> <Gold.PLP.part.repulsive>
0.0554

> <Gold.PLP.ligand.clash>
0.0000

> <Gold.PLP.ligand.torsion>
0.0848

> <Gold.PLP.Chemscore.Hbond>
1.8500

> <Gold.PLP.Chemscore.CHOScore>
0.0000

> <Gold.PLP.Chemscore.Metal>
0.0000

> <Gold.Chemscore.Hbonds>
donor molecule, donor type, donor heavy atom, donor atom, acceptor molecule, acceptor atom, score
      L1  H     8    20       P1   470  0.85
      L1  H    10    21       P1   470  1.00

> <Gold.PLP.Chemscore.Internal.Correction>
0.0000

