#       Name:                EN300-658808_i001
#       Creating user name   aseyller
#       Creation time:       Fri Apr 21 16:48:05 2023


#       File generated by GOLD software.
#

@<TRIPOS>MOLECULE
EN300-658808_i001|aminophenols|mol2|128|dock5
    21    21     1
SMALL
USER_CHARGES


@<TRIPOS>ATOM
      1 C1          30.8712  36.3143  38.3389 C.3            1 <1>                0.0000
      2 C2          29.8719  37.4719  38.3891 C.3            1 <1>                0.0000
      3 C3          28.5869  36.9992  39.0189 C.ar           1 <1>                0.0000
      4 C4          27.4313  36.9281  38.2619 C.ar           1 <1>                0.0000
      5 C5          26.2508  36.4947  38.8354 C.ar           1 <1>                0.0000
      6 C6          26.2190  36.1299  40.1686 C.ar           1 <1>                0.0000
      7 C7          27.3737  36.1986  40.9337 C.ar           1 <1>                0.0000
      8 N8          27.3441  35.8300  42.2835 N.pl3          1 <1>                0.0000
      9 C9          28.5648  36.6307  40.3534 C.ar           1 <1>                0.0000
     10 O10         29.7003  36.7001  41.0987 O.3            1 <1>                0.0000
     11 H11         31.8007  36.6563  37.8834 H              1 <1>                0.0000
     12 H12         31.0706  35.9623  39.3510 H              1 <1>                0.0000
     13 H13         30.4544  35.4999  37.7464 H              1 <1>                0.0000
     14 H14         30.2887  38.2863  38.9816 H              1 <1>                0.0000
     15 H15         29.6726  37.8239  37.3770 H              1 <1>                0.0000
     16 H16         27.4514  37.2123  37.2202 H              1 <1>                0.0000
     17 H17         25.3509  36.4411  38.2406 H              1 <1>                0.0000
     18 H18         25.2951  35.7919  40.6143 H              1 <1>                0.0000
     19 H19         26.5152  35.5259  42.6852 H              1 <1>                0.0000
     20 H20         28.1525  35.8787  42.8175 H              1 <1>                0.0000
     21 H21         30.1276  35.8451  41.2451 H              1 <1>                0.0000
@<TRIPOS>BOND
    1    1    2 1     
    2    1   11 1     
    3    1   12 1     
    4    1   13 1     
    5    2    3 1     
    6    2   14 1     
    7    2   15 1     
    8    3    4 ar    
    9    3    9 ar    
   10    4    5 ar    
   11    4   16 1     
   12    5    6 ar    
   13    5   17 1     
   14    6    7 ar    
   15    6   18 1     
   16    7    8 1     
   17    7    9 ar    
   18    8   19 1     
   19    8   20 1     
   20    9   10 1     
   21   10   21 1     
@<TRIPOS>SUBSTRUCTURE
      1 ****           1
@<TRIPOS>SET
DONOR_HYDROGENS      STATIC     ATOMS    <user>   **** ""
3 19 20 21
ATOM$RED        STATIC     ATOMS    COLORGROUP SYSTEM
3 19 20 21
@<TRIPOS>COMMENT
> <Gold.Version>
2022.2.0

> <Gold.Id.Protein>
1qkm|1qkm_protein|mol2

> <Gold.Protein.RotatedTorsions>
[  496  491  490  487 ] final -160.85 input  -89.99 | X-H torsion

> <Gold.Protein.ActiveResidues>
 MET295  LEU298  THR299  LEU301  ALA302  GLU305  TRP335  MET336  LEU339  MET340 
 GLY342  LEU343  ARG346  PHE356  ILE373  ILE376  PHE377  LEU380  LYS471  GLY472 
 MET473  HIS475  LEU476  LEU477  ASN478  MET479  VAL484  VAL487 

> <Gold.Protein.RotatedAtoms>
   37.2783   33.7501   40.7503 H   0  0  0  0  0  0  0  0  0  0  0  0  # atno 496  bound_to 491 

> <Gold.Score>
     Score     S(PLP)   S(hbond)     S(cho)   S(metal)  DE(clash)   DE(tors)     intcor
     40.91     -36.39       1.54       0.00       0.00       0.00       0.04       0.00

> <Gold.PLP.Fitness>
40.9146

> <Gold.PLP.PLP>
-36.3942

> <Gold.PLP.part.hbond>
-1.3737

> <Gold.PLP.part.metal>
0.0000

> <Gold.PLP.part.buried>
-3.5578

> <Gold.PLP.part.nonpolar>
-31.9601

> <Gold.PLP.part.repulsive>
0.0650

> <Gold.PLP.ligand.clash>
0.0000

> <Gold.PLP.ligand.torsion>
0.0438

> <Gold.PLP.Chemscore.Hbond>
1.5360

> <Gold.PLP.Chemscore.CHOScore>
0.0000

> <Gold.PLP.Chemscore.Metal>
0.0000

> <Gold.Chemscore.Hbonds>
donor molecule, donor type, donor heavy atom, donor atom, acceptor molecule, acceptor atom, score
      L1  H     8    19       P1   582  0.77
      L1  H    10    21       P1   470  0.77

> <Gold.PLP.Chemscore.Internal.Correction>
0.0000

