#       Name:                EN300-658808_i001
#       Creating user name   aseyller
#       Creation time:       Fri Apr 21 16:48:10 2023


#       File generated by GOLD software.
#

@<TRIPOS>MOLECULE
EN300-658808_i001|aminophenols|mol2|128|dock17
    21    21     1
SMALL
USER_CHARGES


@<TRIPOS>ATOM
      1 C1          29.7184  37.0602  36.3077 C.3            1 <1>                0.0000
      2 C2          29.8749  37.3716  37.7975 C.3            1 <1>                0.0000
      3 C3          28.5753  37.0933  38.5081 C.ar           1 <1>                0.0000
      4 C4          27.3889  37.5903  37.9993 C.ar           1 <1>                0.0000
      5 C5          26.1948  37.3370  38.6476 C.ar           1 <1>                0.0000
      6 C6          26.1800  36.5854  39.8079 C.ar           1 <1>                0.0000
      7 C7          27.3656  36.0839  40.3239 C.ar           1 <1>                0.0000
      8 N8          27.3534  35.3229  41.4985 N.pl3          1 <1>                0.0000
      9 C9          28.5686  36.3353  39.6669 C.ar           1 <1>                0.0000
     10 O10         29.7344  35.8460  40.1681 O.3            1 <1>                0.0000
     11 H11         30.6584  37.2615  35.7938 H              1 <1>                0.0000
     12 H12         29.4531  36.0105  36.1819 H              1 <1>                0.0000
     13 H13         28.9324  37.6867  35.8861 H              1 <1>                0.0000
     14 H14         30.6608  36.7451  38.2191 H              1 <1>                0.0000
     15 H15         30.1402  38.4213  37.9234 H              1 <1>                0.0000
     16 H16         27.3957  38.1781  37.0934 H              1 <1>                0.0000
     17 H17         25.2709  37.7274  38.2469 H              1 <1>                0.0000
     18 H18         25.2456  36.3893  40.3127 H              1 <1>                0.0000
     19 H19         26.5149  35.1456  41.9528 H              1 <1>                0.0000
     20 H20         28.1834  34.9728  41.8583 H              1 <1>                0.0000
     21 H21         29.7874  35.8677  41.1334 H              1 <1>                0.0000
@<TRIPOS>BOND
    1    1    2 1     
    2    1   11 1     
    3    1   12 1     
    4    1   13 1     
    5    2    3 1     
    6    2   14 1     
    7    2   15 1     
    8    3    4 ar    
    9    3    9 ar    
   10    4    5 ar    
   11    4   16 1     
   12    5    6 ar    
   13    5   17 1     
   14    6    7 ar    
   15    6   18 1     
   16    7    8 1     
   17    7    9 ar    
   18    8   19 1     
   19    8   20 1     
   20    9   10 1     
   21   10   21 1     
@<TRIPOS>SUBSTRUCTURE
      1 ****           1
@<TRIPOS>SET
DONOR_HYDROGENS      STATIC     ATOMS    <user>   **** ""
3 19 20 21
ATOM$RED        STATIC     ATOMS    COLORGROUP SYSTEM
3 19 20 21
@<TRIPOS>COMMENT
> <Gold.Version>
2022.2.0

> <Gold.Id.Protein>
1qkm|1qkm_protein|mol2

> <Gold.Protein.RotatedTorsions>
[  496  491  490  487 ] final    2.61 input  -89.99 | X-H torsion

> <Gold.Protein.ActiveResidues>
 MET295  LEU298  THR299  LEU301  ALA302  GLU305  TRP335  MET336  LEU339  MET340 
 GLY342  LEU343  ARG346  PHE356  ILE373  ILE376  PHE377  LEU380  LYS471  GLY472 
 MET473  HIS475  LEU476  LEU477  ASN478  MET479  VAL484  VAL487 

> <Gold.Protein.RotatedAtoms>
   36.2617   34.1761   42.2568 H   0  0  0  0  0  0  0  0  0  0  0  0  # atno 496  bound_to 491 

> <Gold.Score>
     Score     S(PLP)   S(hbond)     S(cho)   S(metal)  DE(clash)   DE(tors)     intcor
     35.95     -33.99       0.73       0.00       0.00       0.00       0.12       0.00

> <Gold.PLP.Fitness>
35.9540

> <Gold.PLP.PLP>
-33.9897

> <Gold.PLP.part.hbond>
-2.0000

> <Gold.PLP.part.metal>
0.0000

> <Gold.PLP.part.buried>
-3.4565

> <Gold.PLP.part.nonpolar>
-29.6567

> <Gold.PLP.part.repulsive>
0.0481

> <Gold.PLP.ligand.clash>
0.0000

> <Gold.PLP.ligand.torsion>
0.1160

> <Gold.PLP.Chemscore.Hbond>
0.7321

> <Gold.PLP.Chemscore.CHOScore>
0.0000

> <Gold.PLP.Chemscore.Metal>
0.0000

> <Gold.Chemscore.Hbonds>
donor molecule, donor type, donor heavy atom, donor atom, acceptor molecule, acceptor atom, score
      L1  H     8    19       P1   582  0.67
      L1  H    10    21       P1   470  0.06

> <Gold.PLP.Chemscore.Internal.Correction>
0.0000

