#       Name:                EN300-658808_i001
#       Creating user name   aseyller
#       Creation time:       Fri Apr 21 16:48:03 2023


#       File generated by GOLD software.
#

@<TRIPOS>MOLECULE
EN300-658808_i001|aminophenols|mol2|128|dock2
    21    21     1
SMALL
USER_CHARGES


@<TRIPOS>ATOM
      1 C1          29.2696  38.6178  37.4075 C.3            1 <1>                0.0000
      2 C2          29.1685  37.1008  37.5792 C.3            1 <1>                0.0000
      3 C3          28.2055  36.7846  38.6944 C.ar           1 <1>                0.0000
      4 C4          26.8488  36.9863  38.5144 C.ar           1 <1>                0.0000
      5 C5          25.9621  36.6971  39.5344 C.ar           1 <1>                0.0000
      6 C6          26.4265  36.2046  40.7399 C.ar           1 <1>                0.0000
      7 C7          27.7853  35.9999  40.9276 C.ar           1 <1>                0.0000
      8 N8          28.2580  35.5015  42.1471 N.pl3          1 <1>                0.0000
      9 C9          28.6783  36.2868  39.8969 C.ar           1 <1>                0.0000
     10 O10         30.0119  36.0879  40.0751 O.3            1 <1>                0.0000
     11 H11         29.9662  38.8465  36.6009 H              1 <1>                0.0000
     12 H12         28.2871  39.0222  37.1647 H              1 <1>                0.0000
     13 H13         29.6278  39.0654  38.3347 H              1 <1>                0.0000
     14 H14         28.8104  36.6533  36.6521 H              1 <1>                0.0000
     15 H15         30.1511  36.6963  37.8220 H              1 <1>                0.0000
     16 H16         26.4816  37.3711  37.5745 H              1 <1>                0.0000
     17 H17         24.9038  36.8565  39.3894 H              1 <1>                0.0000
     18 H18         25.7315  35.9798  41.5354 H              1 <1>                0.0000
     19 H19         27.6350  35.2988  42.8623 H              1 <1>                0.0000
     20 H20         29.2087  35.3590  42.2770 H              1 <1>                0.0000
     21 H21         30.2444  35.7372  40.9457 H              1 <1>                0.0000
@<TRIPOS>BOND
    1    1    2 1     
    2    1   11 1     
    3    1   12 1     
    4    1   13 1     
    5    2    3 1     
    6    2   14 1     
    7    2   15 1     
    8    3    4 ar    
    9    3    9 ar    
   10    4    5 ar    
   11    4   16 1     
   12    5    6 ar    
   13    5   17 1     
   14    6    7 ar    
   15    6   18 1     
   16    7    8 1     
   17    7    9 ar    
   18    8   19 1     
   19    8   20 1     
   20    9   10 1     
   21   10   21 1     
@<TRIPOS>SUBSTRUCTURE
      1 ****           1
@<TRIPOS>SET
DONOR_HYDROGENS      STATIC     ATOMS    <user>   **** ""
3 19 20 21
ATOM$RED        STATIC     ATOMS    COLORGROUP SYSTEM
3 19 20 21
@<TRIPOS>COMMENT
> <Gold.Version>
2022.2.0

> <Gold.Id.Protein>
1qkm|1qkm_protein|mol2

> <Gold.Protein.RotatedTorsions>
[  496  491  490  487 ] final  -80.32 input  -89.99 | X-H torsion

> <Gold.Protein.ActiveResidues>
 MET295  LEU298  THR299  LEU301  ALA302  GLU305  TRP335  MET336  LEU339  MET340 
 GLY342  LEU343  ARG346  PHE356  ILE373  ILE376  PHE377  LEU380  LYS471  GLY472 
 MET473  HIS475  LEU476  LEU477  ASN478  MET479  VAL484  VAL487 

> <Gold.Protein.RotatedAtoms>
   36.6688   34.7049   41.2011 H   0  0  0  0  0  0  0  0  0  0  0  0  # atno 496  bound_to 491 

> <Gold.Score>
     Score     S(PLP)   S(hbond)     S(cho)   S(metal)  DE(clash)   DE(tors)     intcor
     41.89     -36.56       1.86       0.00       0.00       0.00       0.12       0.00

> <Gold.PLP.Fitness>
41.8943

> <Gold.PLP.PLP>
-36.5569

> <Gold.PLP.part.hbond>
-2.0000

> <Gold.PLP.part.metal>
0.0000

> <Gold.PLP.part.buried>
-3.6381

> <Gold.PLP.part.nonpolar>
-31.7921

> <Gold.PLP.part.repulsive>
0.0903

> <Gold.PLP.ligand.clash>
0.0000

> <Gold.PLP.ligand.torsion>
0.1160

> <Gold.PLP.Chemscore.Hbond>
1.8564

> <Gold.PLP.Chemscore.CHOScore>
0.0000

> <Gold.PLP.Chemscore.Metal>
0.0000

> <Gold.Chemscore.Hbonds>
donor molecule, donor type, donor heavy atom, donor atom, acceptor molecule, acceptor atom, score
      L1  H     8    19       P1   582  1.00
      L1  H    10    21       P1   470  0.86

> <Gold.PLP.Chemscore.Internal.Correction>
0.0000

