#       Name:                EN300-658808_i001
#       Creating user name   aseyller
#       Creation time:       Fri Apr 21 16:48:09 2023


#       File generated by GOLD software.
#

@<TRIPOS>MOLECULE
EN300-658808_i001|aminophenols|mol2|128|dock14
    21    21     1
SMALL
USER_CHARGES


@<TRIPOS>ATOM
      1 C1          25.5081  38.4237  38.4771 C.3            1 <1>                0.0000
      2 C2          25.6324  37.0331  39.1029 C.3            1 <1>                0.0000
      3 C3          27.0873  36.7131  39.3312 C.ar           1 <1>                0.0000
      4 C4          27.9717  36.7195  38.2675 C.ar           1 <1>                0.0000
      5 C5          29.3069  36.4271  38.4725 C.ar           1 <1>                0.0000
      6 C6          29.7654  36.1269  39.7418 C.ar           1 <1>                0.0000
      7 C7          28.8845  36.1186  40.8130 C.ar           1 <1>                0.0000
      8 N8          29.3462  35.8148  42.0989 N.pl3          1 <1>                0.0000
      9 C9          27.5394  36.4186  40.6063 C.ar           1 <1>                0.0000
     10 O10         26.6708  36.4121  41.6529 O.3            1 <1>                0.0000
     11 H11         24.4557  38.6551  38.3121 H              1 <1>                0.0000
     12 H12         25.9419  39.1644  39.1488 H              1 <1>                0.0000
     13 H13         26.0379  38.4423  37.5247 H              1 <1>                0.0000
     14 H14         25.1026  37.0145  40.0553 H              1 <1>                0.0000
     15 H15         25.1985  36.2923  38.4313 H              1 <1>                0.0000
     16 H16         27.6179  36.9532  37.2743 H              1 <1>                0.0000
     17 H17         29.9937  36.4329  37.6391 H              1 <1>                0.0000
     18 H18         30.8092  35.8984  39.8991 H              1 <1>                0.0000
     19 H19         30.2834  35.6098  42.2418 H              1 <1>                0.0000
     20 H20         28.7288  35.8093  42.8471 H              1 <1>                0.0000
     21 H21         26.7979  35.6744  42.2651 H              1 <1>                0.0000
@<TRIPOS>BOND
    1    1    2 1     
    2    1   11 1     
    3    1   12 1     
    4    1   13 1     
    5    2    3 1     
    6    2   14 1     
    7    2   15 1     
    8    3    4 ar    
    9    3    9 ar    
   10    4    5 ar    
   11    4   16 1     
   12    5    6 ar    
   13    5   17 1     
   14    6    7 ar    
   15    6   18 1     
   16    7    8 1     
   17    7    9 ar    
   18    8   19 1     
   19    8   20 1     
   20    9   10 1     
   21   10   21 1     
@<TRIPOS>SUBSTRUCTURE
      1 ****           1
@<TRIPOS>SET
DONOR_HYDROGENS      STATIC     ATOMS    <user>   **** ""
3 19 20 21
ATOM$RED        STATIC     ATOMS    COLORGROUP SYSTEM
3 19 20 21
@<TRIPOS>COMMENT
> <Gold.Version>
2022.2.0

> <Gold.Id.Protein>
1qkm|1qkm_protein|mol2

> <Gold.Protein.RotatedTorsions>
[  496  491  490  487 ] final  -67.22 input  -89.99 | X-H torsion

> <Gold.Protein.ActiveResidues>
 MET295  LEU298  THR299  LEU301  ALA302  GLU305  TRP335  MET336  LEU339  MET340 
 GLY342  LEU343  ARG346  PHE356  ILE373  ILE376  PHE377  LEU380  LYS471  GLY472 
 MET473  HIS475  LEU476  LEU477  ASN478  MET479  VAL484  VAL487 

> <Gold.Protein.RotatedAtoms>
   36.5550   34.7353   41.3810 H   0  0  0  0  0  0  0  0  0  0  0  0  # atno 496  bound_to 491 

> <Gold.Score>
     Score     S(PLP)   S(hbond)     S(cho)   S(metal)  DE(clash)   DE(tors)     intcor
     37.02     -31.10       1.98       0.00       0.00       0.00       0.00       0.00

> <Gold.PLP.Fitness>
37.0200

> <Gold.PLP.PLP>
-31.0999

> <Gold.PLP.part.hbond>
-2.0000

> <Gold.PLP.part.metal>
0.0000

> <Gold.PLP.part.buried>
-3.5466

> <Gold.PLP.part.nonpolar>
-27.2043

> <Gold.PLP.part.repulsive>
0.2939

> <Gold.PLP.ligand.clash>
0.0000

> <Gold.PLP.ligand.torsion>
0.0040

> <Gold.PLP.Chemscore.Hbond>
1.9760

> <Gold.PLP.Chemscore.CHOScore>
0.0000

> <Gold.PLP.Chemscore.Metal>
0.0000

> <Gold.Chemscore.Hbonds>
donor molecule, donor type, donor heavy atom, donor atom, acceptor molecule, acceptor atom, score
      L1  H     8    19       P1   470  1.00
      L1  H    10    21       P1   582  0.98

> <Gold.PLP.Chemscore.Internal.Correction>
0.0000

