#       Name:                EN300-658808_i001
#       Creating user name   aseyller
#       Creation time:       Fri Apr 21 16:48:08 2023


#       File generated by GOLD software.
#

@<TRIPOS>MOLECULE
EN300-658808_i001|aminophenols|mol2|128|dock11
    21    21     1
SMALL
USER_CHARGES


@<TRIPOS>ATOM
      1 C1          30.9386  37.4116  37.7601 C.3            1 <1>                0.0000
      2 C2          30.5096  36.8420  39.1137 C.3            1 <1>                0.0000
      3 C3          29.0051  36.8347  39.2016 C.ar           1 <1>                0.0000
      4 C4          28.2498  37.3662  38.1717 C.ar           1 <1>                0.0000
      5 C5          26.8698  37.3611  38.2480 C.ar           1 <1>                0.0000
      6 C6          26.2371  36.8247  39.3541 C.ar           1 <1>                0.0000
      7 C7          26.9878  36.2901  40.3905 C.ar           1 <1>                0.0000
      8 N8          26.3498  35.7466  41.5114 N.pl3          1 <1>                0.0000
      9 C9          28.3791  36.2909  40.3105 C.ar           1 <1>                0.0000
     10 O10         29.1206  35.7680  41.3237 O.3            1 <1>                0.0000
     11 H11         32.0268  37.4168  37.6966 H              1 <1>                0.0000
     12 H12         30.5310  36.7937  36.9602 H              1 <1>                0.0000
     13 H13         30.5639  38.4303  37.6593 H              1 <1>                0.0000
     14 H14         30.8843  35.8234  39.2146 H              1 <1>                0.0000
     15 H15         30.9172  37.4599  39.9137 H              1 <1>                0.0000
     16 H16         28.7397  37.7865  37.3059 H              1 <1>                0.0000
     17 H17         26.2842  37.7774  37.4417 H              1 <1>                0.0000
     18 H18         25.1586  36.8223  39.4113 H              1 <1>                0.0000
     19 H19         25.3812  35.7434  41.5641 H              1 <1>                0.0000
     20 H20         26.8762  35.3731  42.2356 H              1 <1>                0.0000
     21 H21         30.0753  35.8161  41.1779 H              1 <1>                0.0000
@<TRIPOS>BOND
    1    1    2 1     
    2    1   11 1     
    3    1   12 1     
    4    1   13 1     
    5    2    3 1     
    6    2   14 1     
    7    2   15 1     
    8    3    4 ar    
    9    3    9 ar    
   10    4    5 ar    
   11    4   16 1     
   12    5    6 ar    
   13    5   17 1     
   14    6    7 ar    
   15    6   18 1     
   16    7    8 1     
   17    7    9 ar    
   18    8   19 1     
   19    8   20 1     
   20    9   10 1     
   21   10   21 1     
@<TRIPOS>SUBSTRUCTURE
      1 ****           1
@<TRIPOS>SET
DONOR_HYDROGENS      STATIC     ATOMS    <user>   **** ""
3 19 20 21
ATOM$RED        STATIC     ATOMS    COLORGROUP SYSTEM
3 19 20 21
@<TRIPOS>COMMENT
> <Gold.Version>
2022.2.0

> <Gold.Id.Protein>
1qkm|1qkm_protein|mol2

> <Gold.Protein.RotatedTorsions>
[  496  491  490  487 ] final   20.93 input  -89.99 | X-H torsion

> <Gold.Protein.ActiveResidues>
 MET295  LEU298  THR299  LEU301  ALA302  GLU305  TRP335  MET336  LEU339  MET340 
 GLY342  LEU343  ARG346  PHE356  ILE373  ILE376  PHE377  LEU380  LYS471  GLY472 
 MET473  HIS475  LEU476  LEU477  ASN478  MET479  VAL484  VAL487 

> <Gold.Protein.RotatedAtoms>
   36.3059   33.8974   42.3597 H   0  0  0  0  0  0  0  0  0  0  0  0  # atno 496  bound_to 491 

> <Gold.Score>
     Score     S(PLP)   S(hbond)     S(cho)   S(metal)  DE(clash)   DE(tors)     intcor
     36.29     -34.01       1.12       0.00       0.00       1.07       0.01       0.00

> <Gold.PLP.Fitness>
36.2856

> <Gold.PLP.PLP>
-34.0095

> <Gold.PLP.part.hbond>
-2.0000

> <Gold.PLP.part.metal>
0.0000

> <Gold.PLP.part.buried>
-3.9436

> <Gold.PLP.part.nonpolar>
-28.0346

> <Gold.PLP.part.repulsive>
0.0414

> <Gold.PLP.ligand.clash>
1.0656

> <Gold.PLP.ligand.torsion>
0.0120

> <Gold.PLP.Chemscore.Hbond>
1.1219

> <Gold.PLP.Chemscore.CHOScore>
0.0000

> <Gold.PLP.Chemscore.Metal>
0.0000

> <Gold.Chemscore.Hbonds>
donor molecule, donor type, donor heavy atom, donor atom, acceptor molecule, acceptor atom, score
      L1  H     8    20       P1   582  0.45
      L1  H    10    21       P1   470  0.67

> <Gold.PLP.Chemscore.Internal.Correction>
0.0000

