#       Name:                EN300-658808_i001
#       Creating user name   aseyller
#       Creation time:       Fri Apr 21 16:48:11 2023


#       File generated by GOLD software.
#

@<TRIPOS>MOLECULE
EN300-658808_i001|aminophenols|mol2|128|dock19
    21    21     1
SMALL
USER_CHARGES


@<TRIPOS>ATOM
      1 C1          30.5830  37.1367  38.4787 C.3            1 <1>                0.0000
      2 C2          30.0500  35.9523  39.2875 C.3            1 <1>                0.0000
      3 C3          28.6059  36.1959  39.6430 C.ar           1 <1>                0.0000
      4 C4          27.6383  36.1796  38.6546 C.ar           1 <1>                0.0000
      5 C5          26.3127  36.4022  38.9765 C.ar           1 <1>                0.0000
      6 C6          25.9470  36.6421  40.2880 C.ar           1 <1>                0.0000
      7 C7          26.9117  36.6600  41.2843 C.ar           1 <1>                0.0000
      8 N8          26.5441  36.9027  42.6127 N.pl3          1 <1>                0.0000
      9 C9          28.2474  36.4303  40.9597 C.ar           1 <1>                0.0000
     10 O10         29.1978  36.4466  41.9325 O.3            1 <1>                0.0000
     11 H11         31.6275  36.9603  38.2215 H              1 <1>                0.0000
     12 H12         29.9975  37.2461  37.5659 H              1 <1>                0.0000
     13 H13         30.5037  38.0473  39.0726 H              1 <1>                0.0000
     14 H14         30.1293  35.0417  38.6937 H              1 <1>                0.0000
     15 H15         30.6355  35.8428  40.2003 H              1 <1>                0.0000
     16 H16         27.9194  35.9929  37.6288 H              1 <1>                0.0000
     17 H17         25.5606  36.3889  38.2014 H              1 <1>                0.0000
     18 H18         24.9105  36.8160  40.5367 H              1 <1>                0.0000
     19 H19         25.6136  37.0588  42.8377 H              1 <1>                0.0000
     20 H20         27.2200  36.9151  43.3085 H              1 <1>                0.0000
     21 H21         30.0247  36.0124  41.6818 H              1 <1>                0.0000
@<TRIPOS>BOND
    1    1    2 1     
    2    1   11 1     
    3    1   12 1     
    4    1   13 1     
    5    2    3 1     
    6    2   14 1     
    7    2   15 1     
    8    3    4 ar    
    9    3    9 ar    
   10    4    5 ar    
   11    4   16 1     
   12    5    6 ar    
   13    5   17 1     
   14    6    7 ar    
   15    6   18 1     
   16    7    8 1     
   17    7    9 ar    
   18    8   19 1     
   19    8   20 1     
   20    9   10 1     
   21   10   21 1     
@<TRIPOS>SUBSTRUCTURE
      1 ****           1
@<TRIPOS>SET
DONOR_HYDROGENS      STATIC     ATOMS    <user>   **** ""
3 19 20 21
ATOM$RED        STATIC     ATOMS    COLORGROUP SYSTEM
3 19 20 21
@<TRIPOS>COMMENT
> <Gold.Version>
2022.2.0

> <Gold.Id.Protein>
1qkm|1qkm_protein|mol2

> <Gold.Protein.RotatedTorsions>
[  496  491  490  487 ] final  -58.00 input  -89.99 | X-H torsion

> <Gold.Protein.ActiveResidues>
 MET295  LEU298  THR299  LEU301  ALA302  GLU305  TRP335  MET336  LEU339  MET340 
 GLY342  LEU343  ARG346  PHE356  ILE373  ILE376  PHE377  LEU380  LYS471  GLY472 
 MET473  HIS475  LEU476  LEU477  ASN478  MET479  VAL484  VAL487 

> <Gold.Protein.RotatedAtoms>
   36.4818   34.7286   41.5136 H   0  0  0  0  0  0  0  0  0  0  0  0  # atno 496  bound_to 491 

> <Gold.Score>
     Score     S(PLP)   S(hbond)     S(cho)   S(metal)  DE(clash)   DE(tors)     intcor
     39.86     -37.04       0.99       0.00       0.00       0.00       0.08       0.00

> <Gold.PLP.Fitness>
39.8576

> <Gold.PLP.PLP>
-37.0372

> <Gold.PLP.part.hbond>
-2.0000

> <Gold.PLP.part.metal>
0.0000

> <Gold.PLP.part.buried>
-2.6672

> <Gold.PLP.part.nonpolar>
-32.7788

> <Gold.PLP.part.repulsive>
0.0836

> <Gold.PLP.ligand.clash>
0.0000

> <Gold.PLP.ligand.torsion>
0.0767

> <Gold.PLP.Chemscore.Hbond>
0.9913

> <Gold.PLP.Chemscore.CHOScore>
0.0000

> <Gold.PLP.Chemscore.Metal>
0.0000

> <Gold.Chemscore.Hbonds>
donor molecule, donor type, donor heavy atom, donor atom, acceptor molecule, acceptor atom, score
      L1  H    10    21       P1   470  0.99

> <Gold.PLP.Chemscore.Internal.Correction>
0.0000

