#       Name:                EN300-658808_i001
#       Creating user name   aseyller
#       Creation time:       Fri Apr 21 16:48:04 2023


#       File generated by GOLD software.
#

@<TRIPOS>MOLECULE
EN300-658808_i001|aminophenols|mol2|128|dock3
    21    21     1
SMALL
USER_CHARGES


@<TRIPOS>ATOM
      1 C1          30.7502  34.6492  38.7932 C.3            1 <1>                0.0000
      2 C2          30.5553  36.1346  39.1041 C.3            1 <1>                0.0000
      3 C3          29.0825  36.4380  39.2032 C.ar           1 <1>                0.0000
      4 C4          28.4104  36.9652  38.1152 C.ar           1 <1>                0.0000
      5 C5          27.0596  37.2445  38.2016 C.ar           1 <1>                0.0000
      6 C6          26.3730  36.9983  39.3762 C.ar           1 <1>                0.0000
      7 C7          27.0402  36.4698  40.4712 C.ar           1 <1>                0.0000
      8 N8          26.3475  36.2197  41.6613 N.pl3          1 <1>                0.0000
      9 C9          28.4011  36.1836  40.3815 C.ar           1 <1>                0.0000
     10 O10         29.0608  35.6651  41.4520 O.3            1 <1>                0.0000
     11 H11         31.8155  34.4298  38.7216 H              1 <1>                0.0000
     12 H12         30.3087  34.0503  39.5897 H              1 <1>                0.0000
     13 H13         30.2654  34.4094  37.8469 H              1 <1>                0.0000
     14 H14         31.0401  36.3744  40.0504 H              1 <1>                0.0000
     15 H15         30.9969  36.7335  38.3076 H              1 <1>                0.0000
     16 H16         28.9427  37.1595  37.1958 H              1 <1>                0.0000
     17 H17         26.5390  37.6564  37.3497 H              1 <1>                0.0000
     18 H18         25.3175  37.2178  39.4411 H              1 <1>                0.0000
     19 H19         25.3995  36.4160  41.7211 H              1 <1>                0.0000
     20 H20         26.8155  35.8502  42.4264 H              1 <1>                0.0000
     21 H21         30.0071  35.5323  41.3043 H              1 <1>                0.0000
@<TRIPOS>BOND
    1    1    2 1     
    2    1   11 1     
    3    1   12 1     
    4    1   13 1     
    5    2    3 1     
    6    2   14 1     
    7    2   15 1     
    8    3    4 ar    
    9    3    9 ar    
   10    4    5 ar    
   11    4   16 1     
   12    5    6 ar    
   13    5   17 1     
   14    6    7 ar    
   15    6   18 1     
   16    7    8 1     
   17    7    9 ar    
   18    8   19 1     
   19    8   20 1     
   20    9   10 1     
   21   10   21 1     
@<TRIPOS>SUBSTRUCTURE
      1 ****           1
@<TRIPOS>SET
DONOR_HYDROGENS      STATIC     ATOMS    <user>   **** ""
3 19 20 21
ATOM$RED        STATIC     ATOMS    COLORGROUP SYSTEM
3 19 20 21
@<TRIPOS>COMMENT
> <Gold.Version>
2022.2.0

> <Gold.Id.Protein>
1qkm|1qkm_protein|mol2

> <Gold.Protein.RotatedTorsions>
[  496  491  490  487 ] final  -77.77 input  -89.99 | X-H torsion

> <Gold.Protein.ActiveResidues>
 MET295  LEU298  THR299  LEU301  ALA302  GLU305  TRP335  MET336  LEU339  MET340 
 GLY342  LEU343  ARG346  PHE356  ILE373  ILE376  PHE377  LEU380  LYS471  GLY472 
 MET473  HIS475  LEU476  LEU477  ASN478  MET479  VAL484  VAL487 

> <Gold.Protein.RotatedAtoms>
   36.6460   34.7144   41.2349 H   0  0  0  0  0  0  0  0  0  0  0  0  # atno 496  bound_to 491 

> <Gold.Score>
     Score     S(PLP)   S(hbond)     S(cho)   S(metal)  DE(clash)   DE(tors)     intcor
     40.45     -36.58       1.50       0.00       0.00       0.00       0.32       0.00

> <Gold.PLP.Fitness>
40.4527

> <Gold.PLP.PLP>
-36.5797

> <Gold.PLP.part.hbond>
-2.0000

> <Gold.PLP.part.metal>
0.0000

> <Gold.PLP.part.buried>
-4.0002

> <Gold.PLP.part.nonpolar>
-31.3199

> <Gold.PLP.part.repulsive>
0.0580

> <Gold.PLP.ligand.clash>
0.0000

> <Gold.PLP.ligand.torsion>
0.3195

> <Gold.PLP.Chemscore.Hbond>
1.5040

> <Gold.PLP.Chemscore.CHOScore>
0.0000

> <Gold.PLP.Chemscore.Metal>
0.0000

> <Gold.Chemscore.Hbonds>
donor molecule, donor type, donor heavy atom, donor atom, acceptor molecule, acceptor atom, score
      L1  H     8    20       P1   582  0.54
      L1  H    10    21       P1   470  0.96

> <Gold.PLP.Chemscore.Internal.Correction>
0.0000

