#       Name:                plp ligand
#       Creating user name   aseyller
#       Creation time:       Fri Apr 21 16:48:03 2023


#       File generated by GOLD software.
#

@<TRIPOS>MOLECULE
plp ligand
    21    21     1
SMALL
USER_CHARGES


@<TRIPOS>ATOM
      1 C1           2.6358  -0.3547  -0.6968 NONPOLAR       1 <1>                0.0000
      2 C2           1.9526  -0.0465   0.6371 NONPOLAR       1 <1>                0.0000
      3 C3           0.5136   0.3269   0.3900 NONPOLAR       1 <1>                0.0000
      4 C4           0.1545   1.6579   0.2758 NONPOLAR       1 <1>                0.0000
      5 C5          -1.1640   2.0047   0.0487 NONPOLAR       1 <1>                0.0000
      6 C6          -2.1308   1.0230  -0.0656 NONPOLAR       1 <1>                0.0000
      7 C7          -1.7782  -0.3135   0.0478 NONPOLAR       1 <1>                0.0000
      8 N8          -2.7550  -1.3092  -0.0674 DONOR          1 <1>                0.0000
      9 C9          -0.4477  -0.6626   0.2716 NONPOLAR       1 <1>                0.0000
     10 O10         -0.0959  -1.9716   0.3836 DONACC         1 <1>                0.0000
     11 H11          3.6766  -0.6248  -0.5180                1 <1>                0.0000
     12 H12          2.1237  -1.1843  -1.1841                1 <1>                0.0000
     13 H13          2.5939   0.5255  -1.3384                1 <1>                0.0000
     14 H14          1.9945  -0.9266   1.2787                1 <1>                0.0000
     15 H15          2.4647   0.7831   1.1245                1 <1>                0.0000
     16 H16          0.9063   2.4281   0.3647                1 <1>                0.0000
     17 H17         -1.4398   3.0452  -0.0394                1 <1>                0.0000
     18 H18         -3.1604   1.2968  -0.2427                1 <1>                0.0000
     19 H19         -3.6801  -1.0649  -0.2268                1 <1>                0.0000
     20 H20         -2.5069  -2.2436   0.0123                1 <1>                0.0000
     21 H21          0.1425  -2.3881  -0.4559                1 <1>                0.0000
@<TRIPOS>BOND
    1    1    2 1     
    2    1   11 1     
    3    1   12 1     
    4    1   13 1     
    5    2    3 1     
    6    2   14 1     
    7    2   15 1     
    8    3    4 ar    
    9    3    9 ar    
   10    4    5 ar    
   11    4   16 1     
   12    5    6 ar    
   13    5   17 1     
   14    6    7 ar    
   15    6   18 1     
   16    7    8 1     
   17    7    9 ar    
   18    8   19 1     
   19    8   20 1     
   20    9   10 1     
   21   10   21 1     
@<TRIPOS>SUBSTRUCTURE
      1 ****           1
@<TRIPOS>SET
DONOR_HYDROGENS      STATIC     ATOMS    <user>   **** ""
3 19 20 21
ATOM$RED        STATIC     ATOMS    COLORGROUP SYSTEM
3 19 20 21
