#       Name:                EN300-130436_i001
#       Creating user name   aseyller
#       Creation time:       Fri Apr 21 19:14:37 2023


#       File generated by GOLD software.
#

@<TRIPOS>MOLECULE
EN300-130436_i001|benzaldehydes|mol2|763|dock16
    29    30     1
SMALL
USER_CHARGES


@<TRIPOS>ATOM
      1 O1          29.7019  35.8867  40.0930 O.3            1 <1>                0.0000
      2 C2          28.9271  36.6459  39.2792 C.ar           1 <1>                0.0000
      3 C3          29.5048  37.4010  38.2731 C.ar           1 <1>                0.0000
      4 C4          28.7068  38.1758  37.4439 C.ar           1 <1>                0.0000
      5 O5          29.2752  38.9146  36.4582 O.3            1 <1>                0.0000
      6 C6          30.6117  39.3702  36.6776 C.3            1 <1>                0.0000
      7 C7          31.5842  38.3470  36.1498 C.ar           1 <1>                0.0000
      8 C8          32.2567  37.5161  37.0262 C.ar           1 <1>                0.0000
      9 C9          33.1488  36.5777  36.5421 C.ar           1 <1>                0.0000
     10 C10         33.3679  36.4698  35.1815 C.ar           1 <1>                0.0000
     11 C11         32.6947  37.3000  34.3050 C.ar           1 <1>                0.0000
     12 C12         31.7995  38.2356  34.7888 C.ar           1 <1>                0.0000
     13 C13         27.3251  38.1984  37.6177 C.ar           1 <1>                0.0000
     14 C14         26.7412  37.4599  38.6052 C.ar           1 <1>                0.0000
     15 C15         27.5310  36.6663  39.4486 C.ar           1 <1>                0.0000
     16 C16         26.9065  35.8721  40.5093 C.2            1 <1>                0.0000
     17 O17         25.7771  36.1262  40.8726 O.2            1 <1>                0.0000
     18 H18         30.5758  37.3873  38.1342 H              1 <1>                0.0000
     19 H19         30.7628  40.3167  36.1585 H              1 <1>                0.0000
     20 H20         30.7768  39.5113  37.7458 H              1 <1>                0.0000
     21 H21         32.0855  37.6005  38.0893 H              1 <1>                0.0000
     22 H22         33.6749  35.9290  37.2269 H              1 <1>                0.0000
     23 H23         34.0655  35.7371  34.8034 H              1 <1>                0.0000
     24 H24         32.8662  37.2160  33.2420 H              1 <1>                0.0000
     25 H25         31.2735  38.8843  34.1040 H              1 <1>                0.0000
     26 H26         26.7121  38.8045  36.9672 H              1 <1>                0.0000
     27 H27         25.6692  37.4830  38.7340 H              1 <1>                0.0000
     28 H28         27.4515  35.0603  40.9681 H              1 <1>                0.0000
     29 H29         29.2154  35.4540  40.8080 H              1 <1>                0.0000
@<TRIPOS>BOND
    1    1    2 1     
    2    1   29 1     
    3    2    3 ar    
    4    2   15 ar    
    5    3    4 ar    
    6    3   18 1     
    7    4    5 1     
    8    4   13 ar    
    9    5    6 1     
   10    6    7 1     
   11    6   19 1     
   12    6   20 1     
   13    7    8 ar    
   14    7   12 ar    
   15    8    9 ar    
   16    8   21 1     
   17    9   10 ar    
   18    9   22 1     
   19   10   11 ar    
   20   10   23 1     
   21   11   12 ar    
   22   11   24 1     
   23   12   25 1     
   24   13   14 ar    
   25   13   26 1     
   26   14   15 ar    
   27   14   27 1     
   28   15   16 1     
   29   16   17 2     
   30   16   28 1     
@<TRIPOS>SUBSTRUCTURE
      1 ****           1
@<TRIPOS>SET
DONOR_HYDROGENS      STATIC     ATOMS    <user>   **** ""
1 29
ATOM$RED        STATIC     ATOMS    COLORGROUP SYSTEM
1 29
@<TRIPOS>COMMENT
> <Gold.Version>
2022.2.0

> <Gold.Id.Protein>
1qkm|1qkm_protein|mol2

> <Gold.Protein.RotatedTorsions>
[  496  491  490  487 ] final   99.45 input  -89.99 | X-H torsion

> <Gold.Protein.ActiveResidues>
 MET295  LEU298  THR299  LEU301  ALA302  GLU305  TRP335  MET336  LEU339  MET340 
 GLY342  LEU343  ARG346  PHE356  ILE373  ILE376  PHE377  LEU380  LYS471  GLY472 
 MET473  HIS475  LEU476  LEU477  ASN478  MET479  VAL484  VAL487 

> <Gold.Protein.RotatedAtoms>
   36.9067   32.9713   41.9055 H   0  0  0  0  0  0  0  0  0  0  0  0  # atno 496  bound_to 491 

> <Gold.Score>
     Score     S(PLP)   S(hbond)     S(cho)   S(metal)  DE(clash)   DE(tors)     intcor
     55.32     -56.29       0.00       0.00       0.00       0.00       0.84       0.72

> <Gold.PLP.Fitness>
55.3233

> <Gold.PLP.PLP>
-56.2903

> <Gold.PLP.part.hbond>
-1.0000

> <Gold.PLP.part.metal>
0.0000

> <Gold.PLP.part.buried>
-4.2949

> <Gold.PLP.part.nonpolar>
-51.9010

> <Gold.PLP.part.repulsive>
0.2026

> <Gold.PLP.ligand.clash>
0.0000

> <Gold.PLP.ligand.torsion>
0.8413

> <Gold.PLP.Chemscore.Hbond>
0.0000

> <Gold.PLP.Chemscore.CHOScore>
0.0000

> <Gold.PLP.Chemscore.Metal>
0.0000

> <Gold.PLP.Chemscore.Internal.Correction>
0.7156

