#       Name:                EN300-130436_i001
#       Creating user name   aseyller
#       Creation time:       Fri Apr 21 19:14:39 2023


#       File generated by GOLD software.
#

@<TRIPOS>MOLECULE
EN300-130436_i001|benzaldehydes|mol2|763|dock17
    29    30     1
SMALL
USER_CHARGES


@<TRIPOS>ATOM
      1 O1          27.8740  35.4682  42.4015 O.3            1 <1>                0.0000
      2 C2          27.9385  35.9326  41.1291 C.ar           1 <1>                0.0000
      3 C3          29.1449  35.9385  40.4503 C.ar           1 <1>                0.0000
      4 C4          29.2045  36.4149  39.1487 C.ar           1 <1>                0.0000
      5 O5          30.3879  36.4193  38.4852 O.3            1 <1>                0.0000
      6 C6          30.3311  36.4529  37.0577 C.3            1 <1>                0.0000
      7 C7          30.3804  37.8835  36.5865 C.ar           1 <1>                0.0000
      8 C8          30.0027  38.9050  37.4379 C.ar           1 <1>                0.0000
      9 C9          30.0478  40.2172  37.0057 C.ar           1 <1>                0.0000
     10 C10         30.4711  40.5080  35.7222 C.ar           1 <1>                0.0000
     11 C11         30.8497  39.4867  34.8712 C.ar           1 <1>                0.0000
     12 C12         30.8086  38.1748  35.3048 C.ar           1 <1>                0.0000
     13 C13         28.0556  36.8881  38.5195 C.ar           1 <1>                0.0000
     14 C14         26.8595  36.8890  39.1757 C.ar           1 <1>                0.0000
     15 C15         26.7789  36.4057  40.4890 C.ar           1 <1>                0.0000
     16 C16         25.4958  36.4051  41.1957 C.2            1 <1>                0.0000
     17 O17         25.1250  37.4013  41.7808 O.2            1 <1>                0.0000
     18 H18         30.0389  35.5729  40.9337 H              1 <1>                0.0000
     19 H19         31.1797  35.9058  36.6473 H              1 <1>                0.0000
     20 H20         29.4033  35.9909  36.7200 H              1 <1>                0.0000
     21 H21         29.6719  38.6778  38.4406 H              1 <1>                0.0000
     22 H22         29.7520  41.0153  37.6705 H              1 <1>                0.0000
     23 H23         30.5057  41.5332  35.3843 H              1 <1>                0.0000
     24 H24         31.1801  39.7138  33.8684 H              1 <1>                0.0000
     25 H25         31.1044  37.3767  34.6399 H              1 <1>                0.0000
     26 H26         28.1119  37.2570  37.5060 H              1 <1>                0.0000
     27 H27         25.9731  37.2579  38.6812 H              1 <1>                0.0000
     28 H28         24.8799  35.5180  41.1961 H              1 <1>                0.0000
     29 H29         26.9733  35.3226  42.7219 H              1 <1>                0.0000
@<TRIPOS>BOND
    1    1    2 1     
    2    1   29 1     
    3    2    3 ar    
    4    2   15 ar    
    5    3    4 ar    
    6    3   18 1     
    7    4    5 1     
    8    4   13 ar    
    9    5    6 1     
   10    6    7 1     
   11    6   19 1     
   12    6   20 1     
   13    7    8 ar    
   14    7   12 ar    
   15    8    9 ar    
   16    8   21 1     
   17    9   10 ar    
   18    9   22 1     
   19   10   11 ar    
   20   10   23 1     
   21   11   12 ar    
   22   11   24 1     
   23   12   25 1     
   24   13   14 ar    
   25   13   26 1     
   26   14   15 ar    
   27   14   27 1     
   28   15   16 1     
   29   16   17 2     
   30   16   28 1     
@<TRIPOS>SUBSTRUCTURE
      1 ****           1
@<TRIPOS>SET
DONOR_HYDROGENS      STATIC     ATOMS    <user>   **** ""
1 29
ATOM$RED        STATIC     ATOMS    COLORGROUP SYSTEM
1 29
@<TRIPOS>COMMENT
> <Gold.Version>
2022.2.0

> <Gold.Id.Protein>
1qkm|1qkm_protein|mol2

> <Gold.Protein.RotatedTorsions>
[  496  491  490  487 ] final   93.38 input  -89.99 | X-H torsion

> <Gold.Protein.ActiveResidues>
 MET295  LEU298  THR299  LEU301  ALA302  GLU305  TRP335  MET336  LEU339  MET340 
 GLY342  LEU343  ARG346  PHE356  ILE373  ILE376  PHE377  LEU380  LYS471  GLY472 
 MET473  HIS475  LEU476  LEU477  ASN478  MET479  VAL484  VAL487 

> <Gold.Protein.RotatedAtoms>
   36.8514   33.0012   41.9831 H   0  0  0  0  0  0  0  0  0  0  0  0  # atno 496  bound_to 491 

> <Gold.Score>
     Score     S(PLP)   S(hbond)     S(cho)   S(metal)  DE(clash)   DE(tors)     intcor
     55.92     -55.50       1.09       0.00       0.00       0.39       1.59       0.72

> <Gold.PLP.Fitness>
55.9163

> <Gold.PLP.PLP>
-55.5012

> <Gold.PLP.part.hbond>
-1.6955

> <Gold.PLP.part.metal>
0.0000

> <Gold.PLP.part.buried>
-2.9185

> <Gold.PLP.part.nonpolar>
-51.4055

> <Gold.PLP.part.repulsive>
0.2867

> <Gold.PLP.ligand.clash>
0.3872

> <Gold.PLP.ligand.torsion>
1.5886

> <Gold.PLP.Chemscore.Hbond>
1.0880

> <Gold.PLP.Chemscore.CHOScore>
0.0000

> <Gold.PLP.Chemscore.Metal>
0.0000

> <Gold.Chemscore.Hbonds>
donor molecule, donor type, donor heavy atom, donor atom, acceptor molecule, acceptor atom, score
      L1  H     1    29       P1   582  0.90
      P1  H  1258  1270       L1    17  0.19

> <Gold.PLP.Chemscore.Internal.Correction>
0.7156

