#       Name:                EN300-130436_i001
#       Creating user name   aseyller
#       Creation time:       Fri Apr 21 19:14:24 2023


#       File generated by GOLD software.
#

@<TRIPOS>MOLECULE
EN300-130436_i001|benzaldehydes|mol2|763|dock5
    29    30     1
SMALL
USER_CHARGES


@<TRIPOS>ATOM
      1 O1          27.4648  36.7065  42.4457 O.3            1 <1>                0.0000
      2 C2          27.7894  36.5873  41.1345 C.ar           1 <1>                0.0000
      3 C3          29.1043  36.3715  40.7594 C.ar           1 <1>                0.0000
      4 C4          29.4302  36.2506  39.4163 C.ar           1 <1>                0.0000
      5 O5          30.7195  36.0387  39.0512 O.3            1 <1>                0.0000
      6 C6          30.9399  35.2998  37.8480 C.3            1 <1>                0.0000
      7 C7          31.5462  36.2048  36.8067 C.ar           1 <1>                0.0000
      8 C8          30.9139  37.3854  36.4643 C.ar           1 <1>                0.0000
      9 C9          31.4699  38.2155  35.5090 C.ar           1 <1>                0.0000
     10 C10         32.6587  37.8652  34.8965 C.ar           1 <1>                0.0000
     11 C11         33.2914  36.6851  35.2394 C.ar           1 <1>                0.0000
     12 C12         32.7376  35.8570  36.1978 C.ar           1 <1>                0.0000
     13 C13         28.4404  36.3449  38.4411 C.ar           1 <1>                0.0000
     14 C14         27.1402  36.5578  38.7951 C.ar           1 <1>                0.0000
     15 C15         26.7913  36.6763  40.1476 C.ar           1 <1>                0.0000
     16 C16         25.3958  36.9045  40.5305 C.2            1 <1>                0.0000
     17 O17         25.0952  36.9943  41.7026 O.2            1 <1>                0.0000
     18 H18         29.8758  36.2979  41.5117 H              1 <1>                0.0000
     19 H19         31.6192  34.4715  38.0495 H              1 <1>                0.0000
     20 H20         29.9901  34.9098  37.4819 H              1 <1>                0.0000
     21 H21         29.9852  37.6591  36.9430 H              1 <1>                0.0000
     22 H22         30.9756  39.1376  35.2410 H              1 <1>                0.0000
     23 H23         33.0927  38.5134  34.1496 H              1 <1>                0.0000
     24 H24         34.2199  36.4112  34.7606 H              1 <1>                0.0000
     25 H25         33.2319  34.9350  36.4658 H              1 <1>                0.0000
     26 H26         28.7037  36.2494  37.3981 H              1 <1>                0.0000
     27 H27         26.3784  36.6302  38.0330 H              1 <1>                0.0000
     28 H28         24.6346  36.9927  39.7695 H              1 <1>                0.0000
     29 H29         26.9330  35.9746  42.7873 H              1 <1>                0.0000
@<TRIPOS>BOND
    1    1    2 1     
    2    1   29 1     
    3    2    3 ar    
    4    2   15 ar    
    5    3    4 ar    
    6    3   18 1     
    7    4    5 1     
    8    4   13 ar    
    9    5    6 1     
   10    6    7 1     
   11    6   19 1     
   12    6   20 1     
   13    7    8 ar    
   14    7   12 ar    
   15    8    9 ar    
   16    8   21 1     
   17    9   10 ar    
   18    9   22 1     
   19   10   11 ar    
   20   10   23 1     
   21   11   12 ar    
   22   11   24 1     
   23   12   25 1     
   24   13   14 ar    
   25   13   26 1     
   26   14   15 ar    
   27   14   27 1     
   28   15   16 1     
   29   16   17 2     
   30   16   28 1     
@<TRIPOS>SUBSTRUCTURE
      1 ****           1
@<TRIPOS>SET
DONOR_HYDROGENS      STATIC     ATOMS    <user>   **** ""
1 29
ATOM$RED        STATIC     ATOMS    COLORGROUP SYSTEM
1 29
@<TRIPOS>COMMENT
> <Gold.Version>
2022.2.0

> <Gold.Id.Protein>
1qkm|1qkm_protein|mol2

> <Gold.Protein.RotatedTorsions>
[  496  491  490  487 ] final  155.93 input  -89.99 | X-H torsion

> <Gold.Protein.ActiveResidues>
 MET295  LEU298  THR299  LEU301  ALA302  GLU305  TRP335  MET336  LEU339  MET340 
 GLY342  LEU343  ARG346  PHE356  ILE373  ILE376  PHE377  LEU380  LYS471  GLY472 
 MET473  HIS475  LEU476  LEU477  ASN478  MET479  VAL484  VAL487 

> <Gold.Protein.RotatedAtoms>
   37.2847   33.1616   41.1197 H   0  0  0  0  0  0  0  0  0  0  0  0  # atno 496  bound_to 491 

> <Gold.Score>
     Score     S(PLP)   S(hbond)     S(cho)   S(metal)  DE(clash)   DE(tors)     intcor
     59.14     -55.70       1.42       0.00       0.00       0.00       0.76       0.72

> <Gold.PLP.Fitness>
59.1412

> <Gold.PLP.PLP>
-55.6972

> <Gold.PLP.part.hbond>
-2.0000

> <Gold.PLP.part.metal>
0.0000

> <Gold.PLP.part.buried>
-1.2905

> <Gold.PLP.part.nonpolar>
-52.6539

> <Gold.PLP.part.repulsive>
0.3539

> <Gold.PLP.ligand.clash>
0.0001

> <Gold.PLP.ligand.torsion>
0.7611

> <Gold.PLP.Chemscore.Hbond>
1.4160

> <Gold.PLP.Chemscore.CHOScore>
0.0000

> <Gold.PLP.Chemscore.Metal>
0.0000

> <Gold.Chemscore.Hbonds>
donor molecule, donor type, donor heavy atom, donor atom, acceptor molecule, acceptor atom, score
      L1  H     1    29       P1   582  1.00
      P1  H  1258  1270       L1    17  0.42

> <Gold.PLP.Chemscore.Internal.Correction>
0.7183

