#       Name:                EN300-130436_i001
#       Creating user name   aseyller
#       Creation time:       Fri Apr 21 19:14:40 2023


#       File generated by GOLD software.
#

@<TRIPOS>MOLECULE
EN300-130436_i001|benzaldehydes|mol2|763|dock18
    29    30     1
SMALL
USER_CHARGES


@<TRIPOS>ATOM
      1 O1          25.2261  37.3001  39.0595 O.3            1 <1>                0.0000
      2 C2          26.5744  37.2768  38.9170 C.ar           1 <1>                0.0000
      3 C3          27.1772  37.9685  37.8804 C.ar           1 <1>                0.0000
      4 C4          28.5571  37.9407  37.7398 C.ar           1 <1>                0.0000
      5 O5          29.1457  38.6197  36.7234 O.3            1 <1>                0.0000
      6 C6          30.4655  39.1167  36.9538 C.3            1 <1>                0.0000
      7 C7          31.4656  38.2250  36.2639 C.ar           1 <1>                0.0000
      8 C8          31.7550  38.4167  34.9258 C.ar           1 <1>                0.0000
      9 C9          32.6722  37.5988  34.2929 C.ar           1 <1>                0.0000
     10 C10         33.3005  36.5895  34.9983 C.ar           1 <1>                0.0000
     11 C11         33.0118  36.3984  36.3366 C.ar           1 <1>                0.0000
     12 C12         32.0978  37.2190  36.9705 C.ar           1 <1>                0.0000
     13 C13         29.3413  37.2199  38.6372 C.ar           1 <1>                0.0000
     14 C14         28.7617  36.5330  39.6636 C.ar           1 <1>                0.0000
     15 C15         27.3694  36.5546  39.8250 C.ar           1 <1>                0.0000
     16 C16         26.7447  35.8182  40.9265 C.2            1 <1>                0.0000
     17 O17         25.6174  36.0957  41.2795 O.2            1 <1>                0.0000
     18 H18         26.5737  38.5287  37.1816 H              1 <1>                0.0000
     19 H19         30.5470  40.1288  36.5575 H              1 <1>                0.0000
     20 H20         30.6675  39.1285  38.0249 H              1 <1>                0.0000
     21 H21         31.2640  39.2053  34.3747 H              1 <1>                0.0000
     22 H22         32.8977  37.7481  33.2474 H              1 <1>                0.0000
     23 H23         34.0166  35.9500  34.5037 H              1 <1>                0.0000
     24 H24         33.5024  35.6096  36.8876 H              1 <1>                0.0000
     25 H25         31.8722  37.0697  38.0161 H              1 <1>                0.0000
     26 H26         30.4147  37.2043  38.5197 H              1 <1>                0.0000
     27 H27         29.3765  35.9761  40.3551 H              1 <1>                0.0000
     28 H28         27.2874  35.0284  41.4245 H              1 <1>                0.0000
     29 H29         24.7451  36.9155  38.3139 H              1 <1>                0.0000
@<TRIPOS>BOND
    1    1    2 1     
    2    1   29 1     
    3    2    3 ar    
    4    2   15 ar    
    5    3    4 ar    
    6    3   18 1     
    7    4    5 1     
    8    4   13 ar    
    9    5    6 1     
   10    6    7 1     
   11    6   19 1     
   12    6   20 1     
   13    7    8 ar    
   14    7   12 ar    
   15    8    9 ar    
   16    8   21 1     
   17    9   10 ar    
   18    9   22 1     
   19   10   11 ar    
   20   10   23 1     
   21   11   12 ar    
   22   11   24 1     
   23   12   25 1     
   24   13   14 ar    
   25   13   26 1     
   26   14   15 ar    
   27   14   27 1     
   28   15   16 1     
   29   16   17 2     
   30   16   28 1     
@<TRIPOS>SUBSTRUCTURE
      1 ****           1
@<TRIPOS>SET
DONOR_HYDROGENS      STATIC     ATOMS    <user>   **** ""
1 29
ATOM$RED        STATIC     ATOMS    COLORGROUP SYSTEM
1 29
@<TRIPOS>COMMENT
> <Gold.Version>
2022.2.0

> <Gold.Id.Protein>
1qkm|1qkm_protein|mol2

> <Gold.Protein.RotatedTorsions>
[  496  491  490  487 ] final  -83.35 input  -89.99 | X-H torsion

> <Gold.Protein.ActiveResidues>
 MET295  LEU298  THR299  LEU301  ALA302  GLU305  TRP335  MET336  LEU339  MET340 
 GLY342  LEU343  ARG346  PHE356  ILE373  ILE376  PHE377  LEU380  LYS471  GLY472 
 MET473  HIS475  LEU476  LEU477  ASN478  MET479  VAL484  VAL487 

> <Gold.Protein.RotatedAtoms>
   36.6962   34.6914   41.1617 H   0  0  0  0  0  0  0  0  0  0  0  0  # atno 496  bound_to 491 

> <Gold.Score>
     Score     S(PLP)   S(hbond)     S(cho)   S(metal)  DE(clash)   DE(tors)     intcor
     53.98     -55.46       0.00       0.00       0.00       0.00       1.10       0.72

> <Gold.PLP.Fitness>
53.9785

> <Gold.PLP.PLP>
-55.4597

> <Gold.PLP.part.hbond>
-0.7440

> <Gold.PLP.part.metal>
0.0000

> <Gold.PLP.part.buried>
-3.0912

> <Gold.PLP.part.nonpolar>
-52.6635

> <Gold.PLP.part.repulsive>
1.2470

> <Gold.PLP.ligand.clash>
0.0000

> <Gold.PLP.ligand.torsion>
1.0984

> <Gold.PLP.Chemscore.Hbond>
0.0000

> <Gold.PLP.Chemscore.CHOScore>
0.0000

> <Gold.PLP.Chemscore.Metal>
0.0000

> <Gold.PLP.Chemscore.Internal.Correction>
0.7156

