#       Name:                EN300-130436_i001
#       Creating user name   aseyller
#       Creation time:       Fri Apr 21 19:14:29 2023


#       File generated by GOLD software.
#

@<TRIPOS>MOLECULE
EN300-130436_i001|benzaldehydes|mol2|763|dock9
    29    30     1
SMALL
USER_CHARGES


@<TRIPOS>ATOM
      1 O1          29.1530  36.5262  42.2822 O.3            1 <1>                0.0000
      2 C2          28.6336  36.4963  41.0300 C.ar           1 <1>                0.0000
      3 C3          29.4585  36.2835  39.9388 C.ar           1 <1>                0.0000
      4 C4          28.9211  36.2541  38.6601 C.ar           1 <1>                0.0000
      5 O5          29.7314  36.0449  37.5923 O.3            1 <1>                0.0000
      6 C6          31.0941  36.4552  37.7218 C.3            1 <1>                0.0000
      7 C7          31.5589  37.0698  36.4267 C.ar           1 <1>                0.0000
      8 C8          30.8789  38.1468  35.8895 C.ar           1 <1>                0.0000
      9 C9          31.3052  38.7105  34.7015 C.ar           1 <1>                0.0000
     10 C10         32.4118  38.1976  34.0509 C.ar           1 <1>                0.0000
     11 C11         33.0924  37.1212  34.5886 C.ar           1 <1>                0.0000
     12 C12         32.6687  36.5601  35.7787 C.ar           1 <1>                0.0000
     13 C13         27.5541  36.4376  38.4671 C.ar           1 <1>                0.0000
     14 C14         26.7285  36.6488  39.5326 C.ar           1 <1>                0.0000
     15 C15         27.2527  36.6755  40.8324 C.ar           1 <1>                0.0000
     16 C16         26.3684  36.9016  41.9781 C.2            1 <1>                0.0000
     17 O17         25.1733  37.0234  41.8074 O.2            1 <1>                0.0000
     18 H18         30.5193  36.1410  40.0829 H              1 <1>                0.0000
     19 H19         31.1780  37.1893  38.5230 H              1 <1>                0.0000
     20 H20         31.7136  35.5894  37.9560 H              1 <1>                0.0000
     21 H21         30.0143  38.5475  36.3977 H              1 <1>                0.0000
     22 H22         30.7735  39.5515  34.2813 H              1 <1>                0.0000
     23 H23         32.7444  38.6376  33.1224 H              1 <1>                0.0000
     24 H24         33.9567  36.7202  34.0801 H              1 <1>                0.0000
     25 H25         33.2003  35.7192  36.1989 H              1 <1>                0.0000
     26 H26         27.1450  36.4129  37.4680 H              1 <1>                0.0000
     27 H27         25.6696  36.7906  39.3748 H              1 <1>                0.0000
     28 H28         26.7802  36.9601  42.9748 H              1 <1>                0.0000
     29 H29         30.0113  36.0879  42.3626 H              1 <1>                0.0000
@<TRIPOS>BOND
    1    1    2 1     
    2    1   29 1     
    3    2    3 ar    
    4    2   15 ar    
    5    3    4 ar    
    6    3   18 1     
    7    4    5 1     
    8    4   13 ar    
    9    5    6 1     
   10    6    7 1     
   11    6   19 1     
   12    6   20 1     
   13    7    8 ar    
   14    7   12 ar    
   15    8    9 ar    
   16    8   21 1     
   17    9   10 ar    
   18    9   22 1     
   19   10   11 ar    
   20   10   23 1     
   21   11   12 ar    
   22   11   24 1     
   23   12   25 1     
   24   13   14 ar    
   25   13   26 1     
   26   14   15 ar    
   27   14   27 1     
   28   15   16 1     
   29   16   17 2     
   30   16   28 1     
@<TRIPOS>SUBSTRUCTURE
      1 ****           1
@<TRIPOS>SET
DONOR_HYDROGENS      STATIC     ATOMS    <user>   **** ""
1 29
ATOM$RED        STATIC     ATOMS    COLORGROUP SYSTEM
1 29
@<TRIPOS>COMMENT
> <Gold.Version>
2022.2.0

> <Gold.Id.Protein>
1qkm|1qkm_protein|mol2

> <Gold.Protein.RotatedTorsions>
[  496  491  490  487 ] final  -86.27 input  -89.99 | X-H torsion

> <Gold.Protein.ActiveResidues>
 MET295  LEU298  THR299  LEU301  ALA302  GLU305  TRP335  MET336  LEU339  MET340 
 GLY342  LEU343  ARG346  PHE356  ILE373  ILE376  PHE377  LEU380  LYS471  GLY472 
 MET473  HIS475  LEU476  LEU477  ASN478  MET479  VAL484  VAL487 

> <Gold.Protein.RotatedAtoms>
   36.7229   34.6761   41.1248 H   0  0  0  0  0  0  0  0  0  0  0  0  # atno 496  bound_to 491 

> <Gold.Score>
     Score     S(PLP)   S(hbond)     S(cho)   S(metal)  DE(clash)   DE(tors)     intcor
     58.77     -55.39       1.33       0.00       0.00       0.00       0.66       0.72

> <Gold.PLP.Fitness>
58.7675

> <Gold.PLP.PLP>
-55.3896

> <Gold.PLP.part.hbond>
-2.0000

> <Gold.PLP.part.metal>
0.0000

> <Gold.PLP.part.buried>
-0.5416

> <Gold.PLP.part.nonpolar>
-54.0885

> <Gold.PLP.part.repulsive>
0.2699

> <Gold.PLP.ligand.clash>
0.0000

> <Gold.PLP.ligand.torsion>
0.6603

> <Gold.PLP.Chemscore.Hbond>
1.3268

> <Gold.PLP.Chemscore.CHOScore>
0.0000

> <Gold.PLP.Chemscore.Metal>
0.0000

> <Gold.Chemscore.Hbonds>
donor molecule, donor type, donor heavy atom, donor atom, acceptor molecule, acceptor atom, score
      L1  H     1    29       P1   470  0.96
      P1  H  1258  1270       L1    17  0.37

> <Gold.PLP.Chemscore.Internal.Correction>
0.7183

