#       Name:                EN300-130436_i001
#       Creating user name   aseyller
#       Creation time:       Fri Apr 21 19:14:43 2023


#       File generated by GOLD software.
#

@<TRIPOS>MOLECULE
EN300-130436_i001|benzaldehydes|mol2|763|dock20
    29    30     1
SMALL
USER_CHARGES


@<TRIPOS>ATOM
      1 O1          25.6720  37.5886  38.7061 O.3            1 <1>                0.0000
      2 C2          26.7985  37.1745  39.3373 C.ar           1 <1>                0.0000
      3 C3          27.9807  37.0335  38.6311 C.ar           1 <1>                0.0000
      4 C4          29.1298  36.6093  39.2825 C.ar           1 <1>                0.0000
      5 O5          30.2874  36.4723  38.5884 O.3            1 <1>                0.0000
      6 C6          30.3523  37.0979  37.3053 C.3            1 <1>                0.0000
      7 C7          31.6872  36.8046  36.6703 C.ar           1 <1>                0.0000
      8 C8          32.6334  36.0689  37.3590 C.ar           1 <1>                0.0000
      9 C9          33.8579  35.8000  36.7767 C.ar           1 <1>                0.0000
     10 C10         34.1359  36.2663  35.5053 C.ar           1 <1>                0.0000
     11 C11         33.1894  37.0012  34.8163 C.ar           1 <1>                0.0000
     12 C12         31.9634  37.2665  35.3970 C.ar           1 <1>                0.0000
     13 C13         29.1012  36.3240  40.6454 C.ar           1 <1>                0.0000
     14 C14         27.9436  36.4578  41.3548 C.ar           1 <1>                0.0000
     15 C15         26.7741  36.8912  40.7148 C.ar           1 <1>                0.0000
     16 C16         25.5299  37.0361  41.4742 C.2            1 <1>                0.0000
     17 O17         25.5462  37.5504  42.5731 O.2            1 <1>                0.0000
     18 H18         28.0082  37.2531  37.5740 H              1 <1>                0.0000
     19 H19         29.5553  36.7100  36.6711 H              1 <1>                0.0000
     20 H20         30.2335  38.1754  37.4200 H              1 <1>                0.0000
     21 H21         32.4161  35.7046  38.3523 H              1 <1>                0.0000
     22 H22         34.5975  35.2258  37.3150 H              1 <1>                0.0000
     23 H23         35.0929  36.0567  35.0507 H              1 <1>                0.0000
     24 H24         33.4068  37.3659  33.8232 H              1 <1>                0.0000
     25 H25         31.2238  37.8407  34.8587 H              1 <1>                0.0000
     26 H26         30.0009  35.9945  41.1438 H              1 <1>                0.0000
     27 H27         27.9293  36.2343  42.4113 H              1 <1>                0.0000
     28 H28         24.5980  36.6851  41.0561 H              1 <1>                0.0000
     29 H29         24.8866  37.0666  38.9204 H              1 <1>                0.0000
@<TRIPOS>BOND
    1    1    2 1     
    2    1   29 1     
    3    2    3 ar    
    4    2   15 ar    
    5    3    4 ar    
    6    3   18 1     
    7    4    5 1     
    8    4   13 ar    
    9    5    6 1     
   10    6    7 1     
   11    6   19 1     
   12    6   20 1     
   13    7    8 ar    
   14    7   12 ar    
   15    8    9 ar    
   16    8   21 1     
   17    9   10 ar    
   18    9   22 1     
   19   10   11 ar    
   20   10   23 1     
   21   11   12 ar    
   22   11   24 1     
   23   12   25 1     
   24   13   14 ar    
   25   13   26 1     
   26   14   15 ar    
   27   14   27 1     
   28   15   16 1     
   29   16   17 2     
   30   16   28 1     
@<TRIPOS>SUBSTRUCTURE
      1 ****           1
@<TRIPOS>SET
DONOR_HYDROGENS      STATIC     ATOMS    <user>   **** ""
1 29
ATOM$RED        STATIC     ATOMS    COLORGROUP SYSTEM
1 29
@<TRIPOS>COMMENT
> <Gold.Version>
2022.2.0

> <Gold.Id.Protein>
1qkm|1qkm_protein|mol2

> <Gold.Protein.RotatedTorsions>
[  496  491  490  487 ] final  -84.15 input  -89.99 | X-H torsion

> <Gold.Protein.ActiveResidues>
 MET295  LEU298  THR299  LEU301  ALA302  GLU305  TRP335  MET336  LEU339  MET340 
 GLY342  LEU343  ARG346  PHE356  ILE373  ILE376  PHE377  LEU380  LYS471  GLY472 
 MET473  HIS475  LEU476  LEU477  ASN478  MET479  VAL484  VAL487 

> <Gold.Protein.RotatedAtoms>
   36.7035   34.6874   41.1515 H   0  0  0  0  0  0  0  0  0  0  0  0  # atno 496  bound_to 491 

> <Gold.Score>
     Score     S(PLP)   S(hbond)     S(cho)   S(metal)  DE(clash)   DE(tors)     intcor
     54.62     -56.19       0.00       0.00       0.00       1.16       0.56       0.72

> <Gold.PLP.Fitness>
54.6220

> <Gold.PLP.PLP>
-56.1857

> <Gold.PLP.part.hbond>
-0.5190

> <Gold.PLP.part.metal>
0.0000

> <Gold.PLP.part.buried>
-4.0653

> <Gold.PLP.part.nonpolar>
-51.5889

> <Gold.PLP.part.repulsive>
0.3168

> <Gold.PLP.ligand.clash>
1.1618

> <Gold.PLP.ligand.torsion>
0.5587

> <Gold.PLP.Chemscore.Hbond>
0.0000

> <Gold.PLP.Chemscore.CHOScore>
0.0000

> <Gold.PLP.Chemscore.Metal>
0.0000

> <Gold.PLP.Chemscore.Internal.Correction>
0.7156

