#       Name:                EN300-130436_i001
#       Creating user name   aseyller
#       Creation time:       Fri Apr 21 19:14:27 2023


#       File generated by GOLD software.
#

@<TRIPOS>MOLECULE
EN300-130436_i001|benzaldehydes|mol2|763|dock7
    29    30     1
SMALL
USER_CHARGES


@<TRIPOS>ATOM
      1 O1          25.3950  36.9598  39.1447 O.3            1 <1>                0.0000
      2 C2          26.6545  36.6535  39.5431 C.ar           1 <1>                0.0000
      3 C3          27.6041  36.2660  38.6133 C.ar           1 <1>                0.0000
      4 C4          28.8910  35.9538  39.0271 C.ar           1 <1>                0.0000
      5 O5          29.8201  35.5748  38.1140 O.3            1 <1>                0.0000
      6 C6          31.1857  35.8647  38.4194 C.3            1 <1>                0.0000
      7 C7          31.9043  36.2805  37.1617 C.ar           1 <1>                0.0000
      8 C8          31.3408  37.2243  36.3236 C.ar           1 <1>                0.0000
      9 C9          31.9999  37.6056  35.1699 C.ar           1 <1>                0.0000
     10 C10         33.2229  37.0437  34.8548 C.ar           1 <1>                0.0000
     11 C11         33.7870  36.1007  35.6934 C.ar           1 <1>                0.0000
     12 C12         33.1298  35.7224  36.8492 C.ar           1 <1>                0.0000
     13 C13         29.2341  36.0281  40.3749 C.ar           1 <1>                0.0000
     14 C14         28.3091  36.4079  41.3029 C.ar           1 <1>                0.0000
     15 C15         27.0056  36.7331  40.9027 C.ar           1 <1>                0.0000
     16 C16         26.0106  37.1417  41.8971 C.2            1 <1>                0.0000
     17 O17         24.8649  36.7531  41.8042 O.2            1 <1>                0.0000
     18 H18         27.3432  36.2065  37.5670 H              1 <1>                0.0000
     19 H19         31.2312  36.6738  39.1483 H              1 <1>                0.0000
     20 H20         31.6621  34.9758  38.8331 H              1 <1>                0.0000
     21 H21         30.3852  37.6633  36.5698 H              1 <1>                0.0000
     22 H22         31.5593  38.3425  34.5146 H              1 <1>                0.0000
     23 H23         33.7376  37.3412  33.9530 H              1 <1>                0.0000
     24 H24         34.7423  35.6613  35.4470 H              1 <1>                0.0000
     25 H25         33.5704  34.9855  37.5045 H              1 <1>                0.0000
     26 H26         30.2384  35.7832  40.6874 H              1 <1>                0.0000
     27 H27         28.5826  36.4627  42.3463 H              1 <1>                0.0000
     28 H28         26.2967  37.7889  42.7130 H              1 <1>                0.0000
     29 H29         24.7025  36.5248  39.6609 H              1 <1>                0.0000
@<TRIPOS>BOND
    1    1    2 1     
    2    1   29 1     
    3    2    3 ar    
    4    2   15 ar    
    5    3    4 ar    
    6    3   18 1     
    7    4    5 1     
    8    4   13 ar    
    9    5    6 1     
   10    6    7 1     
   11    6   19 1     
   12    6   20 1     
   13    7    8 ar    
   14    7   12 ar    
   15    8    9 ar    
   16    8   21 1     
   17    9   10 ar    
   18    9   22 1     
   19   10   11 ar    
   20   10   23 1     
   21   11   12 ar    
   22   11   24 1     
   23   12   25 1     
   24   13   14 ar    
   25   13   26 1     
   26   14   15 ar    
   27   14   27 1     
   28   15   16 1     
   29   16   17 2     
   30   16   28 1     
@<TRIPOS>SUBSTRUCTURE
      1 ****           1
@<TRIPOS>SET
DONOR_HYDROGENS      STATIC     ATOMS    <user>   **** ""
1 29
ATOM$RED        STATIC     ATOMS    COLORGROUP SYSTEM
1 29
@<TRIPOS>COMMENT
> <Gold.Version>
2022.2.0

> <Gold.Id.Protein>
1qkm|1qkm_protein|mol2

> <Gold.Protein.RotatedTorsions>
[  496  491  490  487 ] final   60.09 input  -89.99 | X-H torsion

> <Gold.Protein.ActiveResidues>
 MET295  LEU298  THR299  LEU301  ALA302  GLU305  TRP335  MET336  LEU339  MET340 
 GLY342  LEU343  ARG346  PHE356  ILE373  ILE376  PHE377  LEU380  LYS471  GLY472 
 MET473  HIS475  LEU476  LEU477  ASN478  MET479  VAL484  VAL487 

> <Gold.Protein.RotatedAtoms>
   36.5522   33.3181   42.3025 H   0  0  0  0  0  0  0  0  0  0  0  0  # atno 496  bound_to 491 

> <Gold.Score>
     Score     S(PLP)   S(hbond)     S(cho)   S(metal)  DE(clash)   DE(tors)     intcor
     58.72     -57.79       0.79       0.00       0.00       0.00       1.08       0.72

> <Gold.PLP.Fitness>
58.7183

> <Gold.PLP.PLP>
-57.7933

> <Gold.PLP.part.hbond>
-1.7540

> <Gold.PLP.part.metal>
0.0000

> <Gold.PLP.part.buried>
-3.5511

> <Gold.PLP.part.nonpolar>
-54.4067

> <Gold.PLP.part.repulsive>
0.3243

> <Gold.PLP.ligand.clash>
0.0000

> <Gold.PLP.ligand.torsion>
1.0773

> <Gold.PLP.Chemscore.Hbond>
0.7871

> <Gold.PLP.Chemscore.CHOScore>
0.0000

> <Gold.PLP.Chemscore.Metal>
0.0000

> <Gold.Chemscore.Hbonds>
donor molecule, donor type, donor heavy atom, donor atom, acceptor molecule, acceptor atom, score
      L1  H     1    29       P1  1131  0.21
      P1  H  1258  1270       L1    17  0.58

> <Gold.PLP.Chemscore.Internal.Correction>
0.7183

