#       Name:                EN300-130436_i001
#       Creating user name   aseyller
#       Creation time:       Fri Apr 21 19:14:36 2023


#       File generated by GOLD software.
#

@<TRIPOS>MOLECULE
EN300-130436_i001|benzaldehydes|mol2|763|dock15
    29    30     1
SMALL
USER_CHARGES


@<TRIPOS>ATOM
      1 O1          31.1987  38.5748  36.1527 O.3            1 <1>                0.0000
      2 C2          31.3783  37.3603  36.7284 C.ar           1 <1>                0.0000
      3 C3          30.6472  37.0059  37.8492 C.ar           1 <1>                0.0000
      4 C4          30.8355  35.7619  38.4337 C.ar           1 <1>                0.0000
      5 O5          30.1176  35.4166  39.5318 O.3            1 <1>                0.0000
      6 C6          29.6953  36.4777  40.3908 C.3            1 <1>                0.0000
      7 C7          28.2163  36.7076  40.2154 C.ar           1 <1>                0.0000
      8 C8          27.3722  36.6417  41.3082 C.ar           1 <1>                0.0000
      9 C9          26.0156  36.8525  41.1473 C.ar           1 <1>                0.0000
     10 C10         25.5031  37.1298  39.8937 C.ar           1 <1>                0.0000
     11 C11         26.3472  37.1966  38.8012 C.ar           1 <1>                0.0000
     12 C12         27.7044  36.9900  38.9627 C.ar           1 <1>                0.0000
     13 C13         31.7574  34.8654  37.8985 C.ar           1 <1>                0.0000
     14 C14         32.4856  35.2005  36.7946 C.ar           1 <1>                0.0000
     15 C15         32.3043  36.4506  36.1868 C.ar           1 <1>                0.0000
     16 C16         33.0846  36.8127  35.0011 C.2            1 <1>                0.0000
     17 O17         32.7041  37.7066  34.2741 O.2            1 <1>                0.0000
     18 H18         29.9313  37.6974  38.2684 H              1 <1>                0.0000
     19 H19         29.9010  36.2099  41.4272 H              1 <1>                0.0000
     20 H20         30.2373  37.3886  40.1365 H              1 <1>                0.0000
     21 H21         27.7727  36.4251  42.2876 H              1 <1>                0.0000
     22 H22         25.3560  36.8004  42.0009 H              1 <1>                0.0000
     23 H23         24.4430  37.2938  39.7680 H              1 <1>                0.0000
     24 H24         25.9468  37.4127  37.8217 H              1 <1>                0.0000
     25 H25         28.3640  37.0421  38.1091 H              1 <1>                0.0000
     26 H26         31.8970  33.8993  38.3604 H              1 <1>                0.0000
     27 H27         33.1988  34.5001  36.3857 H              1 <1>                0.0000
     28 H28         33.9985  36.2839  34.7739 H              1 <1>                0.0000
     29 H29         31.0695  38.5409  35.1949 H              1 <1>                0.0000
@<TRIPOS>BOND
    1    1    2 1     
    2    1   29 1     
    3    2    3 ar    
    4    2   15 ar    
    5    3    4 ar    
    6    3   18 1     
    7    4    5 1     
    8    4   13 ar    
    9    5    6 1     
   10    6    7 1     
   11    6   19 1     
   12    6   20 1     
   13    7    8 ar    
   14    7   12 ar    
   15    8    9 ar    
   16    8   21 1     
   17    9   10 ar    
   18    9   22 1     
   19   10   11 ar    
   20   10   23 1     
   21   11   12 ar    
   22   11   24 1     
   23   12   25 1     
   24   13   14 ar    
   25   13   26 1     
   26   14   15 ar    
   27   14   27 1     
   28   15   16 1     
   29   16   17 2     
   30   16   28 1     
@<TRIPOS>SUBSTRUCTURE
      1 ****           1
@<TRIPOS>SET
DONOR_HYDROGENS      STATIC     ATOMS    <user>   **** ""
1 29
ATOM$RED        STATIC     ATOMS    COLORGROUP SYSTEM
1 29
@<TRIPOS>COMMENT
> <Gold.Version>
2022.2.0

> <Gold.Id.Protein>
1qkm|1qkm_protein|mol2

> <Gold.Protein.RotatedTorsions>
[  496  491  490  487 ] final  144.66 input  -89.99 | X-H torsion

> <Gold.Protein.ActiveResidues>
 MET295  LEU298  THR299  LEU301  ALA302  GLU305  TRP335  MET336  LEU339  MET340 
 GLY342  LEU343  ARG346  PHE356  ILE373  ILE376  PHE377  LEU380  LYS471  GLY472 
 MET473  HIS475  LEU476  LEU477  ASN478  MET479  VAL484  VAL487 

> <Gold.Protein.RotatedAtoms>
   37.2386   33.0591   41.2668 H   0  0  0  0  0  0  0  0  0  0  0  0  # atno 496  bound_to 491 

> <Gold.Score>
     Score     S(PLP)   S(hbond)     S(cho)   S(metal)  DE(clash)   DE(tors)     intcor
     56.69     -57.58       0.00       0.00       0.00       0.00       0.80       0.72

> <Gold.PLP.Fitness>
56.6945

> <Gold.PLP.PLP>
-57.5794

> <Gold.PLP.part.hbond>
0.0000

> <Gold.PLP.part.metal>
0.0000

> <Gold.PLP.part.buried>
-3.3021

> <Gold.PLP.part.nonpolar>
-55.0204

> <Gold.PLP.part.repulsive>
0.6149

> <Gold.PLP.ligand.clash>
0.0000

> <Gold.PLP.ligand.torsion>
0.8003

> <Gold.PLP.Chemscore.Hbond>
0.0000

> <Gold.PLP.Chemscore.CHOScore>
0.0000

> <Gold.PLP.Chemscore.Metal>
0.0000

> <Gold.PLP.Chemscore.Internal.Correction>
0.7156

