#       Name:                EN300-130436_i001
#       Creating user name   aseyller
#       Creation time:       Fri Apr 21 19:14:34 2023


#       File generated by GOLD software.
#

@<TRIPOS>MOLECULE
EN300-130436_i001|benzaldehydes|mol2|763|dock13
    29    30     1
SMALL
USER_CHARGES


@<TRIPOS>ATOM
      1 O1          28.0112  35.2851  42.3953 O.3            1 <1>                0.0000
      2 C2          27.6755  35.8356  41.2024 C.ar           1 <1>                0.0000
      3 C3          28.6549  36.1194  40.2662 C.ar           1 <1>                0.0000
      4 C4          28.3052  36.6828  39.0475 C.ar           1 <1>                0.0000
      5 O5          29.2667  36.9596  38.1313 O.3            1 <1>                0.0000
      6 C6          30.5758  37.2416  38.6299 C.3            1 <1>                0.0000
      7 C7          31.6015  36.8529  37.5964 C.ar           1 <1>                0.0000
      8 C8          32.6334  35.9974  37.9344 C.ar           1 <1>                0.0000
      9 C9          33.5742  35.6410  36.9865 C.ar           1 <1>                0.0000
     10 C10         33.4828  36.1396  35.7004 C.ar           1 <1>                0.0000
     11 C11         32.4504  36.9943  35.3622 C.ar           1 <1>                0.0000
     12 C12         31.5072  37.3474  36.3089 C.ar           1 <1>                0.0000
     13 C13         26.9720  36.9649  38.7597 C.ar           1 <1>                0.0000
     14 C14         25.9956  36.6913  39.6724 C.ar           1 <1>                0.0000
     15 C15         26.3295  36.1164  40.9065 C.ar           1 <1>                0.0000
     16 C16         25.2830  35.8211  41.8882 C.2            1 <1>                0.0000
     17 O17         24.1906  36.3391  41.7848 O.2            1 <1>                0.0000
     18 H18         29.6902  35.9029  40.4845 H              1 <1>                0.0000
     19 H19         30.6615  38.3069  38.8440 H              1 <1>                0.0000
     20 H20         30.7471  36.6725  39.5437 H              1 <1>                0.0000
     21 H21         32.7047  35.6079  38.9392 H              1 <1>                0.0000
     22 H22         34.3809  34.9732  37.2507 H              1 <1>                0.0000
     23 H23         34.2183  35.8616  34.9600 H              1 <1>                0.0000
     24 H24         32.3792  37.3841  34.3575 H              1 <1>                0.0000
     25 H25         30.7005  38.0152  36.0447 H              1 <1>                0.0000
     26 H26         26.7095  37.4034  37.8083 H              1 <1>                0.0000
     27 H27         24.9641  36.9133  39.4420 H              1 <1>                0.0000
     28 H28         25.4838  35.1425  42.7040 H              1 <1>                0.0000
     29 H29         27.2791  35.2347  43.0252 H              1 <1>                0.0000
@<TRIPOS>BOND
    1    1    2 1     
    2    1   29 1     
    3    2    3 ar    
    4    2   15 ar    
    5    3    4 ar    
    6    3   18 1     
    7    4    5 1     
    8    4   13 ar    
    9    5    6 1     
   10    6    7 1     
   11    6   19 1     
   12    6   20 1     
   13    7    8 ar    
   14    7   12 ar    
   15    8    9 ar    
   16    8   21 1     
   17    9   10 ar    
   18    9   22 1     
   19   10   11 ar    
   20   10   23 1     
   21   11   12 ar    
   22   11   24 1     
   23   12   25 1     
   24   13   14 ar    
   25   13   26 1     
   26   14   15 ar    
   27   14   27 1     
   28   15   16 1     
   29   16   17 2     
   30   16   28 1     
@<TRIPOS>SUBSTRUCTURE
      1 ****           1
@<TRIPOS>SET
DONOR_HYDROGENS      STATIC     ATOMS    <user>   **** ""
1 29
ATOM$RED        STATIC     ATOMS    COLORGROUP SYSTEM
1 29
@<TRIPOS>COMMENT
> <Gold.Version>
2022.2.0

> <Gold.Id.Protein>
1qkm|1qkm_protein|mol2

> <Gold.Protein.RotatedTorsions>
[  496  491  490  487 ] final -151.78 input  -89.99 | X-H torsion

> <Gold.Protein.ActiveResidues>
 MET295  LEU298  THR299  LEU301  ALA302  GLU305  TRP335  MET336  LEU339  MET340 
 GLY342  LEU343  ARG346  PHE356  ILE373  ILE376  PHE377  LEU380  LYS471  GLY472 
 MET473  HIS475  LEU476  LEU477  ASN478  MET479  VAL484  VAL487 

> <Gold.Protein.RotatedAtoms>
   37.2401   33.8921   40.7253 H   0  0  0  0  0  0  0  0  0  0  0  0  # atno 496  bound_to 491 

> <Gold.Score>
     Score     S(PLP)   S(hbond)     S(cho)   S(metal)  DE(clash)   DE(tors)     intcor
     55.05     -49.62       2.00       0.00       0.00       0.00       0.65       0.72

> <Gold.PLP.Fitness>
55.0456

> <Gold.PLP.PLP>
-49.6180

> <Gold.PLP.part.hbond>
-2.0656

> <Gold.PLP.part.metal>
0.0000

> <Gold.PLP.part.buried>
1.3666

> <Gold.PLP.part.nonpolar>
-51.8393

> <Gold.PLP.part.repulsive>
3.4119

> <Gold.PLP.ligand.clash>
0.0000

> <Gold.PLP.ligand.torsion>
0.6454

> <Gold.PLP.Chemscore.Hbond>
2.0000

> <Gold.PLP.Chemscore.CHOScore>
0.0000

> <Gold.PLP.Chemscore.Metal>
0.0000

> <Gold.Chemscore.Hbonds>
donor molecule, donor type, donor heavy atom, donor atom, acceptor molecule, acceptor atom, score
      L1  H     1    29       P1   582  1.00
      P1  H  1258  1270       L1    17  1.00

> <Gold.PLP.Chemscore.Internal.Correction>
0.7183

