#       Name:                EN300-130436_i001
#       Creating user name   aseyller
#       Creation time:       Fri Apr 21 19:14:31 2023


#       File generated by GOLD software.
#

@<TRIPOS>MOLECULE
EN300-130436_i001|benzaldehydes|mol2|763|dock11
    29    30     1
SMALL
USER_CHARGES


@<TRIPOS>ATOM
      1 O1          27.4326  36.6230  42.4129 O.3            1 <1>                0.0000
      2 C2          27.7101  36.6474  41.0858 C.ar           1 <1>                0.0000
      3 C3          29.0233  36.6245  40.6484 C.ar           1 <1>                0.0000
      4 C4          29.3009  36.6497  39.2894 C.ar           1 <1>                0.0000
      5 O5          30.5887  36.6267  38.8631 O.3            1 <1>                0.0000
      6 C6          30.8346  36.0660  37.5719 C.3            1 <1>                0.0000
      7 C7          31.0001  37.1756  36.5656 C.ar           1 <1>                0.0000
      8 C8          30.5890  38.4581  36.8771 C.ar           1 <1>                0.0000
      9 C9          30.7406  39.4758  35.9541 C.ar           1 <1>                0.0000
     10 C10         31.3039  39.2112  34.7197 C.ar           1 <1>                0.0000
     11 C11         31.7158  37.9289  34.4086 C.ar           1 <1>                0.0000
     12 C12         31.5681  36.9120  35.3331 C.ar           1 <1>                0.0000
     13 C13         28.2643  36.6979  38.3604 C.ar           1 <1>                0.0000
     14 C14         26.9651  36.7215  38.7761 C.ar           1 <1>                0.0000
     15 C15         26.6654  36.6903  40.1451 C.ar           1 <1>                0.0000
     16 C16         25.2712  36.7150  40.5941 C.2            1 <1>                0.0000
     17 O17         25.0158  36.7204  41.7803 O.2            1 <1>                0.0000
     18 H18         29.8309  36.5874  41.3646 H              1 <1>                0.0000
     19 H19         31.7438  35.4657  37.6036 H              1 <1>                0.0000
     20 H20         29.9933  35.4360  37.2830 H              1 <1>                0.0000
     21 H21         30.1489  38.6648  37.8415 H              1 <1>                0.0000
     22 H22         30.4188  40.4777  36.1971 H              1 <1>                0.0000
     23 H23         31.4217  40.0062  33.9983 H              1 <1>                0.0000
     24 H24         32.1555  37.7220  33.4440 H              1 <1>                0.0000
     25 H25         31.8899  35.9101  35.0901 H              1 <1>                0.0000
     26 H26         28.4903  36.7172  37.3046 H              1 <1>                0.0000
     27 H27         26.1668  36.7593  38.0497 H              1 <1>                0.0000
     28 H28         24.4706  36.7283  39.8693 H              1 <1>                0.0000
     29 H29         26.7322  36.0024  42.6569 H              1 <1>                0.0000
@<TRIPOS>BOND
    1    1    2 1     
    2    1   29 1     
    3    2    3 ar    
    4    2   15 ar    
    5    3    4 ar    
    6    3   18 1     
    7    4    5 1     
    8    4   13 ar    
    9    5    6 1     
   10    6    7 1     
   11    6   19 1     
   12    6   20 1     
   13    7    8 ar    
   14    7   12 ar    
   15    8    9 ar    
   16    8   21 1     
   17    9   10 ar    
   18    9   22 1     
   19   10   11 ar    
   20   10   23 1     
   21   11   12 ar    
   22   11   24 1     
   23   12   25 1     
   24   13   14 ar    
   25   13   26 1     
   26   14   15 ar    
   27   14   27 1     
   28   15   16 1     
   29   16   17 2     
   30   16   28 1     
@<TRIPOS>SUBSTRUCTURE
      1 ****           1
@<TRIPOS>SET
DONOR_HYDROGENS      STATIC     ATOMS    <user>   **** ""
1 29
ATOM$RED        STATIC     ATOMS    COLORGROUP SYSTEM
1 29
@<TRIPOS>COMMENT
> <Gold.Version>
2022.2.0

> <Gold.Id.Protein>
1qkm|1qkm_protein|mol2

> <Gold.Protein.RotatedTorsions>
[  496  491  490  487 ] final -138.88 input  -89.99 | X-H torsion

> <Gold.Protein.ActiveResidues>
 MET295  LEU298  THR299  LEU301  ALA302  GLU305  TRP335  MET336  LEU339  MET340 
 GLY342  LEU343  ARG346  PHE356  ILE373  ILE376  PHE377  LEU380  LYS471  GLY472 
 MET473  HIS475  LEU476  LEU477  ASN478  MET479  VAL484  VAL487 

> <Gold.Protein.RotatedAtoms>
   37.1667   34.0908   40.7255 H   0  0  0  0  0  0  0  0  0  0  0  0  # atno 496  bound_to 491 

> <Gold.Score>
     Score     S(PLP)   S(hbond)     S(cho)   S(metal)  DE(clash)   DE(tors)     intcor
     56.01     -52.36       1.55       0.00       0.00       0.00       0.86       0.72

> <Gold.PLP.Fitness>
56.0136

> <Gold.PLP.PLP>
-52.3594

> <Gold.PLP.part.hbond>
-2.0000

> <Gold.PLP.part.metal>
0.0000

> <Gold.PLP.part.buried>
-0.1127

> <Gold.PLP.part.nonpolar>
-50.3167

> <Gold.PLP.part.repulsive>
0.4228

> <Gold.PLP.ligand.clash>
0.0000

> <Gold.PLP.ligand.torsion>
0.8600

> <Gold.PLP.Chemscore.Hbond>
1.5520

> <Gold.PLP.Chemscore.CHOScore>
0.0000

> <Gold.PLP.Chemscore.Metal>
0.0000

> <Gold.Chemscore.Hbonds>
donor molecule, donor type, donor heavy atom, donor atom, acceptor molecule, acceptor atom, score
      L1  H     1    29       P1   582  0.99
      P1  H  1258  1270       L1    17  0.56

> <Gold.PLP.Chemscore.Internal.Correction>
0.7183

