#       Name:                EN300-130436_i001
#       Creating user name   aseyller
#       Creation time:       Fri Apr 21 19:14:23 2023


#       File generated by GOLD software.
#

@<TRIPOS>MOLECULE
EN300-130436_i001|benzaldehydes|mol2|763|dock4
    29    30     1
SMALL
USER_CHARGES


@<TRIPOS>ATOM
      1 O1          27.7836  35.8151  41.7754 O.3            1 <1>                0.0000
      2 C2          27.4668  36.3974  40.5924 C.ar           1 <1>                0.0000
      3 C3          28.3793  36.4007  39.5514 C.ar           1 <1>                0.0000
      4 C4          28.0494  36.9981  38.3436 C.ar           1 <1>                0.0000
      5 O5          28.9451  36.9997  37.3246 O.3            1 <1>                0.0000
      6 C6          30.3297  36.9867  37.6780 C.3            1 <1>                0.0000
      7 C7          31.1640  37.2456  36.4500 C.ar           1 <1>                0.0000
      8 C8          32.2472  36.4347  36.1668 C.ar           1 <1>                0.0000
      9 C9          33.0125  36.6723  35.0405 C.ar           1 <1>                0.0000
     10 C10         32.6944  37.7203  34.1971 C.ar           1 <1>                0.0000
     11 C11         31.6108  38.5305  34.4798 C.ar           1 <1>                0.0000
     12 C12         30.8428  38.2905  35.6038 C.ar           1 <1>                0.0000
     13 C13         26.8031  37.5956  38.1715 C.ar           1 <1>                0.0000
     14 C14         25.8935  37.6007  39.1883 C.ar           1 <1>                0.0000
     15 C15         26.2069  36.9965  40.4137 C.ar           1 <1>                0.0000
     16 C16         25.2319  37.0001  41.5069 C.2            1 <1>                0.0000
     17 O17         25.5021  37.5406  42.5591 O.2            1 <1>                0.0000
     18 H18         29.3472  35.9390  39.6797 H              1 <1>                0.0000
     19 H19         30.5230  37.7625  38.4188 H              1 <1>                0.0000
     20 H20         30.5891  36.0135  38.0950 H              1 <1>                0.0000
     21 H21         32.4957  35.6159  36.8258 H              1 <1>                0.0000
     22 H22         33.8592  36.0392  34.8196 H              1 <1>                0.0000
     23 H23         33.2928  37.9063  33.3174 H              1 <1>                0.0000
     24 H24         31.3624  39.3496  33.8211 H              1 <1>                0.0000
     25 H25         29.9961  38.9235  35.8247 H              1 <1>                0.0000
     26 H26         26.5554  38.0581  37.2276 H              1 <1>                0.0000
     27 H27         24.9293  38.0664  39.0473 H              1 <1>                0.0000
     28 H28         24.2724  36.5217  41.3763 H              1 <1>                0.0000
     29 H29         27.0205  35.4782  42.2647 H              1 <1>                0.0000
@<TRIPOS>BOND
    1    1    2 1     
    2    1   29 1     
    3    2    3 ar    
    4    2   15 ar    
    5    3    4 ar    
    6    3   18 1     
    7    4    5 1     
    8    4   13 ar    
    9    5    6 1     
   10    6    7 1     
   11    6   19 1     
   12    6   20 1     
   13    7    8 ar    
   14    7   12 ar    
   15    8    9 ar    
   16    8   21 1     
   17    9   10 ar    
   18    9   22 1     
   19   10   11 ar    
   20   10   23 1     
   21   11   12 ar    
   22   11   24 1     
   23   12   25 1     
   24   13   14 ar    
   25   13   26 1     
   26   14   15 ar    
   27   14   27 1     
   28   15   16 1     
   29   16   17 2     
   30   16   28 1     
@<TRIPOS>SUBSTRUCTURE
      1 ****           1
@<TRIPOS>SET
DONOR_HYDROGENS      STATIC     ATOMS    <user>   **** ""
1 29
ATOM$RED        STATIC     ATOMS    COLORGROUP SYSTEM
1 29
@<TRIPOS>COMMENT
> <Gold.Version>
2022.2.0

> <Gold.Id.Protein>
1qkm|1qkm_protein|mol2

> <Gold.Protein.RotatedTorsions>
[  496  491  490  487 ] final   57.22 input  -89.99 | X-H torsion

> <Gold.Protein.ActiveResidues>
 MET295  LEU298  THR299  LEU301  ALA302  GLU305  TRP335  MET336  LEU339  MET340 
 GLY342  LEU343  ARG346  PHE356  ILE373  ILE376  PHE377  LEU380  LYS471  GLY472 
 MET473  HIS475  LEU476  LEU477  ASN478  MET479  VAL484  VAL487 

> <Gold.Protein.RotatedAtoms>
   36.5288   33.3554   42.3195 H   0  0  0  0  0  0  0  0  0  0  0  0  # atno 496  bound_to 491 

> <Gold.Score>
     Score     S(PLP)   S(hbond)     S(cho)   S(metal)  DE(clash)   DE(tors)     intcor
     60.79     -59.28       1.00       0.00       0.00       0.00       1.10       0.72

> <Gold.PLP.Fitness>
60.7896

> <Gold.PLP.PLP>
-59.2772

> <Gold.PLP.part.hbond>
-1.4128

> <Gold.PLP.part.metal>
0.0000

> <Gold.PLP.part.buried>
-2.7371

> <Gold.PLP.part.nonpolar>
-55.8479

> <Gold.PLP.part.repulsive>
0.2694

> <Gold.PLP.ligand.clash>
0.0000

> <Gold.PLP.ligand.torsion>
1.1030

> <Gold.PLP.Chemscore.Hbond>
1.0000

> <Gold.PLP.Chemscore.CHOScore>
0.0000

> <Gold.PLP.Chemscore.Metal>
0.0000

> <Gold.Chemscore.Hbonds>
donor molecule, donor type, donor heavy atom, donor atom, acceptor molecule, acceptor atom, score
      L1  H     1    29       P1   582  1.00

> <Gold.PLP.Chemscore.Internal.Correction>
0.7183

