#       Name:                EN300-130436_i001
#       Creating user name   aseyller
#       Creation time:       Fri Apr 21 19:14:21 2023


#       File generated by GOLD software.
#

@<TRIPOS>MOLECULE
EN300-130436_i001|benzaldehydes|mol2|763|dock2
    29    30     1
SMALL
USER_CHARGES


@<TRIPOS>ATOM
      1 O1          27.8659  36.1969  42.1193 O.3            1 <1>                0.0000
      2 C2          27.7001  36.3990  40.7887 C.ar           1 <1>                0.0000
      3 C3          28.7355  36.1321  39.9095 C.ar           1 <1>                0.0000
      4 C4          28.5599  36.3410  38.5493 C.ar           1 <1>                0.0000
      5 O5          29.5759  36.0783  37.6895 O.3            1 <1>                0.0000
      6 C6          30.9055  36.2166  38.1947 C.3            1 <1>                0.0000
      7 C7          31.8586  36.4342  37.0479 C.ar           1 <1>                0.0000
      8 C8          31.5245  37.3043  36.0270 C.ar           1 <1>                0.0000
      9 C9          32.3987  37.5038  34.9750 C.ar           1 <1>                0.0000
     10 C10         33.6073  36.8337  34.9442 C.ar           1 <1>                0.0000
     11 C11         33.9419  35.9643  35.9654 C.ar           1 <1>                0.0000
     12 C12         33.0696  35.7680  37.0196 C.ar           1 <1>                0.0000
     13 C13         27.3457  36.8183  38.0619 C.ar           1 <1>                0.0000
     14 C14         26.3162  37.0863  38.9160 C.ar           1 <1>                0.0000
     15 C15         26.4732  36.8754  40.2929 C.ar           1 <1>                0.0000
     16 C16         25.3692  37.1620  41.2121 C.2            1 <1>                0.0000
     17 O17         25.5964  37.3806  42.3837 O.2            1 <1>                0.0000
     18 H18         29.6793  35.7621  40.2823 H              1 <1>                0.0000
     19 H19         30.9501  37.0701  38.8712 H              1 <1>                0.0000
     20 H20         31.1856  35.3112  38.7332 H              1 <1>                0.0000
     21 H21         30.5801  37.8279  36.0512 H              1 <1>                0.0000
     22 H22         32.1373  38.1830  34.1770 H              1 <1>                0.0000
     23 H23         34.2900  36.9890  34.1219 H              1 <1>                0.0000
     24 H24         34.8860  35.4404  35.9411 H              1 <1>                0.0000
     25 H25         33.3309  35.0887  37.8176 H              1 <1>                0.0000
     26 H26         27.2184  36.9777  37.0014 H              1 <1>                0.0000
     27 H27         25.3777  37.4566  38.5304 H              1 <1>                0.0000
     28 H28         24.3529  37.1785  40.8469 H              1 <1>                0.0000
     29 H29         27.0979  35.8035  42.5560 H              1 <1>                0.0000
@<TRIPOS>BOND
    1    1    2 1     
    2    1   29 1     
    3    2    3 ar    
    4    2   15 ar    
    5    3    4 ar    
    6    3   18 1     
    7    4    5 1     
    8    4   13 ar    
    9    5    6 1     
   10    6    7 1     
   11    6   19 1     
   12    6   20 1     
   13    7    8 ar    
   14    7   12 ar    
   15    8    9 ar    
   16    8   21 1     
   17    9   10 ar    
   18    9   22 1     
   19   10   11 ar    
   20   10   23 1     
   21   11   12 ar    
   22   11   24 1     
   23   12   25 1     
   24   13   14 ar    
   25   13   26 1     
   26   14   15 ar    
   27   14   27 1     
   28   15   16 1     
   29   16   17 2     
   30   16   28 1     
@<TRIPOS>SUBSTRUCTURE
      1 ****           1
@<TRIPOS>SET
DONOR_HYDROGENS      STATIC     ATOMS    <user>   **** ""
1 29
ATOM$RED        STATIC     ATOMS    COLORGROUP SYSTEM
1 29
@<TRIPOS>COMMENT
> <Gold.Version>
2022.2.0

> <Gold.Id.Protein>
1qkm|1qkm_protein|mol2

> <Gold.Protein.RotatedTorsions>
[  496  491  490  487 ] final  -16.33 input  -89.99 | X-H torsion

> <Gold.Protein.ActiveResidues>
 MET295  LEU298  THR299  LEU301  ALA302  GLU305  TRP335  MET336  LEU339  MET340 
 GLY342  LEU343  ARG346  PHE356  ILE373  ILE376  PHE377  LEU380  LYS471  GLY472 
 MET473  HIS475  LEU476  LEU477  ASN478  MET479  VAL484  VAL487 

> <Gold.Protein.RotatedAtoms>
   36.2722   34.4278   42.0755 H   0  0  0  0  0  0  0  0  0  0  0  0  # atno 496  bound_to 491 

> <Gold.Score>
     Score     S(PLP)   S(hbond)     S(cho)   S(metal)  DE(clash)   DE(tors)     intcor
     60.45     -58.32       1.02       0.00       0.00       0.00       0.82       0.72

> <Gold.PLP.Fitness>
60.4527

> <Gold.PLP.PLP>
-58.3183

> <Gold.PLP.part.hbond>
-2.0000

> <Gold.PLP.part.metal>
0.0000

> <Gold.PLP.part.buried>
-3.4545

> <Gold.PLP.part.nonpolar>
-54.3830

> <Gold.PLP.part.repulsive>
0.2671

> <Gold.PLP.ligand.clash>
0.0000

> <Gold.PLP.ligand.torsion>
0.8165

> <Gold.PLP.Chemscore.Hbond>
1.0164

> <Gold.PLP.Chemscore.CHOScore>
0.0000

> <Gold.PLP.Chemscore.Metal>
0.0000

> <Gold.Chemscore.Hbonds>
donor molecule, donor type, donor heavy atom, donor atom, acceptor molecule, acceptor atom, score
      L1  H     1    29       P1   582  1.00
      P1  H  1258  1270       L1    17  0.02

> <Gold.PLP.Chemscore.Internal.Correction>
0.7183

