#       Name:                EN300-130436_i001
#       Creating user name   aseyller
#       Creation time:       Fri Apr 21 19:14:33 2023


#       File generated by GOLD software.
#

@<TRIPOS>MOLECULE
EN300-130436_i001|benzaldehydes|mol2|763|dock12
    29    30     1
SMALL
USER_CHARGES


@<TRIPOS>ATOM
      1 O1          27.6404  36.6735  42.5217 O.3            1 <1>                0.0000
      2 C2          27.5005  36.3807  41.2051 C.ar           1 <1>                0.0000
      3 C3          28.5271  35.7566  40.5176 C.ar           1 <1>                0.0000
      4 C4          28.3780  35.4598  39.1705 C.ar           1 <1>                0.0000
      5 O5          29.3853  34.8476  38.4989 O.3            1 <1>                0.0000
      6 C6          30.7140  35.0768  38.9724 C.3            1 <1>                0.0000
      7 C7          31.5214  35.7541  37.8952 C.ar           1 <1>                0.0000
      8 C8          31.2118  37.0443  37.5075 C.ar           1 <1>                0.0000
      9 C9          31.9523  37.6656  36.5193 C.ar           1 <1>                0.0000
     10 C10         33.0028  36.9968  35.9192 C.ar           1 <1>                0.0000
     11 C11         33.3130  35.7069  36.3076 C.ar           1 <1>                0.0000
     12 C12         32.5752  35.0872  37.2987 C.ar           1 <1>                0.0000
     13 C13         27.1993  35.7864  38.5045 C.ar           1 <1>                0.0000
     14 C14         26.1788  36.4021  39.1685 C.ar           1 <1>                0.0000
     15 C15         26.3091  36.7041  40.5311 C.ar           1 <1>                0.0000
     16 C16         25.2147  37.3648  41.2465 C.2            1 <1>                0.0000
     17 O17         25.3499  37.6711  42.4128 O.2            1 <1>                0.0000
     18 H18         29.4434  35.5014  41.0292 H              1 <1>                0.0000
     19 H19         30.6800  35.7141  39.8560 H              1 <1>                0.0000
     20 H20         31.1776  34.1242  39.2292 H              1 <1>                0.0000
     21 H21         30.3910  37.5668  37.9763 H              1 <1>                0.0000
     22 H22         31.7100  38.6734  36.2158 H              1 <1>                0.0000
     23 H23         33.5809  37.4819  35.1467 H              1 <1>                0.0000
     24 H24         34.1335  35.1842  35.8385 H              1 <1>                0.0000
     25 H25         32.8175  34.0794  37.6022 H              1 <1>                0.0000
     26 H26         27.0924  35.5513  37.4559 H              1 <1>                0.0000
     27 H27         25.2680  36.6526  38.6450 H              1 <1>                0.0000
     28 H28         24.2875  37.5791  40.7359 H              1 <1>                0.0000
     29 H29         27.3168  35.9817  43.1150 H              1 <1>                0.0000
@<TRIPOS>BOND
    1    1    2 1     
    2    1   29 1     
    3    2    3 ar    
    4    2   15 ar    
    5    3    4 ar    
    6    3   18 1     
    7    4    5 1     
    8    4   13 ar    
    9    5    6 1     
   10    6    7 1     
   11    6   19 1     
   12    6   20 1     
   13    7    8 ar    
   14    7   12 ar    
   15    8    9 ar    
   16    8   21 1     
   17    9   10 ar    
   18    9   22 1     
   19   10   11 ar    
   20   10   23 1     
   21   11   12 ar    
   22   11   24 1     
   23   12   25 1     
   24   13   14 ar    
   25   13   26 1     
   26   14   15 ar    
   27   14   27 1     
   28   15   16 1     
   29   16   17 2     
   30   16   28 1     
@<TRIPOS>SUBSTRUCTURE
      1 ****           1
@<TRIPOS>SET
DONOR_HYDROGENS      STATIC     ATOMS    <user>   **** ""
1 29
ATOM$RED        STATIC     ATOMS    COLORGROUP SYSTEM
1 29
@<TRIPOS>COMMENT
> <Gold.Version>
2022.2.0

> <Gold.Id.Protein>
1qkm|1qkm_protein|mol2

> <Gold.Protein.RotatedTorsions>
[  496  491  490  487 ] final   93.29 input  -89.99 | X-H torsion

> <Gold.Protein.ActiveResidues>
 MET295  LEU298  THR299  LEU301  ALA302  GLU305  TRP335  MET336  LEU339  MET340 
 GLY342  LEU343  ARG346  PHE356  ILE373  ILE376  PHE377  LEU380  LYS471  GLY472 
 MET473  HIS475  LEU476  LEU477  ASN478  MET479  VAL484  VAL487 

> <Gold.Protein.RotatedAtoms>
   36.8505   33.0017   41.9842 H   0  0  0  0  0  0  0  0  0  0  0  0  # atno 496  bound_to 491 

> <Gold.Score>
     Score     S(PLP)   S(hbond)     S(cho)   S(metal)  DE(clash)   DE(tors)     intcor
     55.29     -53.15       1.00       0.00       0.00       0.00       0.79       0.72

> <Gold.PLP.Fitness>
55.2851

> <Gold.PLP.PLP>
-53.1543

> <Gold.PLP.part.hbond>
-1.1451

> <Gold.PLP.part.metal>
0.0000

> <Gold.PLP.part.buried>
0.6255

> <Gold.PLP.part.nonpolar>
-53.9614

> <Gold.PLP.part.repulsive>
0.2887

> <Gold.PLP.ligand.clash>
0.0000

> <Gold.PLP.ligand.torsion>
0.7938

> <Gold.PLP.Chemscore.Hbond>
1.0000

> <Gold.PLP.Chemscore.CHOScore>
0.0000

> <Gold.PLP.Chemscore.Metal>
0.0000

> <Gold.Chemscore.Hbonds>
donor molecule, donor type, donor heavy atom, donor atom, acceptor molecule, acceptor atom, score
      L1  H     1    29       P1   582  1.00

> <Gold.PLP.Chemscore.Internal.Correction>
0.7183

