#       Name:                EN300-130436_i001
#       Creating user name   aseyller
#       Creation time:       Fri Apr 21 19:14:30 2023


#       File generated by GOLD software.
#

@<TRIPOS>MOLECULE
EN300-130436_i001|benzaldehydes|mol2|763|dock10
    29    30     1
SMALL
USER_CHARGES


@<TRIPOS>ATOM
      1 O1          29.1040  36.2460  41.4025 O.3            1 <1>                0.0000
      2 C2          28.4036  36.6924  40.3306 C.ar           1 <1>                0.0000
      3 C3          29.0684  37.1668  39.2129 C.ar           1 <1>                0.0000
      4 C4          28.3463  37.6223  38.1194 C.ar           1 <1>                0.0000
      5 O5          29.0000  38.0863  37.0248 O.3            1 <1>                0.0000
      6 C6          30.2867  38.6707  37.2370 C.3            1 <1>                0.0000
      7 C7          31.2598  38.1238  36.2246 C.ar           1 <1>                0.0000
      8 C8          31.2601  38.6131  34.9317 C.ar           1 <1>                0.0000
      9 C9          32.1527  38.1114  34.0030 C.ar           1 <1>                0.0000
     10 C10         33.0454  37.1208  34.3674 C.ar           1 <1>                0.0000
     11 C11         33.0458  36.6322  35.6604 C.ar           1 <1>                0.0000
     12 C12         32.1561  37.1368  36.5903 C.ar           1 <1>                0.0000
     13 C13         26.9538  37.6051  38.1393 C.ar           1 <1>                0.0000
     14 C14         26.2845  37.1409  39.2338 C.ar           1 <1>                0.0000
     15 C15         26.9974  36.6709  40.3454 C.ar           1 <1>                0.0000
     16 C16         26.2812  36.1716  41.5217 C.2            1 <1>                0.0000
     17 O17         25.1821  36.6079  41.7933 O.2            1 <1>                0.0000
     18 H18         30.1481  37.1826  39.1924 H              1 <1>                0.0000
     19 H19         30.2170  39.7528  37.1263 H              1 <1>                0.0000
     20 H20         30.6340  38.4298  38.2417 H              1 <1>                0.0000
     21 H21         30.5626  39.3870  34.6471 H              1 <1>                0.0000
     22 H22         32.1524  38.4931  32.9927 H              1 <1>                0.0000
     23 H23         33.7423  36.7284  33.6416 H              1 <1>                0.0000
     24 H24         33.7430  35.8580  35.9450 H              1 <1>                0.0000
     25 H25         32.1563  36.7551  37.6006 H              1 <1>                0.0000
     26 H26         26.4003  37.9617  37.2832 H              1 <1>                0.0000
     27 H27         25.2046  37.1311  39.2418 H              1 <1>                0.0000
     28 H28         26.7316  35.4152  42.1473 H              1 <1>                0.0000
     29 H29         29.9958  35.9386  41.1894 H              1 <1>                0.0000
@<TRIPOS>BOND
    1    1    2 1     
    2    1   29 1     
    3    2    3 ar    
    4    2   15 ar    
    5    3    4 ar    
    6    3   18 1     
    7    4    5 1     
    8    4   13 ar    
    9    5    6 1     
   10    6    7 1     
   11    6   19 1     
   12    6   20 1     
   13    7    8 ar    
   14    7   12 ar    
   15    8    9 ar    
   16    8   21 1     
   17    9   10 ar    
   18    9   22 1     
   19   10   11 ar    
   20   10   23 1     
   21   11   12 ar    
   22   11   24 1     
   23   12   25 1     
   24   13   14 ar    
   25   13   26 1     
   26   14   15 ar    
   27   14   27 1     
   28   15   16 1     
   29   16   17 2     
   30   16   28 1     
@<TRIPOS>SUBSTRUCTURE
      1 ****           1
@<TRIPOS>SET
DONOR_HYDROGENS      STATIC     ATOMS    <user>   **** ""
1 29
ATOM$RED        STATIC     ATOMS    COLORGROUP SYSTEM
1 29
@<TRIPOS>COMMENT
> <Gold.Version>
2022.2.0

> <Gold.Id.Protein>
1qkm|1qkm_protein|mol2

> <Gold.Protein.RotatedTorsions>
[  496  491  490  487 ] final -159.31 input  -89.99 | X-H torsion

> <Gold.Protein.ActiveResidues>
 MET295  LEU298  THR299  LEU301  ALA302  GLU305  TRP335  MET336  LEU339  MET340 
 GLY342  LEU343  ARG346  PHE356  ILE373  ILE376  PHE377  LEU380  LYS471  GLY472 
 MET473  HIS475  LEU476  LEU477  ASN478  MET479  VAL484  VAL487 

> <Gold.Protein.RotatedAtoms>
   37.2726   33.7741   40.7446 H   0  0  0  0  0  0  0  0  0  0  0  0  # atno 496  bound_to 491 

> <Gold.Score>
     Score     S(PLP)   S(hbond)     S(cho)   S(metal)  DE(clash)   DE(tors)     intcor
     57.42     -55.95       1.01       0.00       0.00       0.00       1.14       0.72

> <Gold.PLP.Fitness>
57.4230

> <Gold.PLP.PLP>
-55.9497

> <Gold.PLP.part.hbond>
-2.0000

> <Gold.PLP.part.metal>
0.0000

> <Gold.PLP.part.buried>
-1.8854

> <Gold.PLP.part.nonpolar>
-52.9179

> <Gold.PLP.part.repulsive>
1.2025

> <Gold.PLP.ligand.clash>
0.0000

> <Gold.PLP.ligand.torsion>
1.1380

> <Gold.PLP.Chemscore.Hbond>
1.0104

> <Gold.PLP.Chemscore.CHOScore>
0.0000

> <Gold.PLP.Chemscore.Metal>
0.0000

> <Gold.Chemscore.Hbonds>
donor molecule, donor type, donor heavy atom, donor atom, acceptor molecule, acceptor atom, score
      L1  H     1    29       P1   470  0.52
      P1  H  1258  1270       L1    17  0.49

> <Gold.PLP.Chemscore.Internal.Correction>
0.7183

