#       Name:                EN300-130436_i001
#       Creating user name   aseyller
#       Creation time:       Fri Apr 21 19:14:28 2023


#       File generated by GOLD software.
#

@<TRIPOS>MOLECULE
EN300-130436_i001|benzaldehydes|mol2|763|dock8
    29    30     1
SMALL
USER_CHARGES


@<TRIPOS>ATOM
      1 O1          26.1215  36.2037  38.3168 O.3            1 <1>                0.0000
      2 C2          27.1666  36.3200  39.1730 C.ar           1 <1>                0.0000
      3 C3          28.4645  36.1919  38.7091 C.ar           1 <1>                0.0000
      4 C4          29.5295  36.3118  39.5900 C.ar           1 <1>                0.0000
      5 O5          30.8007  36.1864  39.1330 O.3            1 <1>                0.0000
      6 C6          30.9898  35.4152  37.9449 C.3            1 <1>                0.0000
      7 C7          31.3631  36.3295  36.8066 C.ar           1 <1>                0.0000
      8 C8          32.5275  36.1079  36.0954 C.ar           1 <1>                0.0000
      9 C9          32.8700  36.9466  35.0514 C.ar           1 <1>                0.0000
     10 C10         32.0477  38.0067  34.7181 C.ar           1 <1>                0.0000
     11 C11         30.8828  38.2277  35.4287 C.ar           1 <1>                0.0000
     12 C12         30.5382  37.3865  36.4700 C.ar           1 <1>                0.0000
     13 C13         29.3003  36.5609  40.9410 C.ar           1 <1>                0.0000
     14 C14         28.0268  36.6892  41.4132 C.ar           1 <1>                0.0000
     15 C15         26.9385  36.5773  40.5368 C.ar           1 <1>                0.0000
     16 C16         25.5701  36.7151  41.0411 C.2            1 <1>                0.0000
     17 O17         25.3695  37.2440  42.1146 O.2            1 <1>                0.0000
     18 H18         28.6477  35.9984  37.6625 H              1 <1>                0.0000
     19 H19         31.7878  34.6903  38.1054 H              1 <1>                0.0000
     20 H20         30.0659  34.8904  37.7015 H              1 <1>                0.0000
     21 H21         33.1700  35.2797  36.3558 H              1 <1>                0.0000
     22 H22         33.7801  36.7739  34.4962 H              1 <1>                0.0000
     23 H23         32.3156  38.6624  33.9029 H              1 <1>                0.0000
     24 H24         30.2405  39.0562  35.1687 H              1 <1>                0.0000
     25 H25         29.6280  37.5592  37.0253 H              1 <1>                0.0000
     26 H26         30.1358  36.6527  41.6192 H              1 <1>                0.0000
     27 H27         27.8572  36.8819  42.4622 H              1 <1>                0.0000
     28 H28         24.7398  36.3458  40.4575 H              1 <1>                0.0000
     29 H29         25.2610  36.1378  38.7531 H              1 <1>                0.0000
@<TRIPOS>BOND
    1    1    2 1     
    2    1   29 1     
    3    2    3 ar    
    4    2   15 ar    
    5    3    4 ar    
    6    3   18 1     
    7    4    5 1     
    8    4   13 ar    
    9    5    6 1     
   10    6    7 1     
   11    6   19 1     
   12    6   20 1     
   13    7    8 ar    
   14    7   12 ar    
   15    8    9 ar    
   16    8   21 1     
   17    9   10 ar    
   18    9   22 1     
   19   10   11 ar    
   20   10   23 1     
   21   11   12 ar    
   22   11   24 1     
   23   12   25 1     
   24   13   14 ar    
   25   13   26 1     
   26   14   15 ar    
   27   14   27 1     
   28   15   16 1     
   29   16   17 2     
   30   16   28 1     
@<TRIPOS>SUBSTRUCTURE
      1 ****           1
@<TRIPOS>SET
DONOR_HYDROGENS      STATIC     ATOMS    <user>   **** ""
1 29
ATOM$RED        STATIC     ATOMS    COLORGROUP SYSTEM
1 29
@<TRIPOS>COMMENT
> <Gold.Version>
2022.2.0

> <Gold.Id.Protein>
1qkm|1qkm_protein|mol2

> <Gold.Protein.RotatedTorsions>
[  496  491  490  487 ] final  -11.82 input  -89.99 | X-H torsion

> <Gold.Protein.ActiveResidues>
 MET295  LEU298  THR299  LEU301  ALA302  GLU305  TRP335  MET336  LEU339  MET340 
 GLY342  LEU343  ARG346  PHE356  ILE373  ILE376  PHE377  LEU380  LYS471  GLY472 
 MET473  HIS475  LEU476  LEU477  ASN478  MET479  VAL484  VAL487 

> <Gold.Protein.RotatedAtoms>
   36.2645   34.3727   42.1248 H   0  0  0  0  0  0  0  0  0  0  0  0  # atno 496  bound_to 491 

> <Gold.Score>
     Score     S(PLP)   S(hbond)     S(cho)   S(metal)  DE(clash)   DE(tors)     intcor
     54.95     -55.29       0.17       0.00       0.00       0.00       0.79       0.72

> <Gold.PLP.Fitness>
54.9527

> <Gold.PLP.PLP>
-55.2887

> <Gold.PLP.part.hbond>
-1.0000

> <Gold.PLP.part.metal>
0.0000

> <Gold.PLP.part.buried>
-2.4644

> <Gold.PLP.part.nonpolar>
-52.5809

> <Gold.PLP.part.repulsive>
0.3616

> <Gold.PLP.ligand.clash>
0.0000

> <Gold.PLP.ligand.torsion>
0.7888

> <Gold.PLP.Chemscore.Hbond>
0.1745

> <Gold.PLP.Chemscore.CHOScore>
0.0000

> <Gold.PLP.Chemscore.Metal>
0.0000

> <Gold.Chemscore.Hbonds>
donor molecule, donor type, donor heavy atom, donor atom, acceptor molecule, acceptor atom, score
      P1  H  1258  1270       L1    17  0.17

> <Gold.PLP.Chemscore.Internal.Correction>
0.7183

