#       Name:                EN300-130436_i001
#       Creating user name   aseyller
#       Creation time:       Fri Apr 21 19:14:19 2023


#       File generated by GOLD software.
#

@<TRIPOS>MOLECULE
EN300-130436_i001
    29    30     1
SMALL
USER_CHARGES


@<TRIPOS>ATOM
      1 O1          -4.1890   2.2602   0.0700 O.3            1 <1>                0.0000
      2 C2          -3.3625   1.1853   0.0519 C.ar           1 <1>                0.0000
      3 C3          -1.9896   1.3624   0.0532 C.ar           1 <1>                0.0000
      4 C4          -1.1492   0.2587   0.0345 C.ar           1 <1>                0.0000
      5 O5           0.1960   0.4347   0.0363 O.3            1 <1>                0.0000
      6 C6           1.0044  -0.7435   0.0165 C.3            1 <1>                0.0000
      7 C7           2.4602  -0.3540   0.0216 C.ar           1 <1>                0.0000
      8 C8           3.1289  -0.1948   1.2209 C.ar           1 <1>                0.0000
      9 C9           4.4642   0.1626   1.2256 C.ar           1 <1>                0.0000
     10 C10          5.1310   0.3602   0.0309 C.ar           1 <1>                0.0000
     11 C11          4.4626   0.2001  -1.1684 C.ar           1 <1>                0.0000
     12 C12          3.1284  -0.1614  -1.1732 C.ar           1 <1>                0.0000
     13 C13         -1.6795  -1.0290   0.0146 C.ar           1 <1>                0.0000
     14 C14         -3.0304  -1.2195   0.0126 C.ar           1 <1>                0.0000
     15 C15         -3.8950  -0.1164   0.0376 C.ar           1 <1>                0.0000
     16 C16         -5.3459  -0.3182   0.0360 C.2            1 <1>                0.0000
     17 O17         -5.8021  -1.4423   0.0130 O.2            1 <1>                0.0000
     18 H18         -1.5732   2.3588   0.0683 H              1 <1>                0.0000
     19 H19          0.7870  -1.3482   0.8969 H              1 <1>                0.0000
     20 H20          0.7855  -1.3193  -0.8828 H              1 <1>                0.0000
     21 H21          2.6079  -0.3492   2.1543 H              1 <1>                0.0000
     22 H22          4.9865   0.2877   2.1626 H              1 <1>                0.0000
     23 H23          6.1741   0.6401   0.0346 H              1 <1>                0.0000
     24 H24          4.9834   0.3549  -2.1018 H              1 <1>                0.0000
     25 H25          2.6061  -0.2865  -2.1102 H              1 <1>                0.0000
     26 H26         -1.0173  -1.8820   0.0002 H              1 <1>                0.0000
     27 H27         -3.4340  -2.2211  -0.0033 H              1 <1>                0.0000
     28 H28         -6.0096   0.5336   0.0552 H              1 <1>                0.0000
     29 H29         -4.4297   2.5861  -0.8081 H              1 <1>                0.0000
@<TRIPOS>BOND
    1    1    2 1     
    2    1   29 1     
    3    2    3 ar    
    4    2   15 ar    
    5    3    4 ar    
    6    3   18 1     
    7    4    5 1     
    8    4   13 ar    
    9    5    6 1     
   10    6    7 1     
   11    6   19 1     
   12    6   20 1     
   13    7    8 ar    
   14    7   12 ar    
   15    8    9 ar    
   16    8   21 1     
   17    9   10 ar    
   18    9   22 1     
   19   10   11 ar    
   20   10   23 1     
   21   11   12 ar    
   22   11   24 1     
   23   12   25 1     
   24   13   14 ar    
   25   13   26 1     
   26   14   15 ar    
   27   14   27 1     
   28   15   16 1     
   29   16   17 2     
   30   16   28 1     
@<TRIPOS>SUBSTRUCTURE
      1 ****           1
@<TRIPOS>SET
DONOR_HYDROGENS      STATIC     ATOMS    <user>   **** ""
1 29
ATOM$RED        STATIC     ATOMS    COLORGROUP SYSTEM
1 29
