#       Name:                EN300-130436_i001
#       Creating user name   aseyller
#       Creation time:       Fri Apr 21 19:14:41 2023


#       File generated by GOLD software.
#

@<TRIPOS>MOLECULE
EN300-130436_i001|benzaldehydes|mol2|763|dock19
    29    30     1
SMALL
USER_CHARGES


@<TRIPOS>ATOM
      1 O1          32.3562  35.8720  34.8864 O.3            1 <1>                0.0000
      2 C2          31.5928  36.4209  35.8635 C.ar           1 <1>                0.0000
      3 C3          31.1783  35.6526  36.9378 C.ar           1 <1>                0.0000
      4 C4          30.3973  36.2199  37.9343 C.ar           1 <1>                0.0000
      5 O5          29.9926  35.4651  38.9864 O.3            1 <1>                0.0000
      6 C6          29.6858  36.1548  40.1997 C.3            1 <1>                0.0000
      7 C7          28.2108  36.4605  40.2445 C.ar           1 <1>                0.0000
      8 C8          27.5924  36.7065  41.4561 C.ar           1 <1>                0.0000
      9 C9          26.2394  36.9867  41.4972 C.ar           1 <1>                0.0000
     10 C10         25.5049  37.0217  40.3266 C.ar           1 <1>                0.0000
     11 C11         26.1234  36.7767  39.1150 C.ar           1 <1>                0.0000
     12 C12         27.4772  36.5005  39.0734 C.ar           1 <1>                0.0000
     13 C13         30.0273  37.5606  37.8603 C.ar           1 <1>                0.0000
     14 C14         30.4277  38.3304  36.8076 C.ar           1 <1>                0.0000
     15 C15         31.2223  37.7760  35.7946 C.ar           1 <1>                0.0000
     16 C16         31.6540  38.6005  34.6634 C.2            1 <1>                0.0000
     17 O17         32.3977  38.1374  33.8239 O.2            1 <1>                0.0000
     18 H18         31.4622  34.6124  36.9998 H              1 <1>                0.0000
     19 H19         29.9531  35.5290  41.0511 H              1 <1>                0.0000
     20 H20         30.2512  37.0858  40.2414 H              1 <1>                0.0000
     21 H21         28.1662  36.6792  42.3706 H              1 <1>                0.0000
     22 H22         25.7560  37.1781  42.4439 H              1 <1>                0.0000
     23 H23         24.4477  37.2400  40.3589 H              1 <1>                0.0000
     24 H24         25.5495  36.8035  38.2005 H              1 <1>                0.0000
     25 H25         27.9606  36.3091  38.1267 H              1 <1>                0.0000
     26 H26         29.4192  37.9934  38.6409 H              1 <1>                0.0000
     27 H27         30.1363  39.3691  36.7572 H              1 <1>                0.0000
     28 H28         31.3105  39.6208  34.5766 H              1 <1>                0.0000
     29 H29         31.8770  35.6961  34.0650 H              1 <1>                0.0000
@<TRIPOS>BOND
    1    1    2 1     
    2    1   29 1     
    3    2    3 ar    
    4    2   15 ar    
    5    3    4 ar    
    6    3   18 1     
    7    4    5 1     
    8    4   13 ar    
    9    5    6 1     
   10    6    7 1     
   11    6   19 1     
   12    6   20 1     
   13    7    8 ar    
   14    7   12 ar    
   15    8    9 ar    
   16    8   21 1     
   17    9   10 ar    
   18    9   22 1     
   19   10   11 ar    
   20   10   23 1     
   21   11   12 ar    
   22   11   24 1     
   23   12   25 1     
   24   13   14 ar    
   25   13   26 1     
   26   14   15 ar    
   27   14   27 1     
   28   15   16 1     
   29   16   17 2     
   30   16   28 1     
@<TRIPOS>SUBSTRUCTURE
      1 ****           1
@<TRIPOS>SET
DONOR_HYDROGENS      STATIC     ATOMS    <user>   **** ""
1 29
ATOM$RED        STATIC     ATOMS    COLORGROUP SYSTEM
1 29
@<TRIPOS>COMMENT
> <Gold.Version>
2022.2.0

> <Gold.Id.Protein>
1qkm|1qkm_protein|mol2

> <Gold.Protein.RotatedTorsions>
[  496  491  490  487 ] final  -70.18 input  -89.99 | X-H torsion

> <Gold.Protein.ActiveResidues>
 MET295  LEU298  THR299  LEU301  ALA302  GLU305  TRP335  MET336  LEU339  MET340 
 GLY342  LEU343  ARG346  PHE356  ILE373  ILE376  PHE377  LEU380  LYS471  GLY472 
 MET473  HIS475  LEU476  LEU477  ASN478  MET479  VAL484  VAL487 

> <Gold.Protein.RotatedAtoms>
   36.5798   34.7325   41.3393 H   0  0  0  0  0  0  0  0  0  0  0  0  # atno 496  bound_to 491 

> <Gold.Score>
     Score     S(PLP)   S(hbond)     S(cho)   S(metal)  DE(clash)   DE(tors)     intcor
     53.43     -52.28       0.73       0.00       0.00       0.00       0.88       0.72

> <Gold.PLP.Fitness>
53.4263

> <Gold.PLP.PLP>
-52.2775

> <Gold.PLP.part.hbond>
-1.0000

> <Gold.PLP.part.metal>
0.0000

> <Gold.PLP.part.buried>
-3.2578

> <Gold.PLP.part.nonpolar>
-49.4787

> <Gold.PLP.part.repulsive>
0.2464

> <Gold.PLP.ligand.clash>
0.0000

> <Gold.PLP.ligand.torsion>
0.8803

> <Gold.PLP.Chemscore.Hbond>
0.7313

> <Gold.PLP.Chemscore.CHOScore>
0.0000

> <Gold.PLP.Chemscore.Metal>
0.0000

> <Gold.Chemscore.Hbonds>
donor molecule, donor type, donor heavy atom, donor atom, acceptor molecule, acceptor atom, score
      L1  H     1    29       P1  3187  0.73

> <Gold.PLP.Chemscore.Internal.Correction>
0.7156

