#       Name:                EN300-130436_i001
#       Creating user name   aseyller
#       Creation time:       Fri Apr 21 19:14:26 2023


#       File generated by GOLD software.
#

@<TRIPOS>MOLECULE
EN300-130436_i001|benzaldehydes|mol2|763|dock6
    29    30     1
SMALL
USER_CHARGES


@<TRIPOS>ATOM
      1 O1          29.1298  36.3668  41.5942 O.3            1 <1>                0.0000
      2 C2          28.4682  36.7057  40.4601 C.ar           1 <1>                0.0000
      3 C3          29.1723  37.0754  39.3271 C.ar           1 <1>                0.0000
      4 C4          28.4897  37.4212  38.1699 C.ar           1 <1>                0.0000
      5 O5          29.1819  37.7828  37.0606 O.3            1 <1>                0.0000
      6 C6          30.4477  38.4143  37.2630 C.3            1 <1>                0.0000
      7 C7          31.5482  37.4916  36.8063 C.ar           1 <1>                0.0000
      8 C8          32.1726  37.7083  35.5922 C.ar           1 <1>                0.0000
      9 C9          33.1819  36.8618  35.1732 C.ar           1 <1>                0.0000
     10 C10         33.5673  35.7989  35.9687 C.ar           1 <1>                0.0000
     11 C11         32.9436  35.5827  37.1832 C.ar           1 <1>                0.0000
     12 C12         31.9371  36.4317  37.6041 C.ar           1 <1>                0.0000
     13 C13         27.0974  37.3983  38.1410 C.ar           1 <1>                0.0000
     14 C14         26.3896  37.0365  39.2498 C.ar           1 <1>                0.0000
     15 C15         27.0624  36.6780  40.4261 C.ar           1 <1>                0.0000
     16 C16         26.3047  36.2886  41.6179 C.2            1 <1>                0.0000
     17 O17         25.1694  36.6879  41.7724 O.2            1 <1>                0.0000
     18 H18         30.2520  37.0952  39.3443 H              1 <1>                0.0000
     19 H19         30.4880  39.3399  36.6888 H              1 <1>                0.0000
     20 H20         30.5771  38.6378  38.3220 H              1 <1>                0.0000
     21 H21         31.8715  38.5387  34.9707 H              1 <1>                0.0000
     22 H22         33.6693  37.0307  34.2244 H              1 <1>                0.0000
     23 H23         34.3555  35.1372  35.6410 H              1 <1>                0.0000
     24 H24         33.2444  34.7521  37.8045 H              1 <1>                0.0000
     25 H25         31.4498  36.2628  38.5530 H              1 <1>                0.0000
     26 H26         26.5748  37.6690  37.2355 H              1 <1>                0.0000
     27 H27         25.3101  37.0216  39.2196 H              1 <1>                0.0000
     28 H28         26.7567  35.6462  42.3591 H              1 <1>                0.0000
     29 H29         29.9694  35.9127  41.4390 H              1 <1>                0.0000
@<TRIPOS>BOND
    1    1    2 1     
    2    1   29 1     
    3    2    3 ar    
    4    2   15 ar    
    5    3    4 ar    
    6    3   18 1     
    7    4    5 1     
    8    4   13 ar    
    9    5    6 1     
   10    6    7 1     
   11    6   19 1     
   12    6   20 1     
   13    7    8 ar    
   14    7   12 ar    
   15    8    9 ar    
   16    8   21 1     
   17    9   10 ar    
   18    9   22 1     
   19   10   11 ar    
   20   10   23 1     
   21   11   12 ar    
   22   11   24 1     
   23   12   25 1     
   24   13   14 ar    
   25   13   26 1     
   26   14   15 ar    
   27   14   27 1     
   28   15   16 1     
   29   16   17 2     
   30   16   28 1     
@<TRIPOS>SUBSTRUCTURE
      1 ****           1
@<TRIPOS>SET
DONOR_HYDROGENS      STATIC     ATOMS    <user>   **** ""
1 29
ATOM$RED        STATIC     ATOMS    COLORGROUP SYSTEM
1 29
@<TRIPOS>COMMENT
> <Gold.Version>
2022.2.0

> <Gold.Id.Protein>
1qkm|1qkm_protein|mol2

> <Gold.Protein.RotatedTorsions>
[  496  491  490  487 ] final  153.93 input  -89.99 | X-H torsion

> <Gold.Protein.ActiveResidues>
 MET295  LEU298  THR299  LEU301  ALA302  GLU305  TRP335  MET336  LEU339  MET340 
 GLY342  LEU343  ARG346  PHE356  ILE373  ILE376  PHE377  LEU380  LYS471  GLY472 
 MET473  HIS475  LEU476  LEU477  ASN478  MET479  VAL484  VAL487 

> <Gold.Protein.RotatedAtoms>
   37.2779   33.1414   41.1447 H   0  0  0  0  0  0  0  0  0  0  0  0  # atno 496  bound_to 491 

> <Gold.Score>
     Score     S(PLP)   S(hbond)     S(cho)   S(metal)  DE(clash)   DE(tors)     intcor
     58.25     -55.88       1.29       0.00       0.00       0.00       1.11       0.72

> <Gold.PLP.Fitness>
58.2501

> <Gold.PLP.PLP>
-55.8752

> <Gold.PLP.part.hbond>
-2.0000

> <Gold.PLP.part.metal>
0.0000

> <Gold.PLP.part.buried>
-2.9372

> <Gold.PLP.part.nonpolar>
-51.8995

> <Gold.PLP.part.repulsive>
0.7473

> <Gold.PLP.ligand.clash>
0.0000

> <Gold.PLP.ligand.torsion>
1.1065

> <Gold.PLP.Chemscore.Hbond>
1.2899

> <Gold.PLP.Chemscore.CHOScore>
0.0000

> <Gold.PLP.Chemscore.Metal>
0.0000

> <Gold.Chemscore.Hbonds>
donor molecule, donor type, donor heavy atom, donor atom, acceptor molecule, acceptor atom, score
      L1  H     1    29       P1   470  0.81
      P1  H  1258  1270       L1    17  0.48

> <Gold.PLP.Chemscore.Internal.Correction>
0.7183

