#       Name:                EN300-130436_i001
#       Creating user name   aseyller
#       Creation time:       Fri Apr 21 19:14:22 2023


#       File generated by GOLD software.
#

@<TRIPOS>MOLECULE
EN300-130436_i001|benzaldehydes|mol2|763|dock3
    29    30     1
SMALL
USER_CHARGES


@<TRIPOS>ATOM
      1 O1          25.2083  37.2805  39.3872 O.3            1 <1>                0.0000
      2 C2          26.4820  36.9981  39.7568 C.ar           1 <1>                0.0000
      3 C3          27.4960  36.9945  38.8145 C.ar           1 <1>                0.0000
      4 C4          28.7972  36.7046  39.1988 C.ar           1 <1>                0.0000
      5 O5          29.7894  36.7021  38.2736 O.3            1 <1>                0.0000
      6 C6          29.6338  37.5753  37.1531 C.3            1 <1>                0.0000
      7 C7          30.8317  37.4488  36.2475 C.ar           1 <1>                0.0000
      8 C8          30.9277  38.2349  35.1145 C.ar           1 <1>                0.0000
      9 C9          32.0264  38.1188  34.2837 C.ar           1 <1>                0.0000
     10 C10         33.0294  37.2169  34.5862 C.ar           1 <1>                0.0000
     11 C11         32.9338  36.4314  35.7196 C.ar           1 <1>                0.0000
     12 C12         31.8372  36.5505  36.5527 C.ar           1 <1>                0.0000
     13 C13         29.0901  36.4169  40.5297 C.ar           1 <1>                0.0000
     14 C14         28.1014  36.4161  41.4697 C.ar           1 <1>                0.0000
     15 C15         26.7819  36.7128  41.1010 C.ar           1 <1>                0.0000
     16 C16         25.7185  36.7131  42.1085 C.2            1 <1>                0.0000
     17 O17         24.5691  36.5094  41.7776 O.2            1 <1>                0.0000
     18 H18         27.2743  37.2166  37.7811 H              1 <1>                0.0000
     19 H19         28.7325  37.3041  36.6035 H              1 <1>                0.0000
     20 H20         29.5501  38.6042  37.5032 H              1 <1>                0.0000
     21 H21         30.1440  38.9396  34.8782 H              1 <1>                0.0000
     22 H22         32.1011  38.7325  33.3982 H              1 <1>                0.0000
     23 H23         33.8874  37.1257  33.9368 H              1 <1>                0.0000
     24 H24         33.7172  35.7265  35.9558 H              1 <1>                0.0000
     25 H25         31.7625  35.9368  37.4383 H              1 <1>                0.0000
     26 H26         30.1060  36.1925  40.8193 H              1 <1>                0.0000
     27 H27         28.3363  36.1916  42.4996 H              1 <1>                0.0000
     28 H28         25.9576  36.8949  43.1460 H              1 <1>                0.0000
     29 H29         24.5410  36.7371  39.8284 H              1 <1>                0.0000
@<TRIPOS>BOND
    1    1    2 1     
    2    1   29 1     
    3    2    3 ar    
    4    2   15 ar    
    5    3    4 ar    
    6    3   18 1     
    7    4    5 1     
    8    4   13 ar    
    9    5    6 1     
   10    6    7 1     
   11    6   19 1     
   12    6   20 1     
   13    7    8 ar    
   14    7   12 ar    
   15    8    9 ar    
   16    8   21 1     
   17    9   10 ar    
   18    9   22 1     
   19   10   11 ar    
   20   10   23 1     
   21   11   12 ar    
   22   11   24 1     
   23   12   25 1     
   24   13   14 ar    
   25   13   26 1     
   26   14   15 ar    
   27   14   27 1     
   28   15   16 1     
   29   16   17 2     
   30   16   28 1     
@<TRIPOS>SUBSTRUCTURE
      1 ****           1
@<TRIPOS>SET
DONOR_HYDROGENS      STATIC     ATOMS    <user>   **** ""
1 29
ATOM$RED        STATIC     ATOMS    COLORGROUP SYSTEM
1 29
@<TRIPOS>COMMENT
> <Gold.Version>
2022.2.0

> <Gold.Id.Protein>
1qkm|1qkm_protein|mol2

> <Gold.Protein.RotatedTorsions>
[  496  491  490  487 ] final  -44.98 input  -89.99 | X-H torsion

> <Gold.Protein.ActiveResidues>
 MET295  LEU298  THR299  LEU301  ALA302  GLU305  TRP335  MET336  LEU339  MET340 
 GLY342  LEU343  ARG346  PHE356  ILE373  ILE376  PHE377  LEU380  LYS471  GLY472 
 MET473  HIS475  LEU476  LEU477  ASN478  MET479  VAL484  VAL487 

> <Gold.Protein.RotatedAtoms>
   36.3923   34.6802   41.7018 H   0  0  0  0  0  0  0  0  0  0  0  0  # atno 496  bound_to 491 

> <Gold.Score>
     Score     S(PLP)   S(hbond)     S(cho)   S(metal)  DE(clash)   DE(tors)     intcor
     59.34     -55.68       1.32       0.00       0.00       0.00       0.51       0.72

> <Gold.PLP.Fitness>
59.3403

> <Gold.PLP.PLP>
-55.6832

> <Gold.PLP.part.hbond>
-2.0000

> <Gold.PLP.part.metal>
0.0000

> <Gold.PLP.part.buried>
0.2953

> <Gold.PLP.part.nonpolar>
-55.9486

> <Gold.PLP.part.repulsive>
1.6845

> <Gold.PLP.ligand.clash>
0.0000

> <Gold.PLP.ligand.torsion>
0.5129

> <Gold.PLP.Chemscore.Hbond>
1.3216

> <Gold.PLP.Chemscore.CHOScore>
0.0000

> <Gold.PLP.Chemscore.Metal>
0.0000

> <Gold.Chemscore.Hbonds>
donor molecule, donor type, donor heavy atom, donor atom, acceptor molecule, acceptor atom, score
      L1  H     1    29       P1  1131  0.52
      P1  H  1258  1270       L1    17  0.80

> <Gold.PLP.Chemscore.Internal.Correction>
0.7183

