#       Name:                EN300-370562_i001
#       Creating user name   fsindt
#       Creation time:       Tue Feb 28 09:31:05 2023


#       File generated by GOLD software.
#

@<TRIPOS>MOLECULE
EN300-370562_i001|acide_1|mol2|3777|dock6
    17    17     1
SMALL
USER_CHARGES


@<TRIPOS>ATOM
      1 C1          -0.6999 -14.0530  11.5740 C.3            1 <1>                0.0000
      2 C2           0.5384 -14.7032  10.9536 C.3            1 <1>                0.0000
      3 N3           0.6686 -14.2736   9.5591 N.pl3          1 <1>                0.0000
      4 N4           0.8214 -15.1190   8.4548 N.2            1 <1>                0.0000
      5 C5           0.9059 -14.3949   7.3741 C.2            1 <1>                0.0000
      6 C6           0.8089 -13.0344   7.7502 C.2            1 <1>                0.0000
      7 C7           0.8559 -11.8742   6.8504 C.2            1 <1>                0.0000
      8 O8           0.4727 -10.7801   7.2422 O.co2          1 <1>                0.0000
      9 O9           1.2783 -12.0018   5.7089 O.co2          1 <1>               -1.0000
     10 C10          0.6554 -13.0033   9.1261 C.2            1 <1>                0.0000
     11 Br11         0.4738 -11.4562  10.1983 Br             1 <1>                0.0000
     12 H12         -1.5866 -14.3547  11.0165 H              1 <1>                0.0000
     13 H13         -0.7969 -14.3726  12.6115 H              1 <1>                0.0000
     14 H14         -0.5984 -12.9684  11.5359 H              1 <1>                0.0000
     15 H15          1.4250 -14.4015  11.5110 H              1 <1>                0.0000
     16 H16          0.4368 -15.7878  10.9916 H              1 <1>                0.0000
     17 H17          1.0289 -14.7682   6.3681 H              1 <1>                0.0000
@<TRIPOS>BOND
    1    1    2 1     
    2    1   12 1     
    3    1   13 1     
    4    1   14 1     
    5    2    3 1     
    6    2   15 1     
    7    2   16 1     
    8    3    4 1     
    9    3   10 1     
   10    4    5 2     
   11    5    6 1     
   12    5   17 1     
   13    6    7 1     
   14    6   10 2     
   15    7    8 ar    
   16    7    9 ar    
   17   10   11 1     
@<TRIPOS>SUBSTRUCTURE
      1 ****           1
@<TRIPOS>COMMENT
> <Gold.Version>
2022.2.0

> <Gold.Id.Protein>
3pbl|protein|mol2

> <Gold.Protein.RotatedTorsions>
[ 1303 1298 1297 1294 ] final  -33.42 input  179.99 | X-H torsion
[ 2461 2456 2455 2452 ] final -131.00 input   30.03 | X-H torsion
[ 2515 2510 2509 2506 ] final  -25.62 input  -89.99 | X-H torsion
[ 3721 3712 3711 3710 ] final  -97.18 input -179.91 | X-H torsion
[ 3841 3832 3831 3830 ] final  -28.16 input -179.91 | X-H torsion
[ 3767 3762 3761 3758 ] final   71.23 input  -89.99 | X-H torsion
[ 2472 2467 2466 2463 ] final -112.06 input  -89.97 | X-H torsion

> <Gold.Protein.ActiveResidues>
 VAL82   VAL86   LEU89   PHE106  VAL107  ASP110  VAL111  MET112  CYS114  THR115 
 CYS181  SER182  ILE183  PHE188  VAL189  ILE190  SER192  SER193  SER196  TRP342 
 PHE345  PHE346  HIS349  VAL350  TYR365  THR369  GLY372  TYR373 

> <Gold.Protein.RotatedAtoms>
    3.3456   -9.3787    3.8276 H   0  0  0  0  0  0  0  0  0  0  0  0  # atno 1303 bound_to 1298
    0.7069   -9.2361    8.1607 H   0  0  0  0  0  0  0  0  0  0  0  0  # atno 2461 bound_to 2456
   -4.3729   -5.4246    9.4199 H   0  0  0  0  0  0  0  0  0  0  0  0  # atno 2472 bound_to 2467
    2.6983   -7.9573    4.4027 H   0  0  0  0  0  0  0  0  0  0  0  0  # atno 2515 bound_to 2510
   -3.0761  -16.8674   14.6353 H   0  0  0  0  0  0  0  0  0  0  0  0  # atno 3721 bound_to 3712
   -4.4180  -23.3215   10.2920 H   0  0  0  0  0  0  0  0  0  0  0  0  # atno 3767 bound_to 3762
    1.5754  -20.1526    9.3593 H   0  0  0  0  0  0  0  0  0  0  0  0  # atno 3841 bound_to 3832
    4.6461   -8.5934    4.4259 LP  0  0  0  0  0  0  0  0  0  0  0  0  # atno 4297 bound_to 1298
    4.3708  -10.1492    4.8383 LP  0  0  0  0  0  0  0  0  0  0  0  0  # atno 4298 bound_to 1298
    2.1561   -8.5144    7.9455 LP  0  0  0  0  0  0  0  0  0  0  0  0  # atno 4299 bound_to 2456
    0.8746   -8.0579    7.0421 LP  0  0  0  0  0  0  0  0  0  0  0  0  # atno 4300 bound_to 2456
    2.5621   -9.2527    5.3872 LP  0  0  0  0  0  0  0  0  0  0  0  0  # atno 4301 bound_to 2510
    2.0362   -7.7893    5.8857 LP  0  0  0  0  0  0  0  0  0  0  0  0  # atno 4302 bound_to 2510
   -3.3643  -17.0347   13.0647 LP  0  0  0  0  0  0  0  0  0  0  0  0  # atno 4306 bound_to 3712
   -2.6119  -18.2179   13.9016 LP  0  0  0  0  0  0  0  0  0  0  0  0  # atno 4307 bound_to 3712
    2.5648  -19.8226    8.1394 LP  0  0  0  0  0  0  0  0  0  0  0  0  # atno 4314 bound_to 3832
    2.8447  -21.1034    9.1129 LP  0  0  0  0  0  0  0  0  0  0  0  0  # atno 4315 bound_to 3832
   -5.5020  -22.1560   10.6568 LP  0  0  0  0  0  0  0  0  0  0  0  0  # atno 4318 bound_to 3762
   -4.2073  -22.3978   11.6221 LP  0  0  0  0  0  0  0  0  0  0  0  0  # atno 4319 bound_to 3762
   -5.4656   -5.1206    8.2451 LP  0  0  0  0  0  0  0  0  0  0  0  0  # atno 4320 bound_to 2467
   -3.8784   -4.8484    7.9743 LP  0  0  0  0  0  0  0  0  0  0  0  0  # atno 4321 bound_to 2467

> <Gold.Score>
     Score     S(PLP)   S(hbond)     S(cho)   S(metal)  DE(clash)   DE(tors)     intcor
     33.71     -32.05       0.67       0.00       0.00       0.00       0.18       0.00

> <Gold.PLP.Fitness>
33.7115

> <Gold.PLP.PLP>
-32.0474

> <Gold.PLP.part.hbond>
-1.0000

> <Gold.PLP.part.metal>
0.0000

> <Gold.PLP.part.buried>
-4.9323

> <Gold.PLP.part.nonpolar>
-26.7020

> <Gold.PLP.part.repulsive>
0.2789

> <Gold.PLP.ligand.clash>
0.0000

> <Gold.PLP.ligand.torsion>
0.1761

> <Gold.PLP.Chemscore.Hbond>
0.6720

> <Gold.PLP.Chemscore.CHOScore>
0.0000

> <Gold.PLP.Chemscore.Metal>
0.0000

> <Gold.Chemscore.Hbonds>
donor molecule, donor type, donor heavy atom, donor atom, acceptor molecule, acceptor atom, score
      P1  H  2456  2461       L1     8  0.67

> <Gold.PLP.Chemscore.Internal.Correction>
0.0001

