#       Name:                EN300-370562_i001
#       Creating user name   fsindt
#       Creation time:       Tue Feb 28 09:31:04 2023


#       File generated by GOLD software.
#

@<TRIPOS>MOLECULE
EN300-370562_i001|acide_1|mol2|3777|dock3
    17    17     1
SMALL
USER_CHARGES


@<TRIPOS>ATOM
      1 C1           0.9930 -15.4823  12.3255 C.3            1 <1>                0.0000
      2 C2          -0.4841 -15.0840  12.2988 C.3            1 <1>                0.0000
      3 N3          -0.6396 -13.8348  11.5496 N.pl3          1 <1>                0.0000
      4 N4          -1.2989 -12.6871  12.0029 N.2            1 <1>                0.0000
      5 C5          -1.2425 -11.7712  11.0770 C.2            1 <1>                0.0000
      6 C6          -0.5328 -12.3054   9.9758 C.2            1 <1>                0.0000
      7 C7          -0.2337 -11.6173   8.7128 C.2            1 <1>                0.0000
      8 O8           0.4150 -12.1860   7.8449 O.co2          1 <1>                0.0000
      9 O9          -0.6334 -10.4754   8.5286 O.co2          1 <1>               -1.0000
     10 C10         -0.1683 -13.5974  10.3155 C.2            1 <1>                0.0000
     11 Br11         0.8029 -14.8082   9.2353 Br             1 <1>                0.0000
     12 H12          1.5729 -14.6950  12.8072 H              1 <1>                0.0000
     13 H13          1.1087 -16.4117  12.8829 H              1 <1>                0.0000
     14 H14          1.3496 -15.6237  11.3052 H              1 <1>                0.0000
     15 H15         -1.0640 -15.8712  11.8171 H              1 <1>                0.0000
     16 H16         -0.8407 -14.9425  13.3191 H              1 <1>                0.0000
     17 H17         -1.6640 -10.7788  11.1395 H              1 <1>                0.0000
@<TRIPOS>BOND
    1    1    2 1     
    2    1   12 1     
    3    1   13 1     
    4    1   14 1     
    5    2    3 1     
    6    2   15 1     
    7    2   16 1     
    8    3    4 1     
    9    3   10 1     
   10    4    5 2     
   11    5    6 1     
   12    5   17 1     
   13    6    7 1     
   14    6   10 2     
   15    7    8 ar    
   16    7    9 ar    
   17   10   11 1     
@<TRIPOS>SUBSTRUCTURE
      1 ****           1
@<TRIPOS>COMMENT
> <Gold.Version>
2022.2.0

> <Gold.Id.Protein>
3pbl|protein|mol2

> <Gold.Protein.RotatedTorsions>
[ 1303 1298 1297 1294 ] final    8.82 input  179.99 | X-H torsion
[ 2461 2456 2455 2452 ] final -127.38 input   30.03 | X-H torsion
[ 2515 2510 2509 2506 ] final  -35.12 input  -89.99 | X-H torsion
[ 3721 3712 3711 3710 ] final   82.65 input -179.91 | X-H torsion
[ 3841 3832 3831 3830 ] final -147.31 input -179.91 | X-H torsion
[ 3767 3762 3761 3758 ] final   64.62 input  -89.99 | X-H torsion
[ 2472 2467 2466 2463 ] final   91.13 input  -89.97 | X-H torsion

> <Gold.Protein.ActiveResidues>
 VAL82   VAL86   LEU89   PHE106  VAL107  ASP110  VAL111  MET112  CYS114  THR115 
 CYS181  SER182  ILE183  PHE188  VAL189  ILE190  SER192  SER193  SER196  TRP342 
 PHE345  PHE346  HIS349  VAL350  TYR365  THR369  GLY372  TYR373 

> <Gold.Protein.RotatedAtoms>
    3.4400   -9.9812    4.1269 H   0  0  0  0  0  0  0  0  0  0  0  0  # atno 1303 bound_to 1298
    0.6613   -9.2182    8.1269 H   0  0  0  0  0  0  0  0  0  0  0  0  # atno 2461 bound_to 2456
   -5.1163   -4.9242    7.8047 H   0  0  0  0  0  0  0  0  0  0  0  0  # atno 2472 bound_to 2467
    2.7447   -8.1020    4.3665 H   0  0  0  0  0  0  0  0  0  0  0  0  # atno 2515 bound_to 2510
   -2.7314  -17.6987   13.1550 H   0  0  0  0  0  0  0  0  0  0  0  0  # atno 3721 bound_to 3712
   -4.5059  -23.3008   10.2316 H   0  0  0  0  0  0  0  0  0  0  0  0  # atno 3767 bound_to 3762
    2.5937  -19.7318    8.3520 H   0  0  0  0  0  0  0  0  0  0  0  0  # atno 3841 bound_to 3832
    4.1119   -8.4970    4.0173 LP  0  0  0  0  0  0  0  0  0  0  0  0  # atno 4297 bound_to 1298
    4.8106   -9.6429    4.9475 LP  0  0  0  0  0  0  0  0  0  0  0  0  # atno 4298 bound_to 1298
    2.1482   -8.5574    7.9857 LP  0  0  0  0  0  0  0  0  0  0  0  0  # atno 4299 bound_to 2456
    0.9281   -8.0327    7.0356 LP  0  0  0  0  0  0  0  0  0  0  0  0  # atno 4300 bound_to 2456
    2.4972   -9.2241    5.5264 LP  0  0  0  0  0  0  0  0  0  0  0  0  # atno 4301 bound_to 2510
    2.0546   -7.6732    5.7827 LP  0  0  0  0  0  0  0  0  0  0  0  0  # atno 4302 bound_to 2510
   -2.8114  -17.7369   14.7582 LP  0  0  0  0  0  0  0  0  0  0  0  0  # atno 4306 bound_to 3712
   -3.5628  -16.5560   13.9172 LP  0  0  0  0  0  0  0  0  0  0  0  0  # atno 4307 bound_to 3712
    2.8207  -21.1134    9.1367 LP  0  0  0  0  0  0  0  0  0  0  0  0  # atno 4314 bound_to 3832
    1.4126  -20.2987    9.2792 LP  0  0  0  0  0  0  0  0  0  0  0  0  # atno 4315 bound_to 3832
   -5.4827  -22.0977   10.7465 LP  0  0  0  0  0  0  0  0  0  0  0  0  # atno 4318 bound_to 3762
   -4.1386  -22.4768   11.5928 LP  0  0  0  0  0  0  0  0  0  0  0  0  # atno 4319 bound_to 3762
   -3.6388   -5.0096    8.4948 LP  0  0  0  0  0  0  0  0  0  0  0  0  # atno 4320 bound_to 2467
   -4.9619   -5.4596    9.3396 LP  0  0  0  0  0  0  0  0  0  0  0  0  # atno 4321 bound_to 2467

> <Gold.Score>
     Score     S(PLP)   S(hbond)     S(cho)   S(metal)  DE(clash)   DE(tors)     intcor
     33.29     -30.41       1.00       0.00       0.00       0.00       0.06       0.00

> <Gold.PLP.Fitness>
33.2932

> <Gold.PLP.PLP>
-30.4138

> <Gold.PLP.part.hbond>
-2.0000

> <Gold.PLP.part.metal>
0.0000

> <Gold.PLP.part.buried>
-2.2551

> <Gold.PLP.part.nonpolar>
-26.7619

> <Gold.PLP.part.repulsive>
0.1058

> <Gold.PLP.ligand.clash>
0.0000

> <Gold.PLP.ligand.torsion>
0.0604

> <Gold.PLP.Chemscore.Hbond>
1.0000

> <Gold.PLP.Chemscore.CHOScore>
0.0000

> <Gold.PLP.Chemscore.Metal>
0.0000

> <Gold.Chemscore.Hbonds>
donor molecule, donor type, donor heavy atom, donor atom, acceptor molecule, acceptor atom, score
      P1  H  2456  2461       L1     9  1.00

> <Gold.PLP.Chemscore.Internal.Correction>
0.0001

