#       Name:                EN300-370562_i001
#       Creating user name   fsindt
#       Creation time:       Tue Feb 28 09:31:08 2023


#       File generated by GOLD software.
#

@<TRIPOS>MOLECULE
EN300-370562_i001|acide_1|mol2|3777|dock12
    17    17     1
SMALL
USER_CHARGES


@<TRIPOS>ATOM
      1 C1           0.5034 -15.3288  11.5177 C.3            1 <1>                0.0000
      2 C2           0.5856 -14.3992  10.3053 C.3            1 <1>                0.0000
      3 N3          -0.3500 -13.2855  10.4795 N.pl3          1 <1>                0.0000
      4 N4          -1.1853 -13.0856  11.5839 N.2            1 <1>                0.0000
      5 C5          -1.8792 -11.9974  11.4002 C.2            1 <1>                0.0000
      6 C6          -1.5092 -11.4484  10.1498 C.2            1 <1>                0.0000
      7 C7          -2.0424 -10.2217   9.5426 C.2            1 <1>                0.0000
      8 O8          -1.4216  -9.6612   8.6494 O.co2          1 <1>                0.0000
      9 O9          -3.1077  -9.7602   9.9299 O.co2          1 <1>               -1.0000
     10 C10         -0.5451 -12.2826   9.6092 C.2            1 <1>                0.0000
     11 Br11         0.3262 -12.0574   7.9460 Br             1 <1>                0.0000
     12 H12         -0.5108 -15.7173  11.6096 H              1 <1>                0.0000
     13 H13          1.1995 -16.1575  11.3881 H              1 <1>                0.0000
     14 H14          0.7630 -14.7739  12.4193 H              1 <1>                0.0000
     15 H15          1.5998 -14.0108  10.2133 H              1 <1>                0.0000
     16 H16          0.3260 -14.9542   9.4037 H              1 <1>                0.0000
     17 H17         -2.6089 -11.5873  12.0826 H              1 <1>                0.0000
@<TRIPOS>BOND
    1    1    2 1     
    2    1   12 1     
    3    1   13 1     
    4    1   14 1     
    5    2    3 1     
    6    2   15 1     
    7    2   16 1     
    8    3    4 1     
    9    3   10 1     
   10    4    5 2     
   11    5    6 1     
   12    5   17 1     
   13    6    7 1     
   14    6   10 2     
   15    7    8 ar    
   16    7    9 ar    
   17   10   11 1     
@<TRIPOS>SUBSTRUCTURE
      1 ****           1
@<TRIPOS>COMMENT
> <Gold.Version>
2022.2.0

> <Gold.Id.Protein>
3pbl|protein|mol2

> <Gold.Protein.RotatedTorsions>
[ 1303 1298 1297 1294 ] final   57.56 input  179.99 | X-H torsion
[ 2461 2456 2455 2452 ] final -104.74 input   30.03 | X-H torsion
[ 2515 2510 2509 2506 ] final   12.08 input  -89.99 | X-H torsion
[ 3721 3712 3711 3710 ] final  -68.31 input -179.91 | X-H torsion
[ 3841 3832 3831 3830 ] final -153.84 input -179.91 | X-H torsion
[ 3767 3762 3761 3758 ] final  -72.89 input  -89.99 | X-H torsion
[ 2472 2467 2466 2463 ] final  -43.77 input  -89.97 | X-H torsion

> <Gold.Protein.ActiveResidues>
 VAL82   VAL86   LEU89   PHE106  VAL107  ASP110  VAL111  MET112  CYS114  THR115 
 CYS181  SER182  ILE183  PHE188  VAL189  ILE190  SER192  SER193  SER196  TRP342 
 PHE345  PHE346  HIS349  VAL350  TYR365  THR369  GLY372  TYR373 

> <Gold.Protein.RotatedAtoms>
    3.9748  -10.2716    4.6113 H   0  0  0  0  0  0  0  0  0  0  0  0  # atno 1303 bound_to 1298
    0.4351   -9.0541    7.8839 H   0  0  0  0  0  0  0  0  0  0  0  0  # atno 2461 bound_to 2456
   -3.6472   -5.0940    8.7242 H   0  0  0  0  0  0  0  0  0  0  0  0  # atno 2472 bound_to 2467
    2.4572   -7.5193    4.7504 H   0  0  0  0  0  0  0  0  0  0  0  0  # atno 2515 bound_to 2510
   -2.8621  -17.2219   14.7576 H   0  0  0  0  0  0  0  0  0  0  0  0  # atno 3721 bound_to 3712
   -5.3828  -21.9782   10.9877 H   0  0  0  0  0  0  0  0  0  0  0  0  # atno 3767 bound_to 3762
    2.6770  -19.7844    8.3475 H   0  0  0  0  0  0  0  0  0  0  0  0  # atno 3841 bound_to 3832
    3.5202   -8.9424    3.7789 LP  0  0  0  0  0  0  0  0  0  0  0  0  # atno 4297 bound_to 1298
    4.8672   -8.9071    4.7013 LP  0  0  0  0  0  0  0  0  0  0  0  0  # atno 4298 bound_to 1298
    2.0193   -8.8245    8.2075 LP  0  0  0  0  0  0  0  0  0  0  0  0  # atno 4299 bound_to 2456
    1.2831   -7.9298    7.0568 LP  0  0  0  0  0  0  0  0  0  0  0  0  # atno 4300 bound_to 2456
    2.7687   -9.1200    4.8296 LP  0  0  0  0  0  0  0  0  0  0  0  0  # atno 4301 bound_to 2510
    2.0708   -8.3602    6.0955 LP  0  0  0  0  0  0  0  0  0  0  0  0  # atno 4302 bound_to 2510
   -3.5193  -16.7148   13.3833 LP  0  0  0  0  0  0  0  0  0  0  0  0  # atno 4306 bound_to 3712
   -2.7040  -18.1285   13.4419 LP  0  0  0  0  0  0  0  0  0  0  0  0  # atno 4307 bound_to 3712
    2.7415  -21.1379    9.2077 LP  0  0  0  0  0  0  0  0  0  0  0  0  # atno 4314 bound_to 3832
    1.3955  -20.2134    9.2134 LP  0  0  0  0  0  0  0  0  0  0  0  0  # atno 4315 bound_to 3832
   -3.9955  -22.6926   11.4694 LP  0  0  0  0  0  0  0  0  0  0  0  0  # atno 4318 bound_to 3762
   -4.7494  -23.2039   10.1140 LP  0  0  0  0  0  0  0  0  0  0  0  0  # atno 4319 bound_to 3762
   -5.1680   -5.4358    9.2105 LP  0  0  0  0  0  0  0  0  0  0  0  0  # atno 4320 bound_to 2467
   -4.9015   -4.8637    7.7044 LP  0  0  0  0  0  0  0  0  0  0  0  0  # atno 4321 bound_to 2467

> <Gold.Score>
     Score     S(PLP)   S(hbond)     S(cho)   S(metal)  DE(clash)   DE(tors)     intcor
     32.88     -30.46       0.91       0.00       0.00       0.00       0.16       0.00

> <Gold.PLP.Fitness>
32.8760

> <Gold.PLP.PLP>
-30.4574

> <Gold.PLP.part.hbond>
-1.5922

> <Gold.PLP.part.metal>
0.0000

> <Gold.PLP.part.buried>
-1.7520

> <Gold.PLP.part.nonpolar>
-27.6091

> <Gold.PLP.part.repulsive>
0.2639

> <Gold.PLP.ligand.clash>
0.0000

> <Gold.PLP.ligand.torsion>
0.1588

> <Gold.PLP.Chemscore.Hbond>
0.9120

> <Gold.PLP.Chemscore.CHOScore>
0.0000

> <Gold.PLP.Chemscore.Metal>
0.0000

> <Gold.Chemscore.Hbonds>
donor molecule, donor type, donor heavy atom, donor atom, acceptor molecule, acceptor atom, score
      P1  H  2456  2461       L1     8  0.91

> <Gold.PLP.Chemscore.Internal.Correction>
0.0001

