#       Name:                EN300-370562_i001
#       Creating user name   fsindt
#       Creation time:       Tue Feb 28 09:31:09 2023


#       File generated by GOLD software.
#

@<TRIPOS>MOLECULE
EN300-370562_i001|acide_1|mol2|3777|dock13
    17    17     1
SMALL
USER_CHARGES


@<TRIPOS>ATOM
      1 C1           0.9320 -13.7147   6.9608 C.3            1 <1>                0.0000
      2 C2           0.4262 -15.0824   7.4240 C.3            1 <1>                0.0000
      3 N3           0.3433 -15.1027   8.8865 N.pl3          1 <1>                0.0000
      4 N4           0.7025 -14.0536   9.7396 N.2            1 <1>                0.0000
      5 C5           0.4981 -14.4207  10.9736 C.2            1 <1>                0.0000
      6 C6          -0.0085 -15.7416  10.9589 C.2            1 <1>                0.0000
      7 C7          -0.3785 -16.5480  12.1298 C.2            1 <1>                0.0000
      8 O8          -0.9982 -17.5928  11.9821 O.co2          1 <1>                0.0000
      9 O9          -0.0668 -16.1750  13.2529 O.co2          1 <1>               -1.0000
     10 C10         -0.0954 -16.1287   9.6322 C.2            1 <1>                0.0000
     11 Br11        -0.7072 -17.7990   8.9903 Br             1 <1>                0.0000
     12 H12          1.9198 -13.5305   7.3832 H              1 <1>                0.0000
     13 H13          0.9937 -13.6996   5.8726 H              1 <1>                0.0000
     14 H14          0.2429 -12.9398   7.2964 H              1 <1>                0.0000
     15 H15         -0.5615 -15.2667   7.0015 H              1 <1>                0.0000
     16 H16          1.1153 -15.8574   7.0883 H              1 <1>                0.0000
     17 H17          0.6835 -13.8217  11.8529 H              1 <1>                0.0000
@<TRIPOS>BOND
    1    1    2 1     
    2    1   12 1     
    3    1   13 1     
    4    1   14 1     
    5    2    3 1     
    6    2   15 1     
    7    2   16 1     
    8    3    4 1     
    9    3   10 1     
   10    4    5 2     
   11    5    6 1     
   12    5   17 1     
   13    6    7 1     
   14    6   10 2     
   15    7    8 ar    
   16    7    9 ar    
   17   10   11 1     
@<TRIPOS>SUBSTRUCTURE
      1 ****           1
@<TRIPOS>COMMENT
> <Gold.Version>
2022.2.0

> <Gold.Id.Protein>
3pbl|protein|mol2

> <Gold.Protein.RotatedTorsions>
[ 1303 1298 1297 1294 ] final   -7.44 input  179.99 | X-H torsion
[ 2461 2456 2455 2452 ] final  126.46 input   30.03 | X-H torsion
[ 2515 2510 2509 2506 ] final -117.68 input  -89.99 | X-H torsion
[ 3721 3712 3711 3710 ] final   83.96 input -179.91 | X-H torsion
[ 3841 3832 3831 3830 ] final -174.42 input -179.91 | X-H torsion
[ 3767 3762 3761 3758 ] final -150.19 input  -89.99 | X-H torsion
[ 2472 2467 2466 2463 ] final   68.42 input  -89.97 | X-H torsion

> <Gold.Protein.ActiveResidues>
 VAL82   VAL86   LEU89   PHE106  VAL107  ASP110  VAL111  MET112  CYS114  THR115 
 CYS181  SER182  ILE183  PHE188  VAL189  ILE190  SER192  SER193  SER196  TRP342 
 PHE345  PHE346  HIS349  VAL350  TYR365  THR369  GLY372  TYR373 

> <Gold.Protein.RotatedAtoms>
    3.3542   -9.7716    3.9860 H   0  0  0  0  0  0  0  0  0  0  0  0  # atno 1303 bound_to 1298
    2.0854   -8.7225    8.1288 H   0  0  0  0  0  0  0  0  0  0  0  0  # atno 2461 bound_to 2456
   -4.7793   -4.8400    7.6739 H   0  0  0  0  0  0  0  0  0  0  0  0  # atno 2472 bound_to 2467
    2.7261   -9.1906    4.9672 H   0  0  0  0  0  0  0  0  0  0  0  0  # atno 2515 bound_to 2510
   -2.7406  -17.6842   13.1450 H   0  0  0  0  0  0  0  0  0  0  0  0  # atno 3721 bound_to 3712
   -4.4324  -22.1945   11.6490 H   0  0  0  0  0  0  0  0  0  0  0  0  # atno 3767 bound_to 3762
    2.9067  -19.9875    8.3871 H   0  0  0  0  0  0  0  0  0  0  0  0  # atno 3841 bound_to 3832
    4.3338   -8.4774    4.1639 LP  0  0  0  0  0  0  0  0  0  0  0  0  # atno 4297 bound_to 1298
    4.6744   -9.8722    4.9418 LP  0  0  0  0  0  0  0  0  0  0  0  0  # atno 4298 bound_to 1298
    1.1427   -7.9580    7.0359 LP  0  0  0  0  0  0  0  0  0  0  0  0  # atno 4299 bound_to 2456
    0.5099   -9.1277    7.9835 LP  0  0  0  0  0  0  0  0  0  0  0  0  # atno 4300 bound_to 2456
    2.0456   -8.2030    6.0751 LP  0  0  0  0  0  0  0  0  0  0  0  0  # atno 4301 bound_to 2510
    2.5250   -7.6051    4.6331 LP  0  0  0  0  0  0  0  0  0  0  0  0  # atno 4302 bound_to 2510
   -2.8024  -17.7541   14.7479 LP  0  0  0  0  0  0  0  0  0  0  0  0  # atno 4306 bound_to 3712
   -3.5612  -16.5555   13.9390 LP  0  0  0  0  0  0  0  0  0  0  0  0  # atno 4307 bound_to 3712
    2.4566  -21.1515    9.3963 LP  0  0  0  0  0  0  0  0  0  0  0  0  # atno 4314 bound_to 3832
    1.4150  -19.9652    8.9790 LP  0  0  0  0  0  0  0  0  0  0  0  0  # atno 4315 bound_to 3832
   -4.1953  -23.3300   10.4996 LP  0  0  0  0  0  0  0  0  0  0  0  0  # atno 4318 bound_to 3762
   -5.4995  -22.3503   10.4228 LP  0  0  0  0  0  0  0  0  0  0  0  0  # atno 4319 bound_to 3762
   -3.6767   -5.1385    8.8408 LP  0  0  0  0  0  0  0  0  0  0  0  0  # atno 4320 bound_to 2467
   -5.2610   -5.4150    9.1243 LP  0  0  0  0  0  0  0  0  0  0  0  0  # atno 4321 bound_to 2467

> <Gold.Score>
     Score     S(PLP)   S(hbond)     S(cho)   S(metal)  DE(clash)   DE(tors)     intcor
     30.29     -27.41       1.00       0.00       0.00       0.00       0.06       0.00

> <Gold.PLP.Fitness>
30.2881

> <Gold.PLP.PLP>
-27.4108

> <Gold.PLP.part.hbond>
-1.0000

> <Gold.PLP.part.metal>
0.0000

> <Gold.PLP.part.buried>
-2.5758

> <Gold.PLP.part.nonpolar>
-24.6969

> <Gold.PLP.part.repulsive>
0.1605

> <Gold.PLP.ligand.clash>
0.0000

> <Gold.PLP.ligand.torsion>
0.0614

> <Gold.PLP.Chemscore.Hbond>
1.0000

> <Gold.PLP.Chemscore.CHOScore>
0.0000

> <Gold.PLP.Chemscore.Metal>
0.0000

> <Gold.Chemscore.Hbonds>
donor molecule, donor type, donor heavy atom, donor atom, acceptor molecule, acceptor atom, score
      P1  H  3712  3721       L1     8  1.00

> <Gold.PLP.Chemscore.Internal.Correction>
0.0001

