#       Name:                EN300-370562_i001
#       Creating user name   fsindt
#       Creation time:       Tue Feb 28 09:31:06 2023


#       File generated by GOLD software.
#

@<TRIPOS>MOLECULE
EN300-370562_i001|acide_1|mol2|3777|dock7
    17    17     1
SMALL
USER_CHARGES


@<TRIPOS>ATOM
      1 C1           0.5116 -14.9714   6.8992 C.3            1 <1>                0.0000
      2 C2           1.2177 -14.7905   8.2445 C.3            1 <1>                0.0000
      3 N3           0.4549 -13.8549   9.0744 N.pl3          1 <1>                0.0000
      4 N4          -0.0915 -14.1364  10.3313 N.2            1 <1>                0.0000
      5 C5          -0.7016 -13.0740  10.7768 C.2            1 <1>                0.0000
      6 C6          -0.5676 -12.0532   9.8063 C.2            1 <1>                0.0000
      7 C7          -1.1026 -10.6880   9.8953 C.2            1 <1>                0.0000
      8 O8          -1.1672  -9.9895   8.8927 O.co2          1 <1>                0.0000
      9 O9          -1.4840 -10.2492  10.9723 O.co2          1 <1>               -1.0000
     10 C10          0.1682 -12.5822   8.7592 C.2            1 <1>                0.0000
     11 Br11         0.6661 -11.6817   7.1726 Br             1 <1>                0.0000
     12 H12          0.4431 -14.0088   6.3925 H              1 <1>                0.0000
     13 H13          1.0791 -15.6675   6.2817 H              1 <1>                0.0000
     14 H14         -0.4906 -15.3668   7.0653 H              1 <1>                0.0000
     15 H15          1.2863 -15.7530   8.7512 H              1 <1>                0.0000
     16 H16          2.2198 -14.3950   8.0784 H              1 <1>                0.0000
     17 H17         -1.2191 -12.9883  11.7208 H              1 <1>                0.0000
@<TRIPOS>BOND
    1    1    2 1     
    2    1   12 1     
    3    1   13 1     
    4    1   14 1     
    5    2    3 1     
    6    2   15 1     
    7    2   16 1     
    8    3    4 1     
    9    3   10 1     
   10    4    5 2     
   11    5    6 1     
   12    5   17 1     
   13    6    7 1     
   14    6   10 2     
   15    7    8 ar    
   16    7    9 ar    
   17   10   11 1     
@<TRIPOS>SUBSTRUCTURE
      1 ****           1
@<TRIPOS>COMMENT
> <Gold.Version>
2022.2.0

> <Gold.Id.Protein>
3pbl|protein|mol2

> <Gold.Protein.RotatedTorsions>
[ 1303 1298 1297 1294 ] final  145.01 input  179.99 | X-H torsion
[ 2461 2456 2455 2452 ] final -109.15 input   30.03 | X-H torsion
[ 2515 2510 2509 2506 ] final -108.77 input  -89.99 | X-H torsion
[ 3721 3712 3711 3710 ] final  -28.52 input -179.91 | X-H torsion
[ 3841 3832 3831 3830 ] final  -50.45 input -179.91 | X-H torsion
[ 3767 3762 3761 3758 ] final  159.95 input  -89.99 | X-H torsion
[ 2472 2467 2466 2463 ] final -105.56 input  -89.97 | X-H torsion

> <Gold.Protein.ActiveResidues>
 VAL82   VAL86   LEU89   PHE106  VAL107  ASP110  VAL111  MET112  CYS114  THR115 
 CYS181  SER182  ILE183  PHE188  VAL189  ILE190  SER192  SER193  SER196  TRP342 
 PHE345  PHE346  HIS349  VAL350  TYR365  THR369  GLY372  TYR373 

> <Gold.Protein.RotatedAtoms>
    4.8909   -9.3933    4.9070 H   0  0  0  0  0  0  0  0  0  0  0  0  # atno 1303 bound_to 1298
    0.4702   -9.0925    7.9346 H   0  0  0  0  0  0  0  0  0  0  0  0  # atno 2461 bound_to 2456
   -4.2705   -5.4049    9.3966 H   0  0  0  0  0  0  0  0  0  0  0  0  # atno 2472 bound_to 2467
    2.7654   -9.1268    4.8414 H   0  0  0  0  0  0  0  0  0  0  0  0  # atno 2515 bound_to 2510
   -2.5951  -17.7158   14.5775 H   0  0  0  0  0  0  0  0  0  0  0  0  # atno 3721 bound_to 3712
   -3.9549  -22.7799   11.4014 H   0  0  0  0  0  0  0  0  0  0  0  0  # atno 3767 bound_to 3762
    1.5768  -19.9037    9.1356 H   0  0  0  0  0  0  0  0  0  0  0  0  # atno 3841 bound_to 3832
    3.5794  -10.1418    4.2855 LP  0  0  0  0  0  0  0  0  0  0  0  0  # atno 4297 bound_to 1298
    3.8916   -8.5863    3.8988 LP  0  0  0  0  0  0  0  0  0  0  0  0  # atno 4298 bound_to 1298
    2.0547   -8.7738    8.1693 LP  0  0  0  0  0  0  0  0  0  0  0  0  # atno 4299 bound_to 2456
    1.2126   -7.9420    7.0443 LP  0  0  0  0  0  0  0  0  0  0  0  0  # atno 4300 bound_to 2456
    2.0682   -8.3464    6.0947 LP  0  0  0  0  0  0  0  0  0  0  0  0  # atno 4301 bound_to 2510
    2.4630   -7.5255    4.7394 LP  0  0  0  0  0  0  0  0  0  0  0  0  # atno 4302 bound_to 2510
   -3.5535  -16.5571   14.0147 LP  0  0  0  0  0  0  0  0  0  0  0  0  # atno 4306 bound_to 3712
   -2.9781  -17.7159   13.0183 LP  0  0  0  0  0  0  0  0  0  0  0  0  # atno 4307 bound_to 3712
    2.8506  -20.0556    8.1711 LP  0  0  0  0  0  0  0  0  0  0  0  0  # atno 4314 bound_to 3832
    2.5573  -21.1579    9.3396 LP  0  0  0  0  0  0  0  0  0  0  0  0  # atno 4315 bound_to 3832
   -4.8487  -23.1482   10.0853 LP  0  0  0  0  0  0  0  0  0  0  0  0  # atno 4318 bound_to 3762
   -5.3235  -21.9471   11.0846 LP  0  0  0  0  0  0  0  0  0  0  0  0  # atno 4319 bound_to 3762
   -5.4921   -5.1583    8.3415 LP  0  0  0  0  0  0  0  0  0  0  0  0  # atno 4320 bound_to 2467
   -3.9542   -4.8304    7.9012 LP  0  0  0  0  0  0  0  0  0  0  0  0  # atno 4321 bound_to 2467

> <Gold.Score>
     Score     S(PLP)   S(hbond)     S(cho)   S(metal)  DE(clash)   DE(tors)     intcor
     35.71     -33.04       0.96       0.00       0.00       0.00       0.11       0.00

> <Gold.PLP.Fitness>
35.7081

> <Gold.PLP.PLP>
-33.0410

> <Gold.PLP.part.hbond>
-1.0000

> <Gold.PLP.part.metal>
0.0000

> <Gold.PLP.part.buried>
-3.1631

> <Gold.PLP.part.nonpolar>
-30.0718

> <Gold.PLP.part.repulsive>
0.1565

> <Gold.PLP.ligand.clash>
0.0000

> <Gold.PLP.ligand.torsion>
0.1065

> <Gold.PLP.Chemscore.Hbond>
0.9600

> <Gold.PLP.Chemscore.CHOScore>
0.0000

> <Gold.PLP.Chemscore.Metal>
0.0000

> <Gold.Chemscore.Hbonds>
donor molecule, donor type, donor heavy atom, donor atom, acceptor molecule, acceptor atom, score
      P1  H  2456  2461       L1     8  0.96

> <Gold.PLP.Chemscore.Internal.Correction>
0.0001

