#       Name:                EN300-370562_i001
#       Creating user name   fsindt
#       Creation time:       Tue Feb 28 09:31:10 2023


#       File generated by GOLD software.
#

@<TRIPOS>MOLECULE
EN300-370562_i001|acide_1|mol2|3777|dock16
    17    17     1
SMALL
USER_CHARGES


@<TRIPOS>ATOM
      1 C1          -0.0933 -15.2700   7.6446 C.3            1 <1>                0.0000
      2 C2          -0.3416 -16.4841   8.5421 C.3            1 <1>                0.0000
      3 N3          -0.1623 -16.0996   9.9442 N.pl3          1 <1>                0.0000
      4 N4           0.1524 -14.8167  10.4056 N.2            1 <1>                0.0000
      5 C5           0.2343 -14.8415  11.7064 C.2            1 <1>                0.0000
      6 C6          -0.0293 -16.1634  12.1364 C.2            1 <1>                0.0000
      7 C7          -0.0423 -16.6438  13.5245 C.2            1 <1>                0.0000
      8 O8           0.3129 -15.9033  14.4317 O.co2          1 <1>                0.0000
      9 O9          -0.4085 -17.7846  13.7738 O.co2          1 <1>               -1.0000
     10 C10         -0.2783 -16.9175  11.0019 C.2            1 <1>                0.0000
     11 Br11        -0.6926 -18.7619  10.9516 Br             1 <1>                0.0000
     12 H12          0.9240 -14.9089   7.7951 H              1 <1>                0.0000
     13 H13         -0.2267 -15.5561   6.6013 H              1 <1>                0.0000
     14 H14         -0.8005 -14.4802   7.8980 H              1 <1>                0.0000
     15 H15         -1.3589 -16.8452   8.3915 H              1 <1>                0.0000
     16 H16          0.3656 -17.2739   8.2886 H              1 <1>                0.0000
     17 H17          0.4636 -14.0004  12.3439 H              1 <1>                0.0000
@<TRIPOS>BOND
    1    1    2 1     
    2    1   12 1     
    3    1   13 1     
    4    1   14 1     
    5    2    3 1     
    6    2   15 1     
    7    2   16 1     
    8    3    4 1     
    9    3   10 1     
   10    4    5 2     
   11    5    6 1     
   12    5   17 1     
   13    6    7 1     
   14    6   10 2     
   15    7    8 ar    
   16    7    9 ar    
   17   10   11 1     
@<TRIPOS>SUBSTRUCTURE
      1 ****           1
@<TRIPOS>COMMENT
> <Gold.Version>
2022.2.0

> <Gold.Id.Protein>
3pbl|protein|mol2

> <Gold.Protein.RotatedTorsions>
[ 1303 1298 1297 1294 ] final   76.66 input  179.99 | X-H torsion
[ 2461 2456 2455 2452 ] final -150.10 input   30.03 | X-H torsion
[ 2515 2510 2509 2506 ] final -126.11 input  -89.99 | X-H torsion
[ 3721 3712 3711 3710 ] final   23.80 input -179.91 | X-H torsion
[ 3841 3832 3831 3830 ] final   50.88 input -179.91 | X-H torsion
[ 3767 3762 3761 3758 ] final  117.84 input  -89.99 | X-H torsion
[ 2472 2467 2466 2463 ] final   -4.97 input  -89.97 | X-H torsion

> <Gold.Protein.ActiveResidues>
 VAL82   VAL86   LEU89   PHE106  VAL107  ASP110  VAL111  MET112  CYS114  THR115 
 CYS181  SER182  ILE183  PHE188  VAL189  ILE190  SER192  SER193  SER196  TRP342 
 PHE345  PHE346  HIS349  VAL350  TYR365  THR369  GLY372  TYR373 

> <Gold.Protein.RotatedAtoms>
    4.2372  -10.2155    4.7719 H   0  0  0  0  0  0  0  0  0  0  0  0  # atno 1303 bound_to 1298
    0.9788   -9.2875    8.3069 H   0  0  0  0  0  0  0  0  0  0  0  0  # atno 2461 bound_to 2456
   -3.7549   -4.8954    8.1401 H   0  0  0  0  0  0  0  0  0  0  0  0  # atno 2472 bound_to 2467
    2.6823   -9.2319    5.0920 H   0  0  0  0  0  0  0  0  0  0  0  0  # atno 2515 bound_to 2510
   -2.4738  -18.0337   13.8938 H   0  0  0  0  0  0  0  0  0  0  0  0  # atno 3721 bound_to 3712
   -3.9657  -23.2049   10.8739 H   0  0  0  0  0  0  0  0  0  0  0  0  # atno 3767 bound_to 3762
    2.3461  -20.9130    9.5628 H   0  0  0  0  0  0  0  0  0  0  0  0  # atno 3841 bound_to 3832
    3.3847   -9.2239    3.7940 LP  0  0  0  0  0  0  0  0  0  0  0  0  # atno 4297 bound_to 1298
    4.7402   -8.6816    4.5255 LP  0  0  0  0  0  0  0  0  0  0  0  0  # atno 4298 bound_to 1298
    2.1376   -8.2966    7.7215 LP  0  0  0  0  0  0  0  0  0  0  0  0  # atno 4299 bound_to 2456
    0.6213   -8.2242    7.1199 LP  0  0  0  0  0  0  0  0  0  0  0  0  # atno 4300 bound_to 2456
    2.0327   -8.0702    6.0376 LP  0  0  0  0  0  0  0  0  0  0  0  0  # atno 4301 bound_to 2510
    2.5816   -7.6966    4.5457 LP  0  0  0  0  0  0  0  0  0  0  0  0  # atno 4302 bound_to 2510
   -3.2810  -16.9225   14.7253 LP  0  0  0  0  0  0  0  0  0  0  0  0  # atno 4306 bound_to 3712
   -3.3907  -16.9836   13.0972 LP  0  0  0  0  0  0  0  0  0  0  0  0  # atno 4307 bound_to 3712
    1.5182  -19.7948    8.7626 LP  0  0  0  0  0  0  0  0  0  0  0  0  # atno 4314 bound_to 3832
    3.0010  -20.2528    8.2546 LP  0  0  0  0  0  0  0  0  0  0  0  0  # atno 4315 bound_to 3832
   -5.3424  -22.6906   10.1617 LP  0  0  0  0  0  0  0  0  0  0  0  0  # atno 4318 bound_to 3762
   -4.8190  -21.9798   11.5355 LP  0  0  0  0  0  0  0  0  0  0  0  0  # atno 4319 bound_to 3762
   -4.5828   -5.4516    9.4330 LP  0  0  0  0  0  0  0  0  0  0  0  0  # atno 4320 bound_to 2467
   -5.3791   -5.0466    8.0660 LP  0  0  0  0  0  0  0  0  0  0  0  0  # atno 4321 bound_to 2467

> <Gold.Score>
     Score     S(PLP)   S(hbond)     S(cho)   S(metal)  DE(clash)   DE(tors)     intcor
     30.12     -24.57       1.86       0.00       0.00       0.00       0.02       0.00

> <Gold.PLP.Fitness>
30.1158

> <Gold.PLP.PLP>
-24.5699

> <Gold.PLP.part.hbond>
-2.0000

> <Gold.PLP.part.metal>
0.0000

> <Gold.PLP.part.buried>
-3.0818

> <Gold.PLP.part.nonpolar>
-20.4815

> <Gold.PLP.part.repulsive>
0.1198

> <Gold.PLP.ligand.clash>
0.0000

> <Gold.PLP.ligand.torsion>
0.0231

> <Gold.PLP.Chemscore.Hbond>
1.8640

> <Gold.PLP.Chemscore.CHOScore>
0.0000

> <Gold.PLP.Chemscore.Metal>
0.0000

> <Gold.Chemscore.Hbonds>
donor molecule, donor type, donor heavy atom, donor atom, acceptor molecule, acceptor atom, score
      P1  H  2305  2313       L1     8  1.00
      P1  H  3712  3721       L1     9  0.86

> <Gold.PLP.Chemscore.Internal.Correction>
0.0001

