#       Name:                EN300-370562_i001
#       Creating user name   fsindt
#       Creation time:       Tue Feb 28 09:31:11 2023


#       File generated by GOLD software.
#

@<TRIPOS>MOLECULE
EN300-370562_i001|acide_1|mol2|3777|dock18
    17    17     1
SMALL
USER_CHARGES


@<TRIPOS>ATOM
      1 C1          -0.6988 -17.7083   8.7024 C.3            1 <1>                0.0000
      2 C2          -0.3169 -16.4362   9.4619 C.3            1 <1>                0.0000
      3 N3           0.1804 -15.4337   8.5165 N.pl3          1 <1>                0.0000
      4 N4           0.7098 -15.6983   7.2487 N.2            1 <1>                0.0000
      5 C5           1.0504 -14.5722   6.6872 C.2            1 <1>                0.0000
      6 C6           0.7475 -13.5246   7.5886 C.2            1 <1>                0.0000
      7 C7           0.9674 -12.0895   7.3652 C.2            1 <1>                0.0000
      8 O8           0.6558 -11.2809   8.2292 O.co2          1 <1>                0.0000
      9 O9           1.4623 -11.7024   6.3150 O.co2          1 <1>               -1.0000
     10 C10          0.1992 -14.1071   8.7190 C.2            1 <1>                0.0000
     11 Br11        -0.4006 -13.2017  10.2671 Br             1 <1>                0.0000
     12 H12          0.1774 -18.0996   8.1853 H              1 <1>                0.0000
     13 H13         -1.0688 -18.4542   9.4058 H              1 <1>                0.0000
     14 H14         -1.4770 -17.4773   7.9749 H              1 <1>                0.0000
     15 H15         -1.1929 -16.0449   9.9790 H              1 <1>                0.0000
     16 H16          0.4613 -16.6672  10.1894 H              1 <1>                0.0000
     17 H17          1.4877 -14.4590   5.7062 H              1 <1>                0.0000
@<TRIPOS>BOND
    1    1    2 1     
    2    1   12 1     
    3    1   13 1     
    4    1   14 1     
    5    2    3 1     
    6    2   15 1     
    7    2   16 1     
    8    3    4 1     
    9    3   10 1     
   10    4    5 2     
   11    5    6 1     
   12    5   17 1     
   13    6    7 1     
   14    6   10 2     
   15    7    8 ar    
   16    7    9 ar    
   17   10   11 1     
@<TRIPOS>SUBSTRUCTURE
      1 ****           1
@<TRIPOS>COMMENT
> <Gold.Version>
2022.2.0

> <Gold.Id.Protein>
3pbl|protein|mol2

> <Gold.Protein.RotatedTorsions>
[ 1303 1298 1297 1294 ] final   43.33 input  179.99 | X-H torsion
[ 2461 2456 2455 2452 ] final -132.50 input   30.03 | X-H torsion
[ 2515 2510 2509 2506 ] final  158.31 input  -89.99 | X-H torsion
[ 3721 3712 3711 3710 ] final   52.37 input -179.91 | X-H torsion
[ 3841 3832 3831 3830 ] final  167.04 input -179.91 | X-H torsion
[ 3767 3762 3761 3758 ] final   53.77 input  -89.99 | X-H torsion
[ 2472 2467 2466 2463 ] final  -59.23 input  -89.97 | X-H torsion

> <Gold.Protein.ActiveResidues>
 VAL82   VAL86   LEU89   PHE106  VAL107  ASP110  VAL111  MET112  CYS114  THR115 
 CYS181  SER182  ILE183  PHE188  VAL189  ILE190  SER192  SER193  SER196  TRP342 
 PHE345  PHE346  HIS349  VAL350  TYR365  THR369  GLY372  TYR373 

> <Gold.Protein.RotatedAtoms>
    3.7882  -10.2490    4.4729 H   0  0  0  0  0  0  0  0  0  0  0  0  # atno 1303 bound_to 1298
    0.7264   -9.2428    8.1741 H   0  0  0  0  0  0  0  0  0  0  0  0  # atno 2461 bound_to 2456
   -3.7216   -5.1834    8.9494 H   0  0  0  0  0  0  0  0  0  0  0  0  # atno 2472 bound_to 2467
    2.1878   -8.7657    6.0259 H   0  0  0  0  0  0  0  0  0  0  0  0  # atno 2515 bound_to 2510
   -2.5540  -17.9577   13.4809 H   0  0  0  0  0  0  0  0  0  0  0  0  # atno 3721 bound_to 3712
   -4.6556  -23.2476   10.1508 H   0  0  0  0  0  0  0  0  0  0  0  0  # atno 3767 bound_to 3762
    3.0533  -20.2021    8.4885 H   0  0  0  0  0  0  0  0  0  0  0  0  # atno 3841 bound_to 3832
    3.6652   -8.7620    3.8097 LP  0  0  0  0  0  0  0  0  0  0  0  0  # atno 4297 bound_to 1298
    4.9089   -9.1100    4.8090 LP  0  0  0  0  0  0  0  0  0  0  0  0  # atno 4298 bound_to 1298
    2.1583   -8.4966    7.9285 LP  0  0  0  0  0  0  0  0  0  0  0  0  # atno 4299 bound_to 2456
    0.8529   -8.0690    7.0456 LP  0  0  0  0  0  0  0  0  0  0  0  0  # atno 4300 bound_to 2456
    2.2764   -7.4089    5.1220 LP  0  0  0  0  0  0  0  0  0  0  0  0  # atno 4301 bound_to 2510
    2.8326   -8.8243    4.5270 LP  0  0  0  0  0  0  0  0  0  0  0  0  # atno 4302 bound_to 2510
   -3.0472  -17.3088   14.8642 LP  0  0  0  0  0  0  0  0  0  0  0  0  # atno 4306 bound_to 3712
   -3.5318  -16.6850   13.4349 LP  0  0  0  0  0  0  0  0  0  0  0  0  # atno 4307 bound_to 3712
    2.1772  -21.0811    9.5062 LP  0  0  0  0  0  0  0  0  0  0  0  0  # atno 4314 bound_to 3832
    1.5252  -19.7878    8.7520 LP  0  0  0  0  0  0  0  0  0  0  0  0  # atno 4315 bound_to 3832
   -5.4290  -22.0175   10.8963 LP  0  0  0  0  0  0  0  0  0  0  0  0  # atno 4318 bound_to 3762
   -4.0427  -22.6102   11.5237 LP  0  0  0  0  0  0  0  0  0  0  0  0  # atno 4319 bound_to 3762
   -5.3395   -5.3895    9.0296 LP  0  0  0  0  0  0  0  0  0  0  0  0  # atno 4320 bound_to 2467
   -4.6557   -4.8207    7.6601 LP  0  0  0  0  0  0  0  0  0  0  0  0  # atno 4321 bound_to 2467

> <Gold.Score>
     Score     S(PLP)   S(hbond)     S(cho)   S(metal)  DE(clash)   DE(tors)     intcor
     34.07     -31.71       1.00       0.00       0.00       0.00       0.32       0.00

> <Gold.PLP.Fitness>
34.0686

> <Gold.PLP.PLP>
-31.7121

> <Gold.PLP.part.hbond>
-1.0000

> <Gold.PLP.part.metal>
0.0000

> <Gold.PLP.part.buried>
-4.3152

> <Gold.PLP.part.nonpolar>
-27.2316

> <Gold.PLP.part.repulsive>
0.2650

> <Gold.PLP.ligand.clash>
0.0000

> <Gold.PLP.ligand.torsion>
0.3218

> <Gold.PLP.Chemscore.Hbond>
1.0000

> <Gold.PLP.Chemscore.CHOScore>
0.0000

> <Gold.PLP.Chemscore.Metal>
0.0000

> <Gold.Chemscore.Hbonds>
donor molecule, donor type, donor heavy atom, donor atom, acceptor molecule, acceptor atom, score
      P1  H  2456  2461       L1     8  1.00

> <Gold.PLP.Chemscore.Internal.Correction>
0.0001

