#       Name:                EN300-370562_i001
#       Creating user name   fsindt
#       Creation time:       Tue Feb 28 09:31:09 2023


#       File generated by GOLD software.
#

@<TRIPOS>MOLECULE
EN300-370562_i001|acide_1|mol2|3777|dock14
    17    17     1
SMALL
USER_CHARGES


@<TRIPOS>ATOM
      1 C1          -1.3014 -18.2800   8.5884 C.3            1 <1>                0.0000
      2 C2          -0.7009 -18.9662   9.8171 C.3            1 <1>                0.0000
      3 N3          -0.4369 -17.9662  10.8546 N.pl3          1 <1>                0.0000
      4 N4          -0.0935 -16.6284  10.6311 N.2            1 <1>                0.0000
      5 C5           0.0668 -16.0335  11.7799 C.2            1 <1>                0.0000
      6 C6          -0.1717 -16.9830  12.8014 C.2            1 <1>                0.0000
      7 C7          -0.1013 -16.7442  14.2491 C.2            1 <1>                0.0000
      8 O8           0.4945 -15.7659  14.6797 O.co2          1 <1>                0.0000
      9 O9          -0.6386 -17.5236  15.0247 O.co2          1 <1>               -1.0000
     10 C10         -0.4896 -18.1783  12.1787 C.2            1 <1>                0.0000
     11 Br11        -0.9080 -19.8112  13.0359 Br             1 <1>                0.0000
     12 H12         -0.5998 -17.5379   8.2075 H              1 <1>                0.0000
     13 H13         -1.4978 -19.0240   7.8164 H              1 <1>                0.0000
     14 H14         -2.2343 -17.7893   8.8659 H              1 <1>                0.0000
     15 H15         -1.4025 -19.7083  10.1979 H              1 <1>                0.0000
     16 H16          0.2320 -19.4569   9.5395 H              1 <1>                0.0000
     17 H17          0.3350 -14.9976  11.9261 H              1 <1>                0.0000
@<TRIPOS>BOND
    1    1    2 1     
    2    1   12 1     
    3    1   13 1     
    4    1   14 1     
    5    2    3 1     
    6    2   15 1     
    7    2   16 1     
    8    3    4 1     
    9    3   10 1     
   10    4    5 2     
   11    5    6 1     
   12    5   17 1     
   13    6    7 1     
   14    6   10 2     
   15    7    8 ar    
   16    7    9 ar    
   17   10   11 1     
@<TRIPOS>SUBSTRUCTURE
      1 ****           1
@<TRIPOS>COMMENT
> <Gold.Version>
2022.2.0

> <Gold.Id.Protein>
3pbl|protein|mol2

> <Gold.Protein.RotatedTorsions>
[ 1303 1298 1297 1294 ] final  -75.18 input  179.99 | X-H torsion
[ 2461 2456 2455 2452 ] final  -45.46 input   30.03 | X-H torsion
[ 2515 2510 2509 2506 ] final   16.66 input  -89.99 | X-H torsion
[ 3721 3712 3711 3710 ] final  -25.86 input -179.91 | X-H torsion
[ 3841 3832 3831 3830 ] final  147.11 input -179.91 | X-H torsion
[ 3767 3762 3761 3758 ] final  -77.69 input  -89.99 | X-H torsion
[ 2472 2467 2466 2463 ] final  -24.95 input  -89.97 | X-H torsion

> <Gold.Protein.ActiveResidues>
 VAL82   VAL86   LEU89   PHE106  VAL107  ASP110  VAL111  MET112  CYS114  THR115 
 CYS181  SER182  ILE183  PHE188  VAL189  ILE190  SER192  SER193  SER196  TRP342 
 PHE345  PHE346  HIS349  VAL350  TYR365  THR369  GLY372  TYR373 

> <Gold.Protein.RotatedAtoms>
    3.6484   -8.7792    3.8054 H   0  0  0  0  0  0  0  0  0  0  0  0  # atno 1303 bound_to 1298
    0.4662   -8.3891    7.2305 H   0  0  0  0  0  0  0  0  0  0  0  0  # atno 2461 bound_to 2456
   -3.6470   -4.9894    8.4341 H   0  0  0  0  0  0  0  0  0  0  0  0  # atno 2472 bound_to 2467
    2.4249   -7.4868    4.8102 H   0  0  0  0  0  0  0  0  0  0  0  0  # atno 2515 bound_to 2510
   -2.5813  -17.7438   14.5523 H   0  0  0  0  0  0  0  0  0  0  0  0  # atno 3721 bound_to 3712
   -5.3440  -21.9558   11.0527 H   0  0  0  0  0  0  0  0  0  0  0  0  # atno 3767 bound_to 3762
    3.1288  -20.4398    8.6545 H   0  0  0  0  0  0  0  0  0  0  0  0  # atno 3841 bound_to 3832
    4.9068   -9.0880    4.7990 LP  0  0  0  0  0  0  0  0  0  0  0  0  # atno 4297 bound_to 1298
    3.8071  -10.2543    4.4874 LP  0  0  0  0  0  0  0  0  0  0  0  0  # atno 4298 bound_to 1298
    1.2203   -9.2739    8.3776 LP  0  0  0  0  0  0  0  0  0  0  0  0  # atno 4299 bound_to 2456
    2.0511   -8.1450    7.5399 LP  0  0  0  0  0  0  0  0  0  0  0  0  # atno 4300 bound_to 2456
    2.7854   -9.0787    4.7689 LP  0  0  0  0  0  0  0  0  0  0  0  0  # atno 4301 bound_to 2510
    2.0864   -8.4340    6.0964 LP  0  0  0  0  0  0  0  0  0  0  0  0  # atno 4302 bound_to 2510
   -3.5476  -16.5605   14.0585 LP  0  0  0  0  0  0  0  0  0  0  0  0  # atno 4306 bound_to 3712
   -2.9999  -17.6802   13.0036 LP  0  0  0  0  0  0  0  0  0  0  0  0  # atno 4307 bound_to 3712
    1.8869  -20.9263    9.5474 LP  0  0  0  0  0  0  0  0  0  0  0  0  # atno 4314 bound_to 3832
    1.7282  -19.6679    8.5189 LP  0  0  0  0  0  0  0  0  0  0  0  0  # atno 4315 bound_to 3832
   -3.9674  -22.7515   11.4251 LP  0  0  0  0  0  0  0  0  0  0  0  0  # atno 4318 bound_to 3762
   -4.8162  -23.1675   10.0934 LP  0  0  0  0  0  0  0  0  0  0  0  0  # atno 4319 bound_to 3762
   -4.9024   -5.4623    9.3650 LP  0  0  0  0  0  0  0  0  0  0  0  0  # atno 4320 bound_to 2467
   -5.1673   -4.9418    7.8400 LP  0  0  0  0  0  0  0  0  0  0  0  0  # atno 4321 bound_to 2467

> <Gold.Score>
     Score     S(PLP)   S(hbond)     S(cho)   S(metal)  DE(clash)   DE(tors)     intcor
     32.58     -27.69       1.98       0.00       0.00       0.00       0.52       0.00

> <Gold.PLP.Fitness>
32.5816

> <Gold.PLP.PLP>
-27.6891

> <Gold.PLP.part.hbond>
-2.0000

> <Gold.PLP.part.metal>
0.0000

> <Gold.PLP.part.buried>
-3.0313

> <Gold.PLP.part.nonpolar>
-24.6077

> <Gold.PLP.part.repulsive>
0.6101

> <Gold.PLP.ligand.clash>
0.0000

> <Gold.PLP.ligand.torsion>
0.5178

> <Gold.PLP.Chemscore.Hbond>
1.9760

> <Gold.PLP.Chemscore.CHOScore>
0.0000

> <Gold.PLP.Chemscore.Metal>
0.0000

> <Gold.Chemscore.Hbonds>
donor molecule, donor type, donor heavy atom, donor atom, acceptor molecule, acceptor atom, score
      P1  H  2305  2313       L1     8  1.00
      P1  H  3712  3721       L1     9  0.98

> <Gold.PLP.Chemscore.Internal.Correction>
0.0001

