#       Name:                EN300-370562_i001
#       Creating user name   fsindt
#       Creation time:       Tue Feb 28 09:31:09 2023


#       File generated by GOLD software.
#

@<TRIPOS>MOLECULE
EN300-370562_i001|acide_1|mol2|3777|dock15
    17    17     1
SMALL
USER_CHARGES


@<TRIPOS>ATOM
      1 C1           0.2363 -14.9968  11.9047 C.3            1 <1>                0.0000
      2 C2          -0.1072 -15.6452  10.5620 C.3            1 <1>                0.0000
      3 N3           0.3612 -14.7869   9.4712 N.pl3          1 <1>                0.0000
      4 N4           1.1904 -15.1851   8.4170 N.2            1 <1>                0.0000
      5 C5           1.4021 -14.1643   7.6343 C.2            1 <1>                0.0000
      6 C6           0.7051 -13.0536   8.1656 C.2            1 <1>                0.0000
      7 C7           0.6660 -11.6969   7.6035 C.2            1 <1>                0.0000
      8 O8           1.2270 -11.4578   6.5426 O.co2          1 <1>                0.0000
      9 O9           0.0723 -10.8059   8.1960 O.co2          1 <1>               -1.0000
     10 C10          0.0620 -13.4882   9.3124 C.2            1 <1>                0.0000
     11 Br11        -1.0263 -12.4420  10.4513 Br             1 <1>                0.0000
     12 H12         -0.2503 -14.0239  11.9734 H              1 <1>                0.0000
     13 H13         -0.1122 -15.6355  12.7163 H              1 <1>                0.0000
     14 H14          1.3162 -14.8693  11.9808 H              1 <1>                0.0000
     15 H15          0.3792 -16.6181  10.4933 H              1 <1>                0.0000
     16 H16         -1.1871 -15.7727  10.4859 H              1 <1>                0.0000
     17 H17          2.0045 -14.1661   6.7379 H              1 <1>                0.0000
@<TRIPOS>BOND
    1    1    2 1     
    2    1   12 1     
    3    1   13 1     
    4    1   14 1     
    5    2    3 1     
    6    2   15 1     
    7    2   16 1     
    8    3    4 1     
    9    3   10 1     
   10    4    5 2     
   11    5    6 1     
   12    5   17 1     
   13    6    7 1     
   14    6   10 2     
   15    7    8 ar    
   16    7    9 ar    
   17   10   11 1     
@<TRIPOS>SUBSTRUCTURE
      1 ****           1
@<TRIPOS>COMMENT
> <Gold.Version>
2022.2.0

> <Gold.Id.Protein>
3pbl|protein|mol2

> <Gold.Protein.RotatedTorsions>
[ 1303 1298 1297 1294 ] final  -60.97 input  179.99 | X-H torsion
[ 2461 2456 2455 2452 ] final -135.12 input   30.03 | X-H torsion
[ 2515 2510 2509 2506 ] final   45.56 input  -89.99 | X-H torsion
[ 3721 3712 3711 3710 ] final -128.05 input -179.91 | X-H torsion
[ 3841 3832 3831 3830 ] final  -34.73 input -179.91 | X-H torsion
[ 3767 3762 3761 3758 ] final  121.32 input  -89.99 | X-H torsion
[ 2472 2467 2466 2463 ] final  -52.92 input  -89.97 | X-H torsion

> <Gold.Protein.ActiveResidues>
 VAL82   VAL86   LEU89   PHE106  VAL107  ASP110  VAL111  MET112  CYS114  THR115 
 CYS181  SER182  ILE183  PHE188  VAL189  ILE190  SER192  SER193  SER196  TRP342 
 PHE345  PHE346  HIS349  VAL350  TYR365  THR369  GLY372  TYR373 

> <Gold.Protein.RotatedAtoms>
    3.5070   -8.9627    3.7783 H   0  0  0  0  0  0  0  0  0  0  0  0  # atno 1303 bound_to 1298
    0.7614   -9.2534    8.1970 H   0  0  0  0  0  0  0  0  0  0  0  0  # atno 2461 bound_to 2456
   -3.6834   -5.1470    8.8602 H   0  0  0  0  0  0  0  0  0  0  0  0  # atno 2472 bound_to 2467
    2.2309   -7.4124    5.2320 H   0  0  0  0  0  0  0  0  0  0  0  0  # atno 2515 bound_to 2510
   -3.2566  -16.6041   14.3026 H   0  0  0  0  0  0  0  0  0  0  0  0  # atno 3721 bound_to 3712
   -3.9487  -23.1789   10.9219 H   0  0  0  0  0  0  0  0  0  0  0  0  # atno 3767 bound_to 3762
    1.5635  -20.0757    9.2978 H   0  0  0  0  0  0  0  0  0  0  0  0  # atno 3841 bound_to 3832
    4.8603   -8.8877    4.6890 LP  0  0  0  0  0  0  0  0  0  0  0  0  # atno 4297 bound_to 1298
    3.9951  -10.2711    4.6245 LP  0  0  0  0  0  0  0  0  0  0  0  0  # atno 4298 bound_to 1298
    2.1607   -8.4658    7.8985 LP  0  0  0  0  0  0  0  0  0  0  0  0  # atno 4299 bound_to 2456
    0.8155   -8.0892    7.0528 LP  0  0  0  0  0  0  0  0  0  0  0  0  # atno 4300 bound_to 2456
    2.8359   -8.7217    4.4668 LP  0  0  0  0  0  0  0  0  0  0  0  0  # atno 4301 bound_to 2510
    2.2300   -8.8655    5.9764 LP  0  0  0  0  0  0  0  0  0  0  0  0  # atno 4302 bound_to 2510
   -3.1238  -17.4711   12.9578 LP  0  0  0  0  0  0  0  0  0  0  0  0  # atno 4306 bound_to 3712
   -2.6441  -18.0855   14.3927 LP  0  0  0  0  0  0  0  0  0  0  0  0  # atno 4307 bound_to 3712
    2.6559  -19.8837    8.1377 LP  0  0  0  0  0  0  0  0  0  0  0  0  # atno 4314 bound_to 3832
    2.7674  -21.1311    9.1856 LP  0  0  0  0  0  0  0  0  0  0  0  0  # atno 4315 bound_to 3832
   -5.3113  -22.7334   10.1398 LP  0  0  0  0  0  0  0  0  0  0  0  0  # atno 4318 bound_to 3762
   -4.8670  -21.9630   11.5094 LP  0  0  0  0  0  0  0  0  0  0  0  0  # atno 4319 bound_to 3762
   -5.2756   -5.4109    9.1085 LP  0  0  0  0  0  0  0  0  0  0  0  0  # atno 4320 bound_to 2467
   -4.7578   -4.8357    7.6705 LP  0  0  0  0  0  0  0  0  0  0  0  0  # atno 4321 bound_to 2467

> <Gold.Score>
     Score     S(PLP)   S(hbond)     S(cho)   S(metal)  DE(clash)   DE(tors)     intcor
     33.31     -29.48       1.00       0.31       0.00       0.00       0.04       0.00

> <Gold.PLP.Fitness>
33.3102

> <Gold.PLP.PLP>
-29.4839

> <Gold.PLP.part.hbond>
-1.0391

> <Gold.PLP.part.metal>
0.0000

> <Gold.PLP.part.buried>
-4.8800

> <Gold.PLP.part.nonpolar>
-25.2590

> <Gold.PLP.part.repulsive>
1.2937

> <Gold.PLP.ligand.clash>
0.0000

> <Gold.PLP.ligand.torsion>
0.0444

> <Gold.PLP.Chemscore.Hbond>
1.0000

> <Gold.PLP.Chemscore.CHOScore>
0.3050

> <Gold.PLP.Chemscore.Metal>
0.0000

> <Gold.Chemscore.Hbonds>
donor molecule, donor type, donor heavy atom, donor atom, acceptor molecule, acceptor atom, score
      P1  H  2456  2461       L1     9  1.00
      L1  C     5    17       P1  1223  0.31

> <Gold.PLP.Chemscore.Internal.Correction>
0.0001

