#       Name:                EN300-370562_i001
#       Creating user name   fsindt
#       Creation time:       Tue Feb 28 09:31:11 2023


#       File generated by GOLD software.
#

@<TRIPOS>MOLECULE
EN300-370562_i001|acide_1|mol2|3777|dock19
    17    17     1
SMALL
USER_CHARGES


@<TRIPOS>ATOM
      1 C1          -0.0611 -22.1970  12.7962 C.3            1 <1>                0.0000
      2 C2           1.3011 -21.6057  13.1648 C.3            1 <1>                0.0000
      3 N3           1.1148 -20.2709  13.7389 N.pl3          1 <1>                0.0000
      4 N4           1.5779 -19.8478  14.9896 N.2            1 <1>                0.0000
      5 C5           1.2322 -18.6041  15.1719 C.2            1 <1>                0.0000
      6 C6           0.5222 -18.1748  14.0259 C.2            1 <1>                0.0000
      7 C7          -0.0526 -16.8413  13.8035 C.2            1 <1>                0.0000
      8 O8           0.3323 -15.8901  14.4703 O.co2          1 <1>                0.0000
      9 O9          -0.9163 -16.6815  12.9514 O.co2          1 <1>               -1.0000
     10 C10          0.4766 -19.2471  13.1509 C.2            1 <1>                0.0000
     11 Br11        -0.3446 -19.2689  11.4475 Br             1 <1>                0.0000
     12 H12         -0.5514 -21.5527  12.0664 H              1 <1>                0.0000
     13 H13          0.0774 -23.1901  12.3690 H              1 <1>                0.0000
     14 H14         -0.6798 -22.2693  13.6907 H              1 <1>                0.0000
     15 H15          1.7914 -22.2499  13.8945 H              1 <1>                0.0000
     16 H16          1.9198 -21.5334  12.2703 H              1 <1>                0.0000
     17 H17          1.4493 -18.0066  16.0450 H              1 <1>                0.0000
@<TRIPOS>BOND
    1    1    2 1     
    2    1   12 1     
    3    1   13 1     
    4    1   14 1     
    5    2    3 1     
    6    2   15 1     
    7    2   16 1     
    8    3    4 1     
    9    3   10 1     
   10    4    5 2     
   11    5    6 1     
   12    5   17 1     
   13    6    7 1     
   14    6   10 2     
   15    7    8 ar    
   16    7    9 ar    
   17   10   11 1     
@<TRIPOS>SUBSTRUCTURE
      1 ****           1
@<TRIPOS>COMMENT
> <Gold.Version>
2022.2.0

> <Gold.Id.Protein>
3pbl|protein|mol2

> <Gold.Protein.RotatedTorsions>
[ 1303 1298 1297 1294 ] final -131.91 input  179.99 | X-H torsion
[ 2461 2456 2455 2452 ] final  130.81 input   30.03 | X-H torsion
[ 2515 2510 2509 2506 ] final -128.49 input  -89.99 | X-H torsion
[ 3721 3712 3711 3710 ] final   80.29 input -179.91 | X-H torsion
[ 3841 3832 3831 3830 ] final   56.96 input -179.91 | X-H torsion
[ 3767 3762 3761 3758 ] final  109.79 input  -89.99 | X-H torsion
[ 2472 2467 2466 2463 ] final -113.67 input  -89.97 | X-H torsion

> <Gold.Protein.ActiveResidues>
 VAL82   VAL86   LEU89   PHE106  VAL107  ASP110  VAL111  MET112  CYS114  THR115 
 CYS181  SER182  ILE183  PHE188  VAL189  ILE190  SER192  SER193  SER196  TRP342 
 PHE345  PHE346  HIS349  VAL350  TYR365  THR369  GLY372  TYR373 

> <Gold.Protein.RotatedAtoms>
    4.3922   -8.4847    4.2079 H   0  0  0  0  0  0  0  0  0  0  0  0  # atno 1303 bound_to 1298
    2.0553   -8.7734    8.1691 H   0  0  0  0  0  0  0  0  0  0  0  0  # atno 2461 bound_to 2456
   -4.3987   -5.4289    9.4239 H   0  0  0  0  0  0  0  0  0  0  0  0  # atno 2472 bound_to 2467
    2.6689   -9.2401    5.1279 H   0  0  0  0  0  0  0  0  0  0  0  0  # atno 2515 bound_to 2510
   -2.7151  -17.7242   13.1741 H   0  0  0  0  0  0  0  0  0  0  0  0  # atno 3721 bound_to 3712
   -4.0153  -23.2566   10.7626 H   0  0  0  0  0  0  0  0  0  0  0  0  # atno 3767 bound_to 3762
    2.4294  -20.9350    9.5310 H   0  0  0  0  0  0  0  0  0  0  0  0  # atno 3841 bound_to 3832
    4.6285   -9.9291    4.9320 LP  0  0  0  0  0  0  0  0  0  0  0  0  # atno 4297 bound_to 1298
    3.3413   -9.7079    3.9517 LP  0  0  0  0  0  0  0  0  0  0  0  0  # atno 4298 bound_to 1298
    1.2120   -7.9421    7.0442 LP  0  0  0  0  0  0  0  0  0  0  0  0  # atno 4299 bound_to 2456
    0.4708   -9.0927    7.9349 LP  0  0  0  0  0  0  0  0  0  0  0  0  # atno 4300 bound_to 2456
    2.0306   -8.0335    6.0238 LP  0  0  0  0  0  0  0  0  0  0  0  0  # atno 4301 bound_to 2510
    2.5970   -7.7251    4.5236 LP  0  0  0  0  0  0  0  0  0  0  0  0  # atno 4302 bound_to 2510
   -2.8278  -17.7055   14.7756 LP  0  0  0  0  0  0  0  0  0  0  0  0  # atno 4306 bound_to 3712
   -3.5652  -16.5579   13.8778 LP  0  0  0  0  0  0  0  0  0  0  0  0  # atno 4307 bound_to 3712
    1.4742  -19.8477    8.8373 LP  0  0  0  0  0  0  0  0  0  0  0  0  # atno 4314 bound_to 3832
    2.9488  -20.1744    8.2166 LP  0  0  0  0  0  0  0  0  0  0  0  0  # atno 4315 bound_to 3832
   -5.4051  -22.5909   10.2220 LP  0  0  0  0  0  0  0  0  0  0  0  0  # atno 4318 bound_to 3762
   -4.7067  -22.0277   11.5864 LP  0  0  0  0  0  0  0  0  0  0  0  0  # atno 4319 bound_to 3762
   -5.4572   -5.1113    8.2218 LP  0  0  0  0  0  0  0  0  0  0  0  0  # atno 4320 bound_to 2467
   -3.8610   -4.8534    7.9935 LP  0  0  0  0  0  0  0  0  0  0  0  0  # atno 4321 bound_to 2467

> <Gold.Score>
     Score     S(PLP)   S(hbond)     S(cho)   S(metal)  DE(clash)   DE(tors)     intcor
     30.19     -23.28       1.43       0.98       0.00       0.00       0.17       0.00

> <Gold.PLP.Fitness>
30.1901

> <Gold.PLP.PLP>
-23.2815

> <Gold.PLP.part.hbond>
-2.0000

> <Gold.PLP.part.metal>
0.0000

> <Gold.PLP.part.buried>
-3.8344

> <Gold.PLP.part.nonpolar>
-17.9611

> <Gold.PLP.part.repulsive>
0.1904

> <Gold.PLP.ligand.clash>
0.0000

> <Gold.PLP.ligand.torsion>
0.1699

> <Gold.PLP.Chemscore.Hbond>
1.4320

> <Gold.PLP.Chemscore.CHOScore>
0.9841

> <Gold.PLP.Chemscore.Metal>
0.0000

> <Gold.Chemscore.Hbonds>
donor molecule, donor type, donor heavy atom, donor atom, acceptor molecule, acceptor atom, score
      P1  H  2305  2313       L1     8  1.00
      P1  H  3712  3721       L1     9  0.43
      L1  C     5    17       P1  2287  0.98

> <Gold.PLP.Chemscore.Internal.Correction>
0.0001

