#       Name:                EN300-370562_i001
#       Creating user name   fsindt
#       Creation time:       Tue Feb 28 09:31:04 2023


#       File generated by GOLD software.
#

@<TRIPOS>MOLECULE
EN300-370562_i001|acide_1|mol2|3777|dock2
    17    17     1
SMALL
USER_CHARGES


@<TRIPOS>ATOM
      1 C1          -3.3692 -10.4527   9.9686 C.3            1 <1>                0.0000
      2 C2          -1.9321  -9.9310  10.0293 C.3            1 <1>                0.0000
      3 N3          -1.0409 -10.8749   9.3503 N.pl3          1 <1>                0.0000
      4 N4          -0.3923 -10.6528   8.1306 N.2            1 <1>                0.0000
      5 C5           0.3173 -11.7040   7.8294 C.2            1 <1>                0.0000
      6 C6           0.1481 -12.6566   8.8617 C.2            1 <1>                0.0000
      7 C7           0.7659 -13.9876   8.9315 C.2            1 <1>                0.0000
      8 O8           0.5827 -14.6966   9.9119 O.co2          1 <1>                0.0000
      9 O9           1.4637 -14.3875   8.0091 O.co2          1 <1>               -1.0000
     10 C10         -0.7050 -12.0951   9.7968 C.2            1 <1>                0.0000
     11 Br11        -1.2976 -12.9034  11.4004 Br             1 <1>                0.0000
     12 H12         -3.4245 -11.4234  10.4613 H              1 <1>                0.0000
     13 H13         -4.0323  -9.7505  10.4738 H              1 <1>                0.0000
     14 H14         -3.6745 -10.5559   8.9273 H              1 <1>                0.0000
     15 H15         -1.8768  -8.9604   9.5366 H              1 <1>                0.0000
     16 H16         -1.6267  -9.8279  11.0706 H              1 <1>                0.0000
     17 H17          0.9270 -11.8265   6.9463 H              1 <1>                0.0000
@<TRIPOS>BOND
    1    1    2 1     
    2    1   12 1     
    3    1   13 1     
    4    1   14 1     
    5    2    3 1     
    6    2   15 1     
    7    2   16 1     
    8    3    4 1     
    9    3   10 1     
   10    4    5 2     
   11    5    6 1     
   12    5   17 1     
   13    6    7 1     
   14    6   10 2     
   15    7    8 ar    
   16    7    9 ar    
   17   10   11 1     
@<TRIPOS>SUBSTRUCTURE
      1 ****           1
@<TRIPOS>COMMENT
> <Gold.Version>
2022.2.0

> <Gold.Id.Protein>
3pbl|protein|mol2

> <Gold.Protein.RotatedTorsions>
[ 1303 1298 1297 1294 ] final  -87.43 input  179.99 | X-H torsion
[ 2461 2456 2455 2452 ] final -121.12 input   30.03 | X-H torsion
[ 2515 2510 2509 2506 ] final -145.17 input  -89.99 | X-H torsion
[ 3721 3712 3711 3710 ] final -154.54 input -179.91 | X-H torsion
[ 3841 3832 3831 3830 ] final  -78.64 input -179.91 | X-H torsion
[ 3767 3762 3761 3758 ] final  -41.48 input  -89.99 | X-H torsion
[ 2472 2467 2466 2463 ] final  -44.67 input  -89.97 | X-H torsion

> <Gold.Protein.ActiveResidues>
 VAL82   VAL86   LEU89   PHE106  VAL107  ASP110  VAL111  MET112  CYS114  THR115 
 CYS181  SER182  ILE183  PHE188  VAL189  ILE190  SER192  SER193  SER196  TRP342 
 PHE345  PHE346  HIS349  VAL350  TYR365  THR369  GLY372  TYR373 

> <Gold.Protein.RotatedAtoms>
    3.7938   -8.6499    3.8562 H   0  0  0  0  0  0  0  0  0  0  0  0  # atno 1303 bound_to 1298
    0.5879   -9.1815    8.0646 H   0  0  0  0  0  0  0  0  0  0  0  0  # atno 2461 bound_to 2456
   -3.6497   -5.0992    8.7378 H   0  0  0  0  0  0  0  0  0  0  0  0  # atno 2472 bound_to 2467
    2.5652   -9.2530    5.3805 H   0  0  0  0  0  0  0  0  0  0  0  0  # atno 2515 bound_to 2510
   -3.3331  -16.5299   13.9203 H   0  0  0  0  0  0  0  0  0  0  0  0  # atno 3721 bound_to 3712
   -5.5109  -22.2269   10.5605 H   0  0  0  0  0  0  0  0  0  0  0  0  # atno 3767 bound_to 3762
    1.7416  -19.6709    8.8251 H   0  0  0  0  0  0  0  0  0  0  0  0  # atno 3841 bound_to 3832
    4.9083   -9.2752    4.8727 LP  0  0  0  0  0  0  0  0  0  0  0  0  # atno 4297 bound_to 1298
    3.6601  -10.1965    4.3628 LP  0  0  0  0  0  0  0  0  0  0  0  0  # atno 4298 bound_to 1298
    2.1260   -8.6323    8.0528 LP  0  0  0  0  0  0  0  0  0  0  0  0  # atno 4299 bound_to 2456
    1.0236   -7.9945    7.0308 LP  0  0  0  0  0  0  0  0  0  0  0  0  # atno 4300 bound_to 2456
    2.0356   -7.7951    5.8901 LP  0  0  0  0  0  0  0  0  0  0  0  0  # atno 4301 bound_to 2510
    2.6958   -7.9506    4.4046 LP  0  0  0  0  0  0  0  0  0  0  0  0  # atno 4302 bound_to 2510
   -2.9064  -17.8312   13.0822 LP  0  0  0  0  0  0  0  0  0  0  0  0  # atno 4306 bound_to 3712
   -2.7732  -17.8110   14.7096 LP  0  0  0  0  0  0  0  0  0  0  0  0  # atno 4307 bound_to 3712
    3.0813  -20.4179    8.3526 LP  0  0  0  0  0  0  0  0  0  0  0  0  # atno 4314 bound_to 3832
    2.1362  -21.0645    9.5168 LP  0  0  0  0  0  0  0  0  0  0  0  0  # atno 4315 bound_to 3832
   -4.2909  -22.3141   11.6426 LP  0  0  0  0  0  0  0  0  0  0  0  0  # atno 4318 bound_to 3762
   -4.3259  -23.3339   10.3678 LP  0  0  0  0  0  0  0  0  0  0  0  0  # atno 4319 bound_to 3762
   -5.1794   -5.4337    9.2012 LP  0  0  0  0  0  0  0  0  0  0  0  0  # atno 4320 bound_to 2467
   -4.8877   -4.8606    7.7001 LP  0  0  0  0  0  0  0  0  0  0  0  0  # atno 4321 bound_to 2467

> <Gold.Score>
     Score     S(PLP)   S(hbond)     S(cho)   S(metal)  DE(clash)   DE(tors)     intcor
     39.83     -37.03       1.00       0.00       0.00       0.00       0.10       0.00

> <Gold.PLP.Fitness>
39.8297

> <Gold.PLP.PLP>
-37.0335

> <Gold.PLP.part.hbond>
-1.0000

> <Gold.PLP.part.metal>
0.0000

> <Gold.PLP.part.buried>
-3.2446

> <Gold.PLP.part.nonpolar>
-32.8952

> <Gold.PLP.part.repulsive>
0.2652

> <Gold.PLP.ligand.clash>
0.0000

> <Gold.PLP.ligand.torsion>
0.1020

> <Gold.PLP.Chemscore.Hbond>
1.0000

> <Gold.PLP.Chemscore.CHOScore>
0.0000

> <Gold.PLP.Chemscore.Metal>
0.0000

> <Gold.Chemscore.Hbonds>
donor molecule, donor type, donor heavy atom, donor atom, acceptor molecule, acceptor atom, score
      P1  H  2456  2461       L1     4  1.00

> <Gold.PLP.Chemscore.Internal.Correction>
0.0001

