#       Name:                EN300-370562_i001
#       Creating user name   fsindt
#       Creation time:       Tue Feb 28 09:31:05 2023


#       File generated by GOLD software.
#

@<TRIPOS>MOLECULE
EN300-370562_i001|acide_1|mol2|3777|dock5
    17    17     1
SMALL
USER_CHARGES


@<TRIPOS>ATOM
      1 C1           0.2513 -15.2950   7.2073 C.3            1 <1>                0.0000
      2 C2           0.8678 -14.7952   8.5154 C.3            1 <1>                0.0000
      3 N3           0.3304 -13.4700   8.8335 N.pl3          1 <1>                0.0000
      4 N4           0.2870 -12.3757   7.9628 N.2            1 <1>                0.0000
      5 C5          -0.2556 -11.3635   8.5796 C.2            1 <1>                0.0000
      6 C6          -0.5865 -11.7768   9.8917 C.2            1 <1>                0.0000
      7 C7          -1.2178 -10.9551  10.9329 C.2            1 <1>                0.0000
      8 O8          -1.5323 -11.4588  12.0029 O.co2          1 <1>                0.0000
      9 O9          -1.4292  -9.7669  10.7304 O.co2          1 <1>               -1.0000
     10 C10         -0.2081 -13.1039  10.0071 C.2            1 <1>                0.0000
     11 Br11        -0.4025 -14.1950  11.5393 Br             1 <1>                0.0000
     12 H12          0.4949 -14.6014   6.4025 H              1 <1>                0.0000
     13 H13          0.6511 -16.2810   6.9706 H              1 <1>                0.0000
     14 H14         -0.8313 -15.3586   7.3169 H              1 <1>                0.0000
     15 H15          0.6243 -15.4887   9.3202 H              1 <1>                0.0000
     16 H16          1.9504 -14.7315   8.4058 H              1 <1>                0.0000
     17 H17         -0.4227 -10.3815   8.1623 H              1 <1>                0.0000
@<TRIPOS>BOND
    1    1    2 1     
    2    1   12 1     
    3    1   13 1     
    4    1   14 1     
    5    2    3 1     
    6    2   15 1     
    7    2   16 1     
    8    3    4 1     
    9    3   10 1     
   10    4    5 2     
   11    5    6 1     
   12    5   17 1     
   13    6    7 1     
   14    6   10 2     
   15    7    8 ar    
   16    7    9 ar    
   17   10   11 1     
@<TRIPOS>SUBSTRUCTURE
      1 ****           1
@<TRIPOS>COMMENT
> <Gold.Version>
2022.2.0

> <Gold.Id.Protein>
3pbl|protein|mol2

> <Gold.Protein.RotatedTorsions>
[ 1303 1298 1297 1294 ] final   53.11 input  179.99 | X-H torsion
[ 2461 2456 2455 2452 ] final  109.57 input   30.03 | X-H torsion
[ 2515 2510 2509 2506 ] final  -52.90 input  -89.99 | X-H torsion
[ 3721 3712 3711 3710 ] final  -47.80 input -179.91 | X-H torsion
[ 3841 3832 3831 3830 ] final   81.78 input -179.91 | X-H torsion
[ 3767 3762 3761 3758 ] final  -67.30 input  -89.99 | X-H torsion
[ 2472 2467 2466 2463 ] final  -83.80 input  -89.97 | X-H torsion

> <Gold.Protein.ActiveResidues>
 VAL82   VAL86   LEU89   PHE106  VAL107  ASP110  VAL111  MET112  CYS114  THR115 
 CYS181  SER182  ILE183  PHE188  VAL189  ILE190  SER192  SER193  SER196  TRP342 
 PHE345  PHE346  HIS349  VAL350  TYR365  THR369  GLY372  TYR373 

> <Gold.Protein.RotatedAtoms>
    3.9149  -10.2704    4.5692 H   0  0  0  0  0  0  0  0  0  0  0  0  # atno 1303 bound_to 1298
    2.1554   -8.5211    7.9520 H   0  0  0  0  0  0  0  0  0  0  0  0  # atno 2461 bound_to 2456
   -3.9629   -5.3153    9.2418 H   0  0  0  0  0  0  0  0  0  0  0  0  # atno 2472 bound_to 2467
    2.8078   -8.3863    4.3623 H   0  0  0  0  0  0  0  0  0  0  0  0  # atno 2515 bound_to 2510
   -2.7132  -17.4886   14.7137 H   0  0  0  0  0  0  0  0  0  0  0  0  # atno 3721 bound_to 3712
   -5.4220  -22.0101   10.9108 H   0  0  0  0  0  0  0  0  0  0  0  0  # atno 3767 bound_to 3762
    2.7500  -20.9462    9.3425 H   0  0  0  0  0  0  0  0  0  0  0  0  # atno 3841 bound_to 3832
    3.5620   -8.8825    3.7847 LP  0  0  0  0  0  0  0  0  0  0  0  0  # atno 4297 bound_to 1298
    4.8854   -8.9681    4.7376 LP  0  0  0  0  0  0  0  0  0  0  0  0  # atno 4298 bound_to 1298
    0.8829   -8.0538    7.0409 LP  0  0  0  0  0  0  0  0  0  0  0  0  # atno 4299 bound_to 2456
    0.6998   -9.2333    8.1553 LP  0  0  0  0  0  0  0  0  0  0  0  0  # atno 4300 bound_to 2456
    2.3724   -9.1059    5.7618 LP  0  0  0  0  0  0  0  0  0  0  0  0  # atno 4301 bound_to 2510
    2.1163   -7.5069    5.5515 LP  0  0  0  0  0  0  0  0  0  0  0  0  # atno 4302 bound_to 2510
   -3.5654  -16.5858   13.6956 LP  0  0  0  0  0  0  0  0  0  0  0  0  # atno 4306 bound_to 3712
   -2.8298  -17.9496   13.1802 LP  0  0  0  0  0  0  0  0  0  0  0  0  # atno 4307 bound_to 3712
    1.3896  -20.1203    9.1337 LP  0  0  0  0  0  0  0  0  0  0  0  0  # atno 4314 bound_to 3832
    2.6631  -19.8890    8.1380 LP  0  0  0  0  0  0  0  0  0  0  0  0  # atno 4315 bound_to 3832
   -4.0346  -22.6233   11.5157 LP  0  0  0  0  0  0  0  0  0  0  0  0  # atno 4318 bound_to 3762
   -4.6710  -23.2414   10.1447 LP  0  0  0  0  0  0  0  0  0  0  0  0  # atno 4319 bound_to 3762
   -5.4943   -5.2791    8.6762 LP  0  0  0  0  0  0  0  0  0  0  0  0  # atno 4320 bound_to 2467
   -4.2596   -4.7992    7.7213 LP  0  0  0  0  0  0  0  0  0  0  0  0  # atno 4321 bound_to 2467

> <Gold.Score>
     Score     S(PLP)   S(hbond)     S(cho)   S(metal)  DE(clash)   DE(tors)     intcor
     34.43     -31.60       0.00       1.00       0.00       0.00       0.09       0.00

> <Gold.PLP.Fitness>
34.4278

> <Gold.PLP.PLP>
-31.6046

> <Gold.PLP.part.hbond>
-0.5720

> <Gold.PLP.part.metal>
0.0000

> <Gold.PLP.part.buried>
-3.2910

> <Gold.PLP.part.nonpolar>
-28.4253

> <Gold.PLP.part.repulsive>
0.1448

> <Gold.PLP.ligand.clash>
0.0000

> <Gold.PLP.ligand.torsion>
0.0885

> <Gold.PLP.Chemscore.Hbond>
0.0000

> <Gold.PLP.Chemscore.CHOScore>
1.0000

> <Gold.PLP.Chemscore.Metal>
0.0000

> <Gold.Chemscore.Hbonds>
donor molecule, donor type, donor heavy atom, donor atom, acceptor molecule, acceptor atom, score
      L1  C     5    17       P1  2456  1.00

> <Gold.PLP.Chemscore.Internal.Correction>
0.0001

