#       Name:                EN300-370562_i001
#       Creating user name   fsindt
#       Creation time:       Tue Feb 28 09:31:12 2023


#       File generated by GOLD software.
#

@<TRIPOS>MOLECULE
EN300-370562_i001|acide_1|mol2|3777|dock20
    17    17     1
SMALL
USER_CHARGES


@<TRIPOS>ATOM
      1 C1          -0.7018 -17.3946   8.7113 C.3            1 <1>                0.0000
      2 C2           0.4761 -16.8489   7.9014 C.3            1 <1>                0.0000
      3 N3           0.3599 -15.3927   7.7911 N.pl3          1 <1>                0.0000
      4 N4           0.3150 -14.6650   6.5970 N.2            1 <1>                0.0000
      5 C5           0.2094 -13.3961   6.8766 C.2            1 <1>                0.0000
      6 C6           0.1821 -13.2592   8.2845 C.2            1 <1>                0.0000
      7 C7           0.0720 -12.0027   9.0376 C.2            1 <1>                0.0000
      8 O8          -0.1688 -12.0274  10.2371 O.co2          1 <1>                0.0000
      9 O9           0.2212 -10.9312   8.4655 O.co2          1 <1>               -1.0000
     10 C10          0.2728 -14.5336   8.8185 C.2            1 <1>                0.0000
     11 Br11         0.2848 -14.9800  10.6561 Br             1 <1>                0.0000
     12 H12         -1.6359 -17.1416   8.2097 H              1 <1>                0.0000
     13 H13         -0.6154 -18.4780   8.7933 H              1 <1>                0.0000
     14 H14         -0.6932 -16.9529   9.7078 H              1 <1>                0.0000
     15 H15          1.4101 -17.1019   8.4029 H              1 <1>                0.0000
     16 H16          0.4675 -17.2906   6.9049 H              1 <1>                0.0000
     17 H17          0.1531 -12.5908   6.1593 H              1 <1>                0.0000
@<TRIPOS>BOND
    1    1    2 1     
    2    1   12 1     
    3    1   13 1     
    4    1   14 1     
    5    2    3 1     
    6    2   15 1     
    7    2   16 1     
    8    3    4 1     
    9    3   10 1     
   10    4    5 2     
   11    5    6 1     
   12    5   17 1     
   13    6    7 1     
   14    6   10 2     
   15    7    8 ar    
   16    7    9 ar    
   17   10   11 1     
@<TRIPOS>SUBSTRUCTURE
      1 ****           1
@<TRIPOS>COMMENT
> <Gold.Version>
2022.2.0

> <Gold.Id.Protein>
3pbl|protein|mol2

> <Gold.Protein.RotatedTorsions>
[ 1303 1298 1297 1294 ] final  -46.36 input  179.99 | X-H torsion
[ 2461 2456 2455 2452 ] final -146.12 input   30.03 | X-H torsion
[ 2515 2510 2509 2506 ] final  114.07 input  -89.99 | X-H torsion
[ 3721 3712 3711 3710 ] final -119.80 input -179.91 | X-H torsion
[ 3841 3832 3831 3830 ] final  120.41 input -179.91 | X-H torsion
[ 3767 3762 3761 3758 ] final  -65.32 input  -89.99 | X-H torsion
[ 2472 2467 2466 2463 ] final   57.48 input  -89.97 | X-H torsion

> <Gold.Protein.ActiveResidues>
 VAL82   VAL86   LEU89   PHE106  VAL107  ASP110  VAL111  MET112  CYS114  THR115 
 CYS181  SER182  ILE183  PHE188  VAL189  ILE190  SER192  SER193  SER196  TRP342 
 PHE345  PHE346  HIS349  VAL350  TYR365  THR369  GLY372  TYR373 

> <Gold.Protein.RotatedAtoms>
    3.4009   -9.1775    3.7879 H   0  0  0  0  0  0  0  0  0  0  0  0  # atno 1303 bound_to 1298
    0.9187   -9.2829    8.2814 H   0  0  0  0  0  0  0  0  0  0  0  0  # atno 2461 bound_to 2456
   -4.6019   -4.8150    7.6586 H   0  0  0  0  0  0  0  0  0  0  0  0  # atno 2472 bound_to 2467
    2.0332   -8.0732    6.0384 H   0  0  0  0  0  0  0  0  0  0  0  0  # atno 2515 bound_to 2510
   -3.2164  -16.6579   14.4077 H   0  0  0  0  0  0  0  0  0  0  0  0  # atno 3721 bound_to 3712
   -5.4342  -22.0228   10.8835 H   0  0  0  0  0  0  0  0  0  0  0  0  # atno 3767 bound_to 3762
    3.0833  -20.7213    8.9347 H   0  0  0  0  0  0  0  0  0  0  0  0  # atno 3841 bound_to 3832
    4.7653   -8.7128    4.5551 LP  0  0  0  0  0  0  0  0  0  0  0  0  # atno 4297 bound_to 1298
    4.1963  -10.2311    4.7488 LP  0  0  0  0  0  0  0  0  0  0  0  0  # atno 4298 bound_to 1298
    2.1498   -8.3400    7.7691 LP  0  0  0  0  0  0  0  0  0  0  0  0  # atno 4299 bound_to 2456
    0.6692   -8.1855    7.0979 LP  0  0  0  0  0  0  0  0  0  0  0  0  # atno 4300 bound_to 2456
    2.5804   -7.6945    4.5474 LP  0  0  0  0  0  0  0  0  0  0  0  0  # atno 4301 bound_to 2510
    2.6833   -9.2316    5.0891 LP  0  0  0  0  0  0  0  0  0  0  0  0  # atno 4302 bound_to 2510
   -3.1922  -17.3514   12.9598 LP  0  0  0  0  0  0  0  0  0  0  0  0  # atno 4306 bound_to 3712
   -2.6221  -18.1430   14.2694 LP  0  0  0  0  0  0  0  0  0  0  0  0  # atno 4307 bound_to 3712
    1.5736  -20.6241    9.4708 LP  0  0  0  0  0  0  0  0  0  0  0  0  # atno 4314 bound_to 3832
    2.0941  -19.6450    8.2719 LP  0  0  0  0  0  0  0  0  0  0  0  0  # atno 4315 bound_to 3832
   -4.0499  -22.5989   11.5305 LP  0  0  0  0  0  0  0  0  0  0  0  0  # atno 4318 bound_to 3762
   -4.6435  -23.2532   10.1571 LP  0  0  0  0  0  0  0  0  0  0  0  0  # atno 4319 bound_to 3762
   -3.7458   -5.2014    8.9944 LP  0  0  0  0  0  0  0  0  0  0  0  0  # atno 4320 bound_to 2467
   -5.3693   -5.3770    8.9859 LP  0  0  0  0  0  0  0  0  0  0  0  0  # atno 4321 bound_to 2467

> <Gold.Score>
     Score     S(PLP)   S(hbond)     S(cho)   S(metal)  DE(clash)   DE(tors)     intcor
     32.94     -30.09       1.00       0.00       0.00       0.00       0.08       0.00

> <Gold.PLP.Fitness>
32.9356

> <Gold.PLP.PLP>
-30.0945

> <Gold.PLP.part.hbond>
-1.0000

> <Gold.PLP.part.metal>
0.0000

> <Gold.PLP.part.buried>
-1.0250

> <Gold.PLP.part.nonpolar>
-28.8808

> <Gold.PLP.part.repulsive>
0.0524

> <Gold.PLP.ligand.clash>
0.0000

> <Gold.PLP.ligand.torsion>
0.0795

> <Gold.PLP.Chemscore.Hbond>
1.0000

> <Gold.PLP.Chemscore.CHOScore>
0.0000

> <Gold.PLP.Chemscore.Metal>
0.0000

> <Gold.Chemscore.Hbonds>
donor molecule, donor type, donor heavy atom, donor atom, acceptor molecule, acceptor atom, score
      P1  H  2456  2461       L1     9  1.00

> <Gold.PLP.Chemscore.Internal.Correction>
0.0001

