#       Name:                EN300-370562_i001
#       Creating user name   fsindt
#       Creation time:       Tue Feb 28 09:31:06 2023


#       File generated by GOLD software.
#

@<TRIPOS>MOLECULE
EN300-370562_i001|acide_1|mol2|3777|dock8
    17    17     1
SMALL
USER_CHARGES


@<TRIPOS>ATOM
      1 C1          -2.6458  -9.9720  10.0528 C.3            1 <1>                0.0000
      2 C2          -1.7343 -10.8087  10.9529 C.3            1 <1>                0.0000
      3 N3          -0.7221 -11.4800  10.1340 N.pl3          1 <1>                0.0000
      4 N4          -0.1073 -10.9469   8.9958 N.2            1 <1>                0.0000
      5 C5           0.7390 -11.8184   8.5227 C.2            1 <1>                0.0000
      6 C6           0.6987 -12.9630   9.3534 C.2            1 <1>                0.0000
      7 C7           1.4911 -14.1890   9.1897 C.2            1 <1>                0.0000
      8 O8           2.0362 -14.6993  10.1593 O.co2          1 <1>                0.0000
      9 O9           1.6062 -14.7002   8.0838 O.co2          1 <1>               -1.0000
     10 C10         -0.2246 -12.7070  10.3533 C.2            1 <1>                0.0000
     11 Br11        -0.7051 -13.8756  11.7603 Br             1 <1>                0.0000
     12 H12         -3.1369 -10.6218   9.3284 H              1 <1>                0.0000
     13 H13         -3.3990  -9.4725  10.6620 H              1 <1>                0.0000
     14 H14         -2.0507  -9.2256   9.5265 H              1 <1>                0.0000
     15 H15         -1.2433 -10.1589  11.6772 H              1 <1>                0.0000
     16 H16         -2.3294 -11.5551  11.4792 H              1 <1>                0.0000
     17 H17          1.3613 -11.6894   7.6495 H              1 <1>                0.0000
@<TRIPOS>BOND
    1    1    2 1     
    2    1   12 1     
    3    1   13 1     
    4    1   14 1     
    5    2    3 1     
    6    2   15 1     
    7    2   16 1     
    8    3    4 1     
    9    3   10 1     
   10    4    5 2     
   11    5    6 1     
   12    5   17 1     
   13    6    7 1     
   14    6   10 2     
   15    7    8 ar    
   16    7    9 ar    
   17   10   11 1     
@<TRIPOS>SUBSTRUCTURE
      1 ****           1
@<TRIPOS>COMMENT
> <Gold.Version>
2022.2.0

> <Gold.Id.Protein>
3pbl|protein|mol2

> <Gold.Protein.RotatedTorsions>
[ 1303 1298 1297 1294 ] final   20.63 input  179.99 | X-H torsion
[ 2461 2456 2455 2452 ] final -126.51 input   30.03 | X-H torsion
[ 2515 2510 2509 2506 ] final -172.16 input  -89.99 | X-H torsion
[ 3721 3712 3711 3710 ] final  -34.39 input -179.91 | X-H torsion
[ 3841 3832 3831 3830 ] final   37.52 input -179.91 | X-H torsion
[ 3767 3762 3761 3758 ] final  -27.68 input  -89.99 | X-H torsion
[ 2472 2467 2466 2463 ] final  106.43 input  -89.97 | X-H torsion

> <Gold.Protein.ActiveResidues>
 VAL82   VAL86   LEU89   PHE106  VAL107  ASP110  VAL111  MET112  CYS114  THR115 
 CYS181  SER182  ILE183  PHE188  VAL189  ILE190  SER192  SER193  SER196  TRP342 
 PHE345  PHE346  HIS349  VAL350  TYR365  THR369  GLY372  TYR373 

> <Gold.Protein.RotatedAtoms>
    3.5369  -10.1036    4.2418 H   0  0  0  0  0  0  0  0  0  0  0  0  # atno 1303 bound_to 1298
    0.6506   -9.2135    8.1185 H   0  0  0  0  0  0  0  0  0  0  0  0  # atno 2461 bound_to 2456
   -5.2986   -5.0002    7.9597 H   0  0  0  0  0  0  0  0  0  0  0  0  # atno 2472 bound_to 2467
    2.3778   -9.1121    5.7526 H   0  0  0  0  0  0  0  0  0  0  0  0  # atno 2515 bound_to 2510
   -2.6279  -17.6507   14.6280 H   0  0  0  0  0  0  0  0  0  0  0  0  # atno 3721 bound_to 3712
   -5.4926  -22.3788   10.3936 H   0  0  0  0  0  0  0  0  0  0  0  0  # atno 3767 bound_to 3762
    2.1646  -20.8394    9.6094 H   0  0  0  0  0  0  0  0  0  0  0  0  # atno 3841 bound_to 3832
    3.9502   -8.5555    3.9276 LP  0  0  0  0  0  0  0  0  0  0  0  0  # atno 4297 bound_to 1298
    4.8753   -9.4619    4.9222 LP  0  0  0  0  0  0  0  0  0  0  0  0  # atno 4298 bound_to 1298
    2.1457   -8.5679    7.9953 LP  0  0  0  0  0  0  0  0  0  0  0  0  # atno 4299 bound_to 2456
    0.9412   -8.0270    7.0345 LP  0  0  0  0  0  0  0  0  0  0  0  0  # atno 4300 bound_to 2456
    2.1131   -7.5123    5.5620 LP  0  0  0  0  0  0  0  0  0  0  0  0  # atno 4301 bound_to 2510
    2.8058   -8.3743    4.3604 LP  0  0  0  0  0  0  0  0  0  0  0  0  # atno 4302 bound_to 2510
   -3.5628  -16.5560   13.9171 LP  0  0  0  0  0  0  0  0  0  0  0  0  # atno 4306 bound_to 3712
   -2.9308  -17.7923   13.0577 LP  0  0  0  0  0  0  0  0  0  0  0  0  # atno 4307 bound_to 3712
    1.6434  -19.7030    8.6029 LP  0  0  0  0  0  0  0  0  0  0  0  0  # atno 4314 bound_to 3832
    3.0856  -20.4296    8.3604 LP  0  0  0  0  0  0  0  0  0  0  0  0  # atno 4315 bound_to 3832
   -4.4661  -22.1707   11.6466 LP  0  0  0  0  0  0  0  0  0  0  0  0  # atno 4318 bound_to 3762
   -4.1690  -23.3254   10.5308 LP  0  0  0  0  0  0  0  0  0  0  0  0  # atno 4319 bound_to 3762
   -3.6955   -4.9322    8.2628 LP  0  0  0  0  0  0  0  0  0  0  0  0  # atno 4320 bound_to 2467
   -4.7230   -5.4611    9.4166 LP  0  0  0  0  0  0  0  0  0  0  0  0  # atno 4321 bound_to 2467

> <Gold.Score>
     Score     S(PLP)   S(hbond)     S(cho)   S(metal)  DE(clash)   DE(tors)     intcor
     33.88     -33.06       1.00       0.00       0.00       0.00       1.09       0.00

> <Gold.PLP.Fitness>
33.8837

> <Gold.PLP.PLP>
-33.0582

> <Gold.PLP.part.hbond>
-1.0000

> <Gold.PLP.part.metal>
0.0000

> <Gold.PLP.part.buried>
-4.7358

> <Gold.PLP.part.nonpolar>
-30.8394

> <Gold.PLP.part.repulsive>
1.6767

> <Gold.PLP.ligand.clash>
0.0000

> <Gold.PLP.ligand.torsion>
1.0873

> <Gold.PLP.Chemscore.Hbond>
1.0000

> <Gold.PLP.Chemscore.CHOScore>
0.0000

> <Gold.PLP.Chemscore.Metal>
0.0000

> <Gold.Chemscore.Hbonds>
donor molecule, donor type, donor heavy atom, donor atom, acceptor molecule, acceptor atom, score
      P1  H  2456  2461       L1     4  1.00

> <Gold.PLP.Chemscore.Internal.Correction>
0.0001

