#       Name:                EN300-370562_i001
#       Creating user name   fsindt
#       Creation time:       Tue Feb 28 09:31:05 2023


#       File generated by GOLD software.
#

@<TRIPOS>MOLECULE
EN300-370562_i001|acide_1|mol2|3777|dock4
    17    17     1
SMALL
USER_CHARGES


@<TRIPOS>ATOM
      1 C1          -0.2573 -15.3015  12.3824 C.3            1 <1>                0.0000
      2 C2          -0.7079 -13.9544  11.8138 C.3            1 <1>                0.0000
      3 N3          -0.0932 -13.7487  10.5001 N.pl3          1 <1>                0.0000
      4 N4           0.7139 -14.6692   9.8227 N.2            1 <1>                0.0000
      5 C5           1.0845 -14.1524   8.6848 C.2            1 <1>                0.0000
      6 C6           0.5198 -12.8588   8.5871 C.2            1 <1>                0.0000
      7 C7           0.6779 -11.9192   7.4690 C.2            1 <1>                0.0000
      8 O8           0.1938 -10.7975   7.5393 O.co2          1 <1>                0.0000
      9 O9           1.2936 -12.2582   6.4672 O.co2          1 <1>               -1.0000
     10 C10         -0.2148 -12.6479   9.7419 C.2            1 <1>                0.0000
     11 Br11        -1.1971 -11.0915  10.1761 Br             1 <1>                0.0000
     12 H12          0.8279 -15.3082  12.4840 H              1 <1>                0.0000
     13 H13         -0.7147 -15.4545  13.3599 H              1 <1>                0.0000
     14 H14         -0.5642 -16.1013  11.7084 H              1 <1>                0.0000
     15 H15         -1.7931 -13.9475  11.7123 H              1 <1>                0.0000
     16 H16         -0.4010 -13.1546  12.4878 H              1 <1>                0.0000
     17 H17          1.7129 -14.6281   7.9464 H              1 <1>                0.0000
@<TRIPOS>BOND
    1    1    2 1     
    2    1   12 1     
    3    1   13 1     
    4    1   14 1     
    5    2    3 1     
    6    2   15 1     
    7    2   16 1     
    8    3    4 1     
    9    3   10 1     
   10    4    5 2     
   11    5    6 1     
   12    5   17 1     
   13    6    7 1     
   14    6   10 2     
   15    7    8 ar    
   16    7    9 ar    
   17   10   11 1     
@<TRIPOS>SUBSTRUCTURE
      1 ****           1
@<TRIPOS>COMMENT
> <Gold.Version>
2022.2.0

> <Gold.Id.Protein>
3pbl|protein|mol2

> <Gold.Protein.RotatedTorsions>
[ 1303 1298 1297 1294 ] final   23.28 input  179.99 | X-H torsion
[ 2461 2456 2455 2452 ] final -117.39 input   30.03 | X-H torsion
[ 2515 2510 2509 2506 ] final  -33.87 input  -89.99 | X-H torsion
[ 3721 3712 3711 3710 ] final   -8.46 input -179.91 | X-H torsion
[ 3841 3832 3831 3830 ] final -114.31 input -179.91 | X-H torsion
[ 3767 3762 3761 3758 ] final  123.06 input  -89.99 | X-H torsion
[ 2472 2467 2466 2463 ] final  -71.87 input  -89.97 | X-H torsion

> <Gold.Protein.ActiveResidues>
 VAL82   VAL86   LEU89   PHE106  VAL107  ASP110  VAL111  MET112  CYS114  THR115 
 CYS181  SER182  ILE183  PHE188  VAL189  ILE190  SER192  SER193  SER196  TRP342 
 PHE345  PHE346  HIS349  VAL350  TYR365  THR369  GLY372  TYR373 

> <Gold.Protein.RotatedAtoms>
    3.5622  -10.1271    4.2685 H   0  0  0  0  0  0  0  0  0  0  0  0  # atno 1303 bound_to 1298
    0.5479   -9.1563    8.0254 H   0  0  0  0  0  0  0  0  0  0  0  0  # atno 2461 bound_to 2456
   -3.8286   -5.2540    9.1127 H   0  0  0  0  0  0  0  0  0  0  0  0  # atno 2472 bound_to 2467
    2.7391   -8.0824    4.3700 H   0  0  0  0  0  0  0  0  0  0  0  0  # atno 2515 bound_to 2510
   -2.5092  -17.9003   14.3549 H   0  0  0  0  0  0  0  0  0  0  0  0  # atno 3721 bound_to 3712
   -3.9413  -23.1651   10.9459 H   0  0  0  0  0  0  0  0  0  0  0  0  # atno 3767 bound_to 3762
    2.1474  -19.5832    8.4952 H   0  0  0  0  0  0  0  0  0  0  0  0  # atno 3841 bound_to 3832
    3.9146   -8.5735    3.9099 LP  0  0  0  0  0  0  0  0  0  0  0  0  # atno 4297 bound_to 1298
    4.8855   -9.4204    4.9132 LP  0  0  0  0  0  0  0  0  0  0  0  0  # atno 4298 bound_to 1298
    2.1078   -8.6769    8.0909 LP  0  0  0  0  0  0  0  0  0  0  0  0  # atno 4299 bound_to 2456
    1.0818   -7.9752    7.0318 LP  0  0  0  0  0  0  0  0  0  0  0  0  # atno 4300 bound_to 2456
    2.5059   -9.2293    5.5084 LP  0  0  0  0  0  0  0  0  0  0  0  0  # atno 4301 bound_to 2510
    2.0516   -7.6876    5.7973 LP  0  0  0  0  0  0  0  0  0  0  0  0  # atno 4302 bound_to 2510
   -3.4857  -16.6260   14.3338 LP  0  0  0  0  0  0  0  0  0  0  0  0  # atno 4306 bound_to 3712
   -3.1451  -17.4341   12.9563 LP  0  0  0  0  0  0  0  0  0  0  0  0  # atno 4307 bound_to 3712
    3.0914  -20.8579    8.7403 LP  0  0  0  0  0  0  0  0  0  0  0  0  # atno 4314 bound_to 3832
    1.6574  -20.7259    9.5101 LP  0  0  0  0  0  0  0  0  0  0  0  0  # atno 4315 bound_to 3832
   -5.2949  -22.7547   10.1298 LP  0  0  0  0  0  0  0  0  0  0  0  0  # atno 4318 bound_to 3762
   -4.8909  -21.9554   11.4953 LP  0  0  0  0  0  0  0  0  0  0  0  0  # atno 4319 bound_to 3762
   -5.4389   -5.3375    8.8550 LP  0  0  0  0  0  0  0  0  0  0  0  0  # atno 4320 bound_to 2467
   -4.4492   -4.8021    7.6715 LP  0  0  0  0  0  0  0  0  0  0  0  0  # atno 4321 bound_to 2467

> <Gold.Score>
     Score     S(PLP)   S(hbond)     S(cho)   S(metal)  DE(clash)   DE(tors)     intcor
     36.03     -33.24       0.94       0.00       0.00       0.00       0.02       0.00

> <Gold.PLP.Fitness>
36.0336

> <Gold.PLP.PLP>
-33.2437

> <Gold.PLP.part.hbond>
-1.0000

> <Gold.PLP.part.metal>
0.0000

> <Gold.PLP.part.buried>
-4.9106

> <Gold.PLP.part.nonpolar>
-28.1529

> <Gold.PLP.part.repulsive>
0.1855

> <Gold.PLP.ligand.clash>
0.0000

> <Gold.PLP.ligand.torsion>
0.0211

> <Gold.PLP.Chemscore.Hbond>
0.9440

> <Gold.PLP.Chemscore.CHOScore>
0.0000

> <Gold.PLP.Chemscore.Metal>
0.0000

> <Gold.Chemscore.Hbonds>
donor molecule, donor type, donor heavy atom, donor atom, acceptor molecule, acceptor atom, score
      P1  H  2456  2461       L1     8  0.94

> <Gold.PLP.Chemscore.Internal.Correction>
0.0001

