#       Name:                EN300-370562_i001
#       Creating user name   fsindt
#       Creation time:       Tue Feb 28 09:31:08 2023


#       File generated by GOLD software.
#

@<TRIPOS>MOLECULE
EN300-370562_i001|acide_1|mol2|3777|dock11
    17    17     1
SMALL
USER_CHARGES


@<TRIPOS>ATOM
      1 C1          -0.2419 -15.9366  12.4913 C.3            1 <1>                0.0000
      2 C2          -0.6865 -14.4792  12.3523 C.3            1 <1>                0.0000
      3 N3          -0.3197 -13.9813  11.0242 N.pl3          1 <1>                0.0000
      4 N4           0.3283 -14.7173  10.0263 N.2            1 <1>                0.0000
      5 C5           0.4946 -13.9586   8.9793 C.2            1 <1>                0.0000
      6 C6          -0.0496 -12.6855   9.2706 C.2            1 <1>                0.0000
      7 C7          -0.0792 -11.5226   8.3737 C.2            1 <1>                0.0000
      8 O8           0.5026 -11.5645   7.2980 O.co2          1 <1>                0.0000
      9 O9          -0.6859 -10.5117   8.7021 O.co2          1 <1>               -1.0000
     10 C10         -0.5542 -12.7446  10.5588 C.2            1 <1>                0.0000
     11 Br11        -1.4052 -11.3384  11.4941 Br             1 <1>                0.0000
     12 H12          0.8389 -16.0004  12.3651 H              1 <1>                0.0000
     13 H13         -0.5148 -16.3071  13.4794 H              1 <1>                0.0000
     14 H14         -0.7331 -16.5406  11.7283 H              1 <1>                0.0000
     15 H15         -1.7672 -14.4154  12.4785 H              1 <1>                0.0000
     16 H16         -0.1953 -13.8752  13.1152 H              1 <1>                0.0000
     17 H17          0.9657 -14.2506   8.0524 H              1 <1>                0.0000
@<TRIPOS>BOND
    1    1    2 1     
    2    1   12 1     
    3    1   13 1     
    4    1   14 1     
    5    2    3 1     
    6    2   15 1     
    7    2   16 1     
    8    3    4 1     
    9    3   10 1     
   10    4    5 2     
   11    5    6 1     
   12    5   17 1     
   13    6    7 1     
   14    6   10 2     
   15    7    8 ar    
   16    7    9 ar    
   17   10   11 1     
@<TRIPOS>SUBSTRUCTURE
      1 ****           1
@<TRIPOS>COMMENT
> <Gold.Version>
2022.2.0

> <Gold.Id.Protein>
3pbl|protein|mol2

> <Gold.Protein.RotatedTorsions>
[ 1303 1298 1297 1294 ] final   77.34 input  179.99 | X-H torsion
[ 2461 2456 2455 2452 ] final -117.88 input   30.03 | X-H torsion
[ 2515 2510 2509 2506 ] final  -53.84 input  -89.99 | X-H torsion
[ 3721 3712 3711 3710 ] final   65.69 input -179.91 | X-H torsion
[ 3841 3832 3831 3830 ] final   -0.19 input -179.91 | X-H torsion
[ 3767 3762 3761 3758 ] final  138.78 input  -89.99 | X-H torsion
[ 2472 2467 2466 2463 ] final  148.88 input  -89.97 | X-H torsion

> <Gold.Protein.ActiveResidues>
 VAL82   VAL86   LEU89   PHE106  VAL107  ASP110  VAL111  MET112  CYS114  THR115 
 CYS181  SER182  ILE183  PHE188  VAL189  ILE190  SER192  SER193  SER196  TRP342 
 PHE345  PHE346  HIS349  VAL350  TYR365  THR369  GLY372  TYR373 

> <Gold.Protein.RotatedAtoms>
    4.2466  -10.2117    4.7769 H   0  0  0  0  0  0  0  0  0  0  0  0  # atno 1303 bound_to 1298
    0.5530   -9.1598    8.0307 H   0  0  0  0  0  0  0  0  0  0  0  0  # atno 2461 bound_to 2456
   -5.5086   -5.2407    8.5631 H   0  0  0  0  0  0  0  0  0  0  0  0  # atno 2472 bound_to 2467
    2.8102   -8.4014    4.3644 H   0  0  0  0  0  0  0  0  0  0  0  0  # atno 2515 bound_to 2510
   -2.6227  -17.8633   13.3173 H   0  0  0  0  0  0  0  0  0  0  0  0  # atno 3721 bound_to 3712
   -3.9068  -23.0199   11.1562 H   0  0  0  0  0  0  0  0  0  0  0  0  # atno 3767 bound_to 3762
    1.7351  -20.4846    9.5576 H   0  0  0  0  0  0  0  0  0  0  0  0  # atno 3841 bound_to 3832
    3.3813   -9.2345    3.7957 LP  0  0  0  0  0  0  0  0  0  0  0  0  # atno 4297 bound_to 1298
    4.7343   -8.6748    4.5188 LP  0  0  0  0  0  0  0  0  0  0  0  0  # atno 4298 bound_to 1298
    2.1104   -8.6710    8.0860 LP  0  0  0  0  0  0  0  0  0  0  0  0  # atno 4299 bound_to 2456
    1.0741   -7.9776    7.0315 LP  0  0  0  0  0  0  0  0  0  0  0  0  # atno 4300 bound_to 2456
    2.3659   -9.0975    5.7729 LP  0  0  0  0  0  0  0  0  0  0  0  0  # atno 4301 bound_to 2510
    2.1205   -7.5002    5.5383 LP  0  0  0  0  0  0  0  0  0  0  0  0  # atno 4302 bound_to 2510
   -2.9380  -17.5017   14.8495 LP  0  0  0  0  0  0  0  0  0  0  0  0  # atno 4306 bound_to 3712
   -3.5617  -16.6012   13.6384 LP  0  0  0  0  0  0  0  0  0  0  0  0  # atno 4307 bound_to 3712
    2.1474  -19.6544    8.2473 LP  0  0  0  0  0  0  0  0  0  0  0  0  # atno 4314 bound_to 3832
    3.0776  -20.8881    8.7759 LP  0  0  0  0  0  0  0  0  0  0  0  0  # atno 4315 bound_to 3832
   -5.1246  -22.9391   10.0712 LP  0  0  0  0  0  0  0  0  0  0  0  0  # atno 4318 bound_to 3762
   -5.0957  -21.9162   11.3438 LP  0  0  0  0  0  0  0  0  0  0  0  0  # atno 4319 bound_to 3762
   -4.1498   -4.8045    7.7695 LP  0  0  0  0  0  0  0  0  0  0  0  0  # atno 4320 bound_to 2467
   -4.0587   -5.3484    9.3066 LP  0  0  0  0  0  0  0  0  0  0  0  0  # atno 4321 bound_to 2467

> <Gold.Score>
     Score     S(PLP)   S(hbond)     S(cho)   S(metal)  DE(clash)   DE(tors)     intcor
     34.62     -31.66       1.00       0.00       0.00       0.00       0.02       0.00

> <Gold.PLP.Fitness>
34.6232

> <Gold.PLP.PLP>
-31.6603

> <Gold.PLP.part.hbond>
-1.2588

> <Gold.PLP.part.metal>
0.0000

> <Gold.PLP.part.buried>
-4.0795

> <Gold.PLP.part.nonpolar>
-26.7085

> <Gold.PLP.part.repulsive>
0.0841

> <Gold.PLP.ligand.clash>
0.0000

> <Gold.PLP.ligand.torsion>
0.0186

> <Gold.PLP.Chemscore.Hbond>
1.0000

> <Gold.PLP.Chemscore.CHOScore>
0.0000

> <Gold.PLP.Chemscore.Metal>
0.0000

> <Gold.Chemscore.Hbonds>
donor molecule, donor type, donor heavy atom, donor atom, acceptor molecule, acceptor atom, score
      P1  H  2456  2461       L1     9  1.00

> <Gold.PLP.Chemscore.Internal.Correction>
0.0001

