#       Name:                EN300-370562_i001
#       Creating user name   fsindt
#       Creation time:       Tue Feb 28 09:31:03 2023


#       File generated by GOLD software.
#

@<TRIPOS>MOLECULE
EN300-370562_i001|acide_1|mol2|3777|dock1
    17    17     1
SMALL
USER_CHARGES


@<TRIPOS>ATOM
      1 C1          -0.3187 -15.5952  12.7980 C.3            1 <1>                0.0000
      2 C2           0.1362 -15.1738  11.3992 C.3            1 <1>                0.0000
      3 N3          -0.3858 -13.8387  11.0975 N.pl3          1 <1>                0.0000
      4 N4          -1.2177 -13.0800  11.9281 N.2            1 <1>                0.0000
      5 C5          -1.4841 -11.9468  11.3415 C.2            1 <1>                0.0000
      6 C6          -0.8222 -11.9351  10.0911 C.2            1 <1>                0.0000
      7 C7          -0.8472 -10.8511   9.1000 C.2            1 <1>                0.0000
      8 O8          -0.1091 -10.8963   8.1250 O.co2          1 <1>                0.0000
      9 O9          -1.6064  -9.9029   9.2491 O.co2          1 <1>               -1.0000
     10 C10         -0.1414 -13.1359   9.9806 C.2            1 <1>                0.0000
     11 Br11         0.9252 -13.6887   8.5201 Br             1 <1>                0.0000
     12 H12         -1.4079 -15.6139  12.8356 H              1 <1>                0.0000
     13 H13          0.0697 -16.5886  13.0225 H              1 <1>                0.0000
     14 H14          0.0581 -14.8832  13.5324 H              1 <1>                0.0000
     15 H15          1.2253 -15.1552  11.3616 H              1 <1>                0.0000
     16 H16         -0.2406 -15.8858  10.6649 H              1 <1>                0.0000
     17 H17         -2.1022 -11.1558  11.7400 H              1 <1>                0.0000
@<TRIPOS>BOND
    1    1    2 1     
    2    1   12 1     
    3    1   13 1     
    4    1   14 1     
    5    2    3 1     
    6    2   15 1     
    7    2   16 1     
    8    3    4 1     
    9    3   10 1     
   10    4    5 2     
   11    5    6 1     
   12    5   17 1     
   13    6    7 1     
   14    6   10 2     
   15    7    8 ar    
   16    7    9 ar    
   17   10   11 1     
@<TRIPOS>SUBSTRUCTURE
      1 ****           1
@<TRIPOS>COMMENT
> <Gold.Version>
2022.2.0

> <Gold.Id.Protein>
3pbl|protein|mol2

> <Gold.Protein.RotatedTorsions>
[ 1303 1298 1297 1294 ] final   -6.53 input  179.99 | X-H torsion
[ 2461 2456 2455 2452 ] final -141.28 input   30.03 | X-H torsion
[ 2515 2510 2509 2506 ] final   12.72 input  -89.99 | X-H torsion
[ 3721 3712 3711 3710 ] final -161.58 input -179.91 | X-H torsion
[ 3841 3832 3831 3830 ] final  -47.57 input -179.91 | X-H torsion
[ 3767 3762 3761 3758 ] final -104.87 input  -89.99 | X-H torsion
[ 2472 2467 2466 2463 ] final  -63.62 input  -89.97 | X-H torsion

> <Gold.Protein.ActiveResidues>
 VAL82   VAL86   LEU89   PHE106  VAL107  ASP110  VAL111  MET112  CYS114  THR115 
 CYS181  SER182  ILE183  PHE188  VAL189  ILE190  SER192  SER193  SER196  TRP342 
 PHE345  PHE346  HIS349  VAL350  TYR365  THR369  GLY372  TYR373 

> <Gold.Protein.RotatedAtoms>
    3.3575   -9.7844    3.9932 H   0  0  0  0  0  0  0  0  0  0  0  0  # atno 1303 bound_to 1298
    0.8477   -9.2730    8.2467 H   0  0  0  0  0  0  0  0  0  0  0  0  # atno 2461 bound_to 2456
   -3.7544   -5.2084    9.0089 H   0  0  0  0  0  0  0  0  0  0  0  0  # atno 2472 bound_to 2467
    2.4526   -7.5144    4.7586 H   0  0  0  0  0  0  0  0  0  0  0  0  # atno 2515 bound_to 2510
   -3.3385  -16.5369   13.8143 H   0  0  0  0  0  0  0  0  0  0  0  0  # atno 3721 bound_to 3712
   -5.0499  -21.9200   11.3823 H   0  0  0  0  0  0  0  0  0  0  0  0  # atno 3767 bound_to 3762
    1.5699  -19.9335    9.1664 H   0  0  0  0  0  0  0  0  0  0  0  0  # atno 3841 bound_to 3832
    4.3217   -8.4766    4.1551 LP  0  0  0  0  0  0  0  0  0  0  0  0  # atno 4297 bound_to 1298
    4.6833   -9.8602    4.9434 LP  0  0  0  0  0  0  0  0  0  0  0  0  # atno 4298 bound_to 1298
    2.1587   -8.3944    7.8265 LP  0  0  0  0  0  0  0  0  0  0  0  0  # atno 4299 bound_to 2456
    0.7312   -8.1410    7.0751 LP  0  0  0  0  0  0  0  0  0  0  0  0  # atno 4300 bound_to 2456
    2.7712   -9.1145    4.8210 LP  0  0  0  0  0  0  0  0  0  0  0  0  # atno 4301 bound_to 2510
    2.0729   -8.3706    6.0959 LP  0  0  0  0  0  0  0  0  0  0  0  0  # atno 4302 bound_to 2510
   -2.8532  -17.9140   13.1466 LP  0  0  0  0  0  0  0  0  0  0  0  0  # atno 4306 bound_to 3712
   -2.8201  -17.7202   14.7677 LP  0  0  0  0  0  0  0  0  0  0  0  0  # atno 4307 bound_to 3712
    2.8179  -20.0219    8.1611 LP  0  0  0  0  0  0  0  0  0  0  0  0  # atno 4314 bound_to 3832
    2.5979  -21.1573    9.3139 LP  0  0  0  0  0  0  0  0  0  0  0  0  # atno 4315 bound_to 3832
   -3.9100  -23.0570   11.1092 LP  0  0  0  0  0  0  0  0  0  0  0  0  # atno 4318 bound_to 3762
   -5.1675  -22.8978   10.0797 LP  0  0  0  0  0  0  0  0  0  0  0  0  # atno 4319 bound_to 3762
   -5.3786   -5.3727    8.9711 LP  0  0  0  0  0  0  0  0  0  0  0  0  # atno 4320 bound_to 2467
   -4.5838   -4.8124    7.6592 LP  0  0  0  0  0  0  0  0  0  0  0  0  # atno 4321 bound_to 2467

> <Gold.Score>
     Score     S(PLP)   S(hbond)     S(cho)   S(metal)  DE(clash)   DE(tors)     intcor
     34.54     -31.62       1.00       0.00       0.00       0.00       0.04       0.00

> <Gold.PLP.Fitness>
34.5409

> <Gold.PLP.PLP>
-31.6173

> <Gold.PLP.part.hbond>
-2.0000

> <Gold.PLP.part.metal>
0.0000

> <Gold.PLP.part.buried>
-3.7061

> <Gold.PLP.part.nonpolar>
-26.7736

> <Gold.PLP.part.repulsive>
0.1692

> <Gold.PLP.ligand.clash>
0.0000

> <Gold.PLP.ligand.torsion>
0.0384

> <Gold.PLP.Chemscore.Hbond>
1.0000

> <Gold.PLP.Chemscore.CHOScore>
0.0000

> <Gold.PLP.Chemscore.Metal>
0.0000

> <Gold.Chemscore.Hbonds>
donor molecule, donor type, donor heavy atom, donor atom, acceptor molecule, acceptor atom, score
      P1  H  2456  2461       L1     8  1.00

> <Gold.PLP.Chemscore.Internal.Correction>
0.0004

