#       Name:                EN300-370562_i001
#       Creating user name   fsindt
#       Creation time:       Tue Feb 28 09:31:07 2023


#       File generated by GOLD software.
#

@<TRIPOS>MOLECULE
EN300-370562_i001|acide_1|mol2|3777|dock9
    17    17     1
SMALL
USER_CHARGES


@<TRIPOS>ATOM
      1 C1          -1.5999  -9.6089  10.2165 C.3            1 <1>                0.0000
      2 C2          -0.4623 -10.4990  10.7213 C.3            1 <1>                0.0000
      3 N3          -0.0379 -11.4035   9.6500 N.pl3          1 <1>                0.0000
      4 N4           0.4155 -11.0150   8.3847 N.2            1 <1>                0.0000
      5 C5           0.7059 -12.0805   7.6920 C.2            1 <1>                0.0000
      6 C6           0.4455 -13.2123   8.5002 C.2            1 <1>                0.0000
      7 C7           0.6321 -14.6187   8.1195 C.2            1 <1>                0.0000
      8 O8           1.3835 -14.9087   7.1982 O.co2          1 <1>                0.0000
      9 O9           0.0363 -15.5005   8.7237 O.co2          1 <1>               -1.0000
     10 C10         -0.0131 -12.7436   9.7199 C.2            1 <1>                0.0000
     11 Br11        -0.5224 -13.7975  11.2052 Br             1 <1>                0.0000
     12 H12         -2.4410 -10.2319   9.9124 H              1 <1>                0.0000
     13 H13         -1.9157  -8.9359  11.0136 H              1 <1>                0.0000
     14 H14         -1.2532  -9.0249   9.3639 H              1 <1>                0.0000
     15 H15          0.3788  -9.8761  11.0255 H              1 <1>                0.0000
     16 H16         -0.8090 -11.0830  11.5739 H              1 <1>                0.0000
     17 H17          1.0792 -12.0965   6.6787 H              1 <1>                0.0000
@<TRIPOS>BOND
    1    1    2 1     
    2    1   12 1     
    3    1   13 1     
    4    1   14 1     
    5    2    3 1     
    6    2   15 1     
    7    2   16 1     
    8    3    4 1     
    9    3   10 1     
   10    4    5 2     
   11    5    6 1     
   12    5   17 1     
   13    6    7 1     
   14    6   10 2     
   15    7    8 ar    
   16    7    9 ar    
   17   10   11 1     
@<TRIPOS>SUBSTRUCTURE
      1 ****           1
@<TRIPOS>COMMENT
> <Gold.Version>
2022.2.0

> <Gold.Id.Protein>
3pbl|protein|mol2

> <Gold.Protein.RotatedTorsions>
[ 1303 1298 1297 1294 ] final  -93.46 input  179.99 | X-H torsion
[ 2461 2456 2455 2452 ] final -122.41 input   30.03 | X-H torsion
[ 2515 2510 2509 2506 ] final  129.65 input  -89.99 | X-H torsion
[ 3721 3712 3711 3710 ] final  -38.54 input -179.91 | X-H torsion
[ 3841 3832 3831 3830 ] final   54.71 input -179.91 | X-H torsion
[ 3767 3762 3761 3758 ] final   44.51 input  -89.99 | X-H torsion
[ 2472 2467 2466 2463 ] final  -48.84 input  -89.97 | X-H torsion

> <Gold.Protein.ActiveResidues>
 VAL82   VAL86   LEU89   PHE106  VAL107  ASP110  VAL111  MET112  CYS114  THR115 
 CYS181  SER182  ILE183  PHE188  VAL189  ILE190  SER192  SER193  SER196  TRP342 
 PHE345  PHE346  HIS349  VAL350  TYR365  THR369  GLY372  TYR373 

> <Gold.Protein.RotatedAtoms>
    3.8713   -8.5981    3.8899 H   0  0  0  0  0  0  0  0  0  0  0  0  # atno 1303 bound_to 1298
    0.6025   -9.1897    8.0778 H   0  0  0  0  0  0  0  0  0  0  0  0  # atno 2461 bound_to 2456
   -3.6644   -5.1233    8.8003 H   0  0  0  0  0  0  0  0  0  0  0  0  # atno 2472 bound_to 2467
    2.0638   -8.3209    6.0925 H   0  0  0  0  0  0  0  0  0  0  0  0  # atno 2515 bound_to 2510
   -2.6529  -17.6023   14.6591 H   0  0  0  0  0  0  0  0  0  0  0  0  # atno 3721 bound_to 3712
   -4.7852  -23.1843   10.1017 H   0  0  0  0  0  0  0  0  0  0  0  0  # atno 3767 bound_to 3762
    2.3987  -20.9277    9.5435 H   0  0  0  0  0  0  0  0  0  0  0  0  # atno 3841 bound_to 3832
    4.8958   -9.3695    4.9006 LP  0  0  0  0  0  0  0  0  0  0  0  0  # atno 4297 bound_to 1298
    3.5952  -10.1540    4.3012 LP  0  0  0  0  0  0  0  0  0  0  0  0  # atno 4298 bound_to 1298
    2.1315   -8.6169    8.0393 LP  0  0  0  0  0  0  0  0  0  0  0  0  # atno 4299 bound_to 2456
    1.0036   -8.0018    7.0312 LP  0  0  0  0  0  0  0  0  0  0  0  0  # atno 4300 bound_to 2456
    2.4741   -7.5383    4.7195 LP  0  0  0  0  0  0  0  0  0  0  0  0  # atno 4301 bound_to 2510
    2.7590   -9.1399    4.8629 LP  0  0  0  0  0  0  0  0  0  0  0  0  # atno 4302 bound_to 2510
   -3.5664  -16.5604   13.8480 LP  0  0  0  0  0  0  0  0  0  0  0  0  # atno 4306 bound_to 3712
   -2.8984  -17.8438   13.0909 LP  0  0  0  0  0  0  0  0  0  0  0  0  # atno 4307 bound_to 3712
    1.4894  -19.8274    8.8096 LP  0  0  0  0  0  0  0  0  0  0  0  0  # atno 4314 bound_to 3832
    2.9691  -20.2031    8.2298 LP  0  0  0  0  0  0  0  0  0  0  0  0  # atno 4315 bound_to 3832
   -5.3626  -21.9662   11.0233 LP  0  0  0  0  0  0  0  0  0  0  0  0  # atno 4318 bound_to 3762
   -3.9796  -22.7247   11.4458 LP  0  0  0  0  0  0  0  0  0  0  0  0  # atno 4319 bound_to 3762
   -5.2297   -5.4229    9.1559 LP  0  0  0  0  0  0  0  0  0  0  0  0  # atno 4320 bound_to 2467
   -4.8227   -4.8473    7.6830 LP  0  0  0  0  0  0  0  0  0  0  0  0  # atno 4321 bound_to 2467

> <Gold.Score>
     Score     S(PLP)   S(hbond)     S(cho)   S(metal)  DE(clash)   DE(tors)     intcor
     37.41     -34.81       1.00       0.00       0.00       0.00       0.20       0.00

> <Gold.PLP.Fitness>
37.4143

> <Gold.PLP.PLP>
-34.8132

> <Gold.PLP.part.hbond>
-1.0000

> <Gold.PLP.part.metal>
0.0000

> <Gold.PLP.part.buried>
-4.3813

> <Gold.PLP.part.nonpolar>
-30.3817

> <Gold.PLP.part.repulsive>
0.3037

> <Gold.PLP.ligand.clash>
0.0000

> <Gold.PLP.ligand.torsion>
0.1995

> <Gold.PLP.Chemscore.Hbond>
1.0000

> <Gold.PLP.Chemscore.CHOScore>
0.0000

> <Gold.PLP.Chemscore.Metal>
0.0000

> <Gold.Chemscore.Hbonds>
donor molecule, donor type, donor heavy atom, donor atom, acceptor molecule, acceptor atom, score
      P1  H  2456  2461       L1     4  1.00

> <Gold.PLP.Chemscore.Internal.Correction>
0.0001

