#       Name:                EN300-370562_i001
#       Creating user name   fsindt
#       Creation time:       Tue Feb 28 09:31:10 2023


#       File generated by GOLD software.
#

@<TRIPOS>MOLECULE
EN300-370562_i001|acide_1|mol2|3777|dock17
    17    17     1
SMALL
USER_CHARGES


@<TRIPOS>ATOM
      1 C1          -0.7018 -17.4951   8.6819 C.3            1 <1>                0.0000
      2 C2          -0.0211 -16.6493   9.7600 C.3            1 <1>                0.0000
      3 N3           0.1935 -15.2919   9.2526 N.pl3          1 <1>                0.0000
      4 N4           0.6733 -14.9618   7.9805 N.2            1 <1>                0.0000
      5 C5           0.7372 -13.6641   7.8743 C.2            1 <1>                0.0000
      6 C6           0.2935 -13.1028   9.0949 C.2            1 <1>                0.0000
      7 C7           0.2010 -11.6722   9.4156 C.2            1 <1>                0.0000
      8 O8          -0.3904 -11.3079  10.4230 O.co2          1 <1>                0.0000
      9 O9           0.7156 -10.8446   8.6753 O.co2          1 <1>               -1.0000
     10 C10         -0.0429 -14.1565   9.9280 C.2            1 <1>                0.0000
     11 Br11        -0.7014 -14.0209  11.6956 Br             1 <1>                0.0000
     12 H12         -0.0674 -17.5343   7.7965 H              1 <1>                0.0000
     13 H13         -0.8614 -18.5051   9.0594 H              1 <1>                0.0000
     14 H14         -1.6615 -17.0485   8.4219 H              1 <1>                0.0000
     15 H15         -0.6554 -16.6102  10.6455 H              1 <1>                0.0000
     16 H16          0.9386 -17.0960  10.0201 H              1 <1>                0.0000
     17 H17          1.0710 -13.1140   7.0069 H              1 <1>                0.0000
@<TRIPOS>BOND
    1    1    2 1     
    2    1   12 1     
    3    1   13 1     
    4    1   14 1     
    5    2    3 1     
    6    2   15 1     
    7    2   16 1     
    8    3    4 1     
    9    3   10 1     
   10    4    5 2     
   11    5    6 1     
   12    5   17 1     
   13    6    7 1     
   14    6   10 2     
   15    7    8 ar    
   16    7    9 ar    
   17   10   11 1     
@<TRIPOS>SUBSTRUCTURE
      1 ****           1
@<TRIPOS>COMMENT
> <Gold.Version>
2022.2.0

> <Gold.Id.Protein>
3pbl|protein|mol2

> <Gold.Protein.RotatedTorsions>
[ 1303 1298 1297 1294 ] final  161.99 input  179.99 | X-H torsion
[ 2461 2456 2455 2452 ] final -149.52 input   30.03 | X-H torsion
[ 2515 2510 2509 2506 ] final  162.08 input  -89.99 | X-H torsion
[ 3721 3712 3711 3710 ] final  -91.82 input -179.91 | X-H torsion
[ 3841 3832 3831 3830 ] final -131.60 input -179.91 | X-H torsion
[ 3767 3762 3761 3758 ] final   85.12 input  -89.99 | X-H torsion
[ 2472 2467 2466 2463 ] final  -18.37 input  -89.97 | X-H torsion

> <Gold.Protein.ActiveResidues>
 VAL82   VAL86   LEU89   PHE106  VAL107  ASP110  VAL111  MET112  CYS114  THR115 
 CYS181  SER182  ILE183  PHE188  VAL189  ILE190  SER192  SER193  SER196  TRP342 
 PHE345  PHE346  HIS349  VAL350  TYR365  THR369  GLY372  TYR373 

> <Gold.Protein.RotatedAtoms>
    4.9099   -9.1302    4.8182 H   0  0  0  0  0  0  0  0  0  0  0  0  # atno 1303 bound_to 1298
    0.9699   -9.2870    8.3033 H   0  0  0  0  0  0  0  0  0  0  0  0  # atno 2461 bound_to 2456
   -3.6706   -4.9559    8.3339 H   0  0  0  0  0  0  0  0  0  0  0  0  # atno 2472 bound_to 2467
    2.2094   -8.8185    6.0016 H   0  0  0  0  0  0  0  0  0  0  0  0  # atno 2515 bound_to 2510
   -3.0381  -16.9278   14.6735 H   0  0  0  0  0  0  0  0  0  0  0  0  # atno 3721 bound_to 3712
   -4.2470  -23.3347   10.4423 H   0  0  0  0  0  0  0  0  0  0  0  0  # atno 3767 bound_to 3762
    2.3824  -19.6349    8.3961 H   0  0  0  0  0  0  0  0  0  0  0  0  # atno 3841 bound_to 3832
    3.7716  -10.2444    4.4589 LP  0  0  0  0  0  0  0  0  0  0  0  0  # atno 4297 bound_to 1298
    3.6804   -8.7468    3.8144 LP  0  0  0  0  0  0  0  0  0  0  0  0  # atno 4298 bound_to 1298
    2.1397   -8.3029    7.7285 LP  0  0  0  0  0  0  0  0  0  0  0  0  # atno 4299 bound_to 2456
    0.6281   -8.2184    7.1165 LP  0  0  0  0  0  0  0  0  0  0  0  0  # atno 4300 bound_to 2456
    2.2523   -7.4087    5.1791 LP  0  0  0  0  0  0  0  0  0  0  0  0  # atno 4301 bound_to 2510
    2.8351   -8.7717    4.4942 LP  0  0  0  0  0  0  0  0  0  0  0  0  # atno 4302 bound_to 2510
   -3.3997  -16.9659   13.1097 LP  0  0  0  0  0  0  0  0  0  0  0  0  # atno 4306 bound_to 3712
   -2.6204  -18.2170   13.8125 LP  0  0  0  0  0  0  0  0  0  0  0  0  # atno 4307 bound_to 3712
    2.9793  -21.0171    8.9522 LP  0  0  0  0  0  0  0  0  0  0  0  0  # atno 4314 bound_to 3832
    1.4980  -20.5069    9.4127 LP  0  0  0  0  0  0  0  0  0  0  0  0  # atno 4315 bound_to 3832
   -5.5081  -22.2978   10.4784 LP  0  0  0  0  0  0  0  0  0  0  0  0  # atno 4318 bound_to 3762
   -4.3721  -22.2429   11.6502 LP  0  0  0  0  0  0  0  0  0  0  0  0  # atno 4319 bound_to 3762
   -4.7997   -5.4632    9.3989 LP  0  0  0  0  0  0  0  0  0  0  0  0  # atno 4320 bound_to 2467
   -5.2464   -4.9744    7.9063 LP  0  0  0  0  0  0  0  0  0  0  0  0  # atno 4321 bound_to 2467

> <Gold.Score>
     Score     S(PLP)   S(hbond)     S(cho)   S(metal)  DE(clash)   DE(tors)     intcor
     29.58     -27.11       1.00       0.00       0.00       0.00       0.27       0.00

> <Gold.PLP.Fitness>
29.5822

> <Gold.PLP.PLP>
-27.1138

> <Gold.PLP.part.hbond>
-1.0000

> <Gold.PLP.part.metal>
0.0000

> <Gold.PLP.part.buried>
-1.2356

> <Gold.PLP.part.nonpolar>
-25.4151

> <Gold.PLP.part.repulsive>
0.1420

> <Gold.PLP.ligand.clash>
0.0000

> <Gold.PLP.ligand.torsion>
0.2659

> <Gold.PLP.Chemscore.Hbond>
1.0000

> <Gold.PLP.Chemscore.CHOScore>
0.0000

> <Gold.PLP.Chemscore.Metal>
0.0000

> <Gold.Chemscore.Hbonds>
donor molecule, donor type, donor heavy atom, donor atom, acceptor molecule, acceptor atom, score
      P1  H  2456  2461       L1     9  1.00

> <Gold.PLP.Chemscore.Internal.Correction>
0.0001

