#       Name:                EN300-370562_i001
#       Creating user name   fsindt
#       Creation time:       Tue Feb 28 09:31:03 2023


#       File generated by GOLD software.
#

@<TRIPOS>MOLECULE
EN300-370562_i001
    17    17     1
SMALL
USER_CHARGES


@<TRIPOS>ATOM
      1 C1          -2.4856  -0.0665   0.8440 C.3            1 <1>                0.0000
      2 C2          -1.8320  -0.0749  -0.5394 C.3            1 <1>                0.0000
      3 N3          -0.3919  -0.3031  -0.3977 N.pl3          1 <1>                0.0000
      4 N4           0.2408  -1.5510  -0.3930 N.2            1 <1>                0.0000
      5 C5           1.5244  -1.3758  -0.2478 C.2            1 <1>                0.0000
      6 C6           1.7682   0.0146  -0.1522 C.2            1 <1>                0.0000
      7 C7           3.0756   0.6621   0.0192 C.2            1 <1>                0.0000
      8 O8           4.0902  -0.0180   0.0934 O.co2          1 <1>                0.0000
      9 O9           3.1502   1.8817   0.0877 O.co2          1 <1>               -1.0000
     10 C10          0.5423   0.6501  -0.2566 C.2            1 <1>                0.0000
     11 Br11         0.2391   2.5158  -0.1982 Br             1 <1>                0.0000
     12 H12         -2.0492   0.7296   1.4472 H              1 <1>                0.0000
     13 H13         -3.5571   0.1033   0.7386 H              1 <1>                0.0000
     14 H14         -2.3161  -1.0265   1.3317 H              1 <1>                0.0000
     15 H15         -2.2684  -0.8709  -1.1426 H              1 <1>                0.0000
     16 H16         -2.0015   0.8851  -1.0271 H              1 <1>                0.0000
     17 H17          2.2707  -2.1554  -0.2071 H              1 <1>                0.0000
@<TRIPOS>BOND
    1    1    2 1     
    2    1   12 1     
    3    1   13 1     
    4    1   14 1     
    5    2    3 1     
    6    2   15 1     
    7    2   16 1     
    8    3    4 1     
    9    3   10 1     
   10    4    5 2     
   11    5    6 1     
   12    5   17 1     
   13    6    7 1     
   14    6   10 2     
   15    7    8 ar    
   16    7    9 ar    
   17   10   11 1     
@<TRIPOS>SUBSTRUCTURE
      1 ****           1
