#       Name:                EN300-370562_i001
#       Creating user name   fsindt
#       Creation time:       Tue Feb 28 09:31:07 2023


#       File generated by GOLD software.
#

@<TRIPOS>MOLECULE
EN300-370562_i001|acide_1|mol2|3777|dock10
    17    17     1
SMALL
USER_CHARGES


@<TRIPOS>ATOM
      1 C1          -0.1668 -15.3379  12.1992 C.3            1 <1>                0.0000
      2 C2           0.1835 -15.5316  10.7225 C.3            1 <1>                0.0000
      3 N3           0.1926 -14.2311  10.0481 N.pl3          1 <1>                0.0000
      4 N4          -0.1534 -13.0067  10.6302 N.2            1 <1>                0.0000
      5 C5          -0.0297 -12.0630   9.7394 C.2            1 <1>                0.0000
      6 C6           0.4077 -12.6560   8.5316 C.2            1 <1>                0.0000
      7 C7           0.6768 -11.9617   7.2653 C.2            1 <1>                0.0000
      8 O8           1.0970 -12.5877   6.3015 O.co2          1 <1>                0.0000
      9 O9           0.4807 -10.7571   7.1742 O.co2          1 <1>               -1.0000
     10 C10          0.5400 -14.0136   8.7701 C.2            1 <1>                0.0000
     11 Br11         1.0951 -15.3215   7.5221 Br             1 <1>                0.0000
     12 H12         -1.1520 -14.8788  12.2818 H              1 <1>                0.0000
     13 H13         -0.1736 -16.3055  12.7010 H              1 <1>                0.0000
     14 H14          0.5757 -14.6913  12.6669 H              1 <1>                0.0000
     15 H15          1.1685 -15.9906  10.6399 H              1 <1>                0.0000
     16 H16         -0.5591 -16.1782  10.2548 H              1 <1>                0.0000
     17 H17         -0.2270 -11.0128   9.8959 H              1 <1>                0.0000
@<TRIPOS>BOND
    1    1    2 1     
    2    1   12 1     
    3    1   13 1     
    4    1   14 1     
    5    2    3 1     
    6    2   15 1     
    7    2   16 1     
    8    3    4 1     
    9    3   10 1     
   10    4    5 2     
   11    5    6 1     
   12    5   17 1     
   13    6    7 1     
   14    6   10 2     
   15    7    8 ar    
   16    7    9 ar    
   17   10   11 1     
@<TRIPOS>SUBSTRUCTURE
      1 ****           1
@<TRIPOS>COMMENT
> <Gold.Version>
2022.2.0

> <Gold.Id.Protein>
3pbl|protein|mol2

> <Gold.Protein.RotatedTorsions>
[ 1303 1298 1297 1294 ] final    8.58 input  179.99 | X-H torsion
[ 2461 2456 2455 2452 ] final -119.65 input   30.03 | X-H torsion
[ 2515 2510 2509 2506 ] final   42.95 input  -89.99 | X-H torsion
[ 3721 3712 3711 3710 ] final   -5.33 input -179.91 | X-H torsion
[ 3841 3832 3831 3830 ] final -116.87 input -179.91 | X-H torsion
[ 3767 3762 3761 3758 ] final  -29.50 input  -89.99 | X-H torsion
[ 2472 2467 2466 2463 ] final    6.84 input  -89.97 | X-H torsion

> <Gold.Protein.ActiveResidues>
 VAL82   VAL86   LEU89   PHE106  VAL107  ASP110  VAL111  MET112  CYS114  THR115 
 CYS181  SER182  ILE183  PHE188  VAL189  ILE190  SER192  SER193  SER196  TRP342 
 PHE345  PHE346  HIS349  VAL350  TYR365  THR369  GLY372  TYR373 

> <Gold.Protein.RotatedAtoms>
    3.4382   -9.9783    4.1246 H   0  0  0  0  0  0  0  0  0  0  0  0  # atno 1303 bound_to 1298
    0.5718   -9.1719    8.0493 H   0  0  0  0  0  0  0  0  0  0  0  0  # atno 2461 bound_to 2456
   -3.8664   -4.8525    7.9870 H   0  0  0  0  0  0  0  0  0  0  0  0  # atno 2472 bound_to 2467
    2.2470   -7.4096    5.1924 H   0  0  0  0  0  0  0  0  0  0  0  0  # atno 2515 bound_to 2510
   -2.4999  -17.9228   14.3142 H   0  0  0  0  0  0  0  0  0  0  0  0  # atno 3721 bound_to 3712
   -5.4976  -22.3577   10.4143 H   0  0  0  0  0  0  0  0  0  0  0  0  # atno 3767 bound_to 3762
    2.1816  -19.5870    8.4775 H   0  0  0  0  0  0  0  0  0  0  0  0  # atno 3841 bound_to 3832
    4.1153   -8.4962    4.0193 LP  0  0  0  0  0  0  0  0  0  0  0  0  # atno 4297 bound_to 1298
    4.8089   -9.6466    4.9477 LP  0  0  0  0  0  0  0  0  0  0  0  0  # atno 4298 bound_to 1298
    2.1193   -8.6499    8.0680 LP  0  0  0  0  0  0  0  0  0  0  0  0  # atno 4299 bound_to 2456
    1.0464   -7.9866    7.0309 LP  0  0  0  0  0  0  0  0  0  0  0  0  # atno 4300 bound_to 2456
    2.8354   -8.7594    4.4871 LP  0  0  0  0  0  0  0  0  0  0  0  0  # atno 4301 bound_to 2510
    2.2144   -8.8306    5.9957 LP  0  0  0  0  0  0  0  0  0  0  0  0  # atno 4302 bound_to 2510
   -3.4704  -16.6455   14.3800 LP  0  0  0  0  0  0  0  0  0  0  0  0  # atno 4306 bound_to 3712
   -3.1711  -17.3886   12.9570 LP  0  0  0  0  0  0  0  0  0  0  0  0  # atno 4307 bound_to 3712
    3.0794  -20.8845    8.7715 LP  0  0  0  0  0  0  0  0  0  0  0  0  # atno 4314 bound_to 3832
    1.6299  -20.6949    9.4993 LP  0  0  0  0  0  0  0  0  0  0  0  0  # atno 4315 bound_to 3832
   -4.4419  -22.1883   11.6487 LP  0  0  0  0  0  0  0  0  0  0  0  0  # atno 4318 bound_to 3762
   -4.1881  -23.3289   10.5079 LP  0  0  0  0  0  0  0  0  0  0  0  0  # atno 4319 bound_to 3762
   -4.3905   -5.4268    9.4229 LP  0  0  0  0  0  0  0  0  0  0  0  0  # atno 4320 bound_to 2467
   -5.4599   -5.1142    8.2291 LP  0  0  0  0  0  0  0  0  0  0  0  0  # atno 4321 bound_to 2467

> <Gold.Score>
     Score     S(PLP)   S(hbond)     S(cho)   S(metal)  DE(clash)   DE(tors)     intcor
     31.76     -29.83       0.66       0.00       0.00       0.00       0.02       0.00

> <Gold.PLP.Fitness>
31.7556

> <Gold.PLP.PLP>
-29.8293

> <Gold.PLP.part.hbond>
-0.9893

> <Gold.PLP.part.metal>
0.0000

> <Gold.PLP.part.buried>
-3.6485

> <Gold.PLP.part.nonpolar>
-26.4173

> <Gold.PLP.part.repulsive>
0.1030

> <Gold.PLP.ligand.clash>
0.0000

> <Gold.PLP.ligand.torsion>
0.0209

> <Gold.PLP.Chemscore.Hbond>
0.6560

> <Gold.PLP.Chemscore.CHOScore>
0.0000

> <Gold.PLP.Chemscore.Metal>
0.0000

> <Gold.Chemscore.Hbonds>
donor molecule, donor type, donor heavy atom, donor atom, acceptor molecule, acceptor atom, score
      P1  H  2456  2461       L1     9  0.66

> <Gold.PLP.Chemscore.Internal.Correction>
0.0001

