#       Name:                EN300-1177249_i002
#       Creating user name   aseyller
#       Creation time:       Fri Apr 21 14:19:08 2023


#       File generated by GOLD software.
#

@<TRIPOS>MOLECULE
EN300-1177249_i002
    30    29     1
SMALL
USER_CHARGES


@<TRIPOS>ATOM
      1 C1           5.7772   0.5948  -0.3190 C.3            1 <1>                0.0000
      2 C2           4.3548   0.4816   0.0429 C.1            1 <1>                0.0000
      3 C3           3.2205   0.3913   0.3315 C.1            1 <1>                0.0000
      4 C4           1.7981   0.2781   0.6934 C.3            1 <1>                0.0000
      5 C5           1.0713  -0.5683  -0.3535 C.3            1 <1>                0.0000
      6 N6           1.5914  -1.9418  -0.3198 N.3            1 <1>                0.0000
      7 C7          -0.4050  -0.5827  -0.0512 C.2            1 <1>                0.0000
      8 O8          -0.8970  -1.5313   0.5127 O.2            1 <1>                0.0000
      9 O9          -1.1733   0.4584  -0.4083 O.3            1 <1>                0.0000
     10 C10         -2.5865   0.3762  -0.0852 C.3            1 <1>                0.0000
     11 C11         -2.7564   0.2402   1.4293 C.3            1 <1>                0.0000
     12 C12         -3.2943   1.6446  -0.5659 C.3            1 <1>                0.0000
     13 C13         -3.1981  -0.8430  -0.7784 C.3            1 <1>                0.0000
     14 H14          6.2950   1.1978   0.4269 H              1 <1>                0.0000
     15 H15          6.2229  -0.3992  -0.3558 H              1 <1>                0.0000
     16 H16          5.8668   1.0696  -1.2961 H              1 <1>                0.0000
     17 H17          1.7085  -0.1967   1.6705 H              1 <1>                0.0000
     18 H18          1.3524   1.2721   0.7302 H              1 <1>                0.0000
     19 H19          1.2354  -0.1419  -1.3432 H              1 <1>                0.0000
     20 H20         -2.3207   1.1088   1.9232 H              1 <1>                0.0000
     21 H21         -3.8173   0.1785   1.6718 H              1 <1>                0.0000
     22 H22         -2.2522  -0.6634   1.7718 H              1 <1>                0.0000
     23 H23         -3.1733   1.7415  -1.6448 H              1 <1>                0.0000
     24 H24         -4.3551   1.5829  -0.3234 H              1 <1>                0.0000
     25 H25         -2.8586   2.5131  -0.0720 H              1 <1>                0.0000
     26 H26         -2.6939  -1.7466  -0.4359 H              1 <1>                0.0000
     27 H27         -4.2589  -0.9047  -0.5359 H              1 <1>                0.0000
     28 H28         -3.0771  -0.7461  -1.8574 H              1 <1>                0.0000
     29 H29          1.4511  -2.3593   0.5880 H              1 <1>                0.0000
     30 H30          1.1732  -2.5047  -1.0453 H              1 <1>                0.0000
@<TRIPOS>BOND
    1    1    2 1     
    2    1   14 1     
    3    1   15 1     
    4    1   16 1     
    5    2    3 3     
    6    3    4 1     
    7    4    5 1     
    8    4   17 1     
    9    4   18 1     
   10    5    6 1     
   11    5    7 1     
   12    5   19 1     
   13    6   29 1     
   14    6   30 1     
   15    7    8 2     
   16    7    9 1     
   17    9   10 1     
   18   10   11 1     
   19   10   12 1     
   20   10   13 1     
   21   11   20 1     
   22   11   21 1     
   23   11   22 1     
   24   12   23 1     
   25   12   24 1     
   26   12   25 1     
   27   13   26 1     
   28   13   27 1     
   29   13   28 1     
@<TRIPOS>SUBSTRUCTURE
      1 ****           1
@<TRIPOS>SET
DONOR_HYDROGENS      STATIC     ATOMS    <user>   **** ""
2 29 30
ATOM$RED        STATIC     ATOMS    COLORGROUP SYSTEM
2 29 30
