#       Name:                EN300-1177249_i002
#       Creating user name   aseyller
#       Creation time:       Fri Apr 21 14:19:12 2023


#       File generated by GOLD software.
#

@<TRIPOS>MOLECULE
EN300-1177249_i002|amine_1|mol2|667|dock4
    30    29     1
SMALL
USER_CHARGES


@<TRIPOS>ATOM
      1 C1          25.4827  36.8121  41.2222 C.3            1 <1>                0.0000
      2 C2          26.2896  36.9897  40.0038 C.1            1 <1>                0.0000
      3 C3          26.9330  37.1313  39.0321 C.1            1 <1>                0.0000
      4 C4          27.7398  37.3088  37.8138 C.3            1 <1>                0.0000
      5 C5          29.2258  37.2658  38.1754 C.3            1 <1>                0.0000
      6 N6          29.6093  35.8870  38.5070 N.3            1 <1>                0.0000
      7 C7          30.0422  37.7461  37.0033 C.2            1 <1>                0.0000
      8 O8          29.9637  38.8968  36.6433 O.2            1 <1>                0.0000
      9 O9          30.8567  36.8955  36.3593 O.3            1 <1>                0.0000
     10 C10         31.9199  37.4783  35.5602 C.3            1 <1>                0.0000
     11 C11         31.3168  38.1733  34.3378 C.3            1 <1>                0.0000
     12 C12         32.6880  38.5003  36.4007 C.3            1 <1>                0.0000
     13 C13         32.8751  36.3753  35.1000 C.3            1 <1>                0.0000
     14 H14         25.1061  37.7801  41.5528 H              1 <1>                0.0000
     15 H15         24.6440  36.1495  41.0091 H              1 <1>                0.0000
     16 H16         26.1007  36.3754  42.0067 H              1 <1>                0.0000
     17 H17         27.5141  36.5087  37.1087 H              1 <1>                0.0000
     18 H18         27.5042  38.2710  37.3591 H              1 <1>                0.0000
     19 H19         29.4095  37.9107  39.0348 H              1 <1>                0.0000
     20 H20         30.6362  38.9592  34.6657 H              1 <1>                0.0000
     21 H21         32.1149  38.6108  33.7381 H              1 <1>                0.0000
     22 H22         30.7696  37.4453  33.7391 H              1 <1>                0.0000
     23 H23         33.1176  38.0051  37.2715 H              1 <1>                0.0000
     24 H24         33.4860  38.9377  35.8009 H              1 <1>                0.0000
     25 H25         32.0074  39.2860  36.7285 H              1 <1>                0.0000
     26 H26         32.3279  35.6472  34.5012 H              1 <1>                0.0000
     27 H27         33.6732  36.8127  34.5002 H              1 <1>                0.0000
     28 H28         33.3049  35.8801  35.9708 H              1 <1>                0.0000
     29 H29         30.2402  35.8667  39.2942 H              1 <1>                0.0000
     30 H30         28.7951  35.3171  38.6813 H              1 <1>                0.0000
@<TRIPOS>BOND
    1    1    2 1     
    2    1   14 1     
    3    1   15 1     
    4    1   16 1     
    5    2    3 3     
    6    3    4 1     
    7    4    5 1     
    8    4   17 1     
    9    4   18 1     
   10    5    6 1     
   11    5    7 1     
   12    5   19 1     
   13    6   29 1     
   14    6   30 1     
   15    7    8 2     
   16    7    9 1     
   17    9   10 1     
   18   10   11 1     
   19   10   12 1     
   20   10   13 1     
   21   11   20 1     
   22   11   21 1     
   23   11   22 1     
   24   12   23 1     
   25   12   24 1     
   26   12   25 1     
   27   13   26 1     
   28   13   27 1     
   29   13   28 1     
@<TRIPOS>SUBSTRUCTURE
      1 ****           1
@<TRIPOS>SET
DONOR_HYDROGENS      STATIC     ATOMS    <user>   **** ""
2 29 30
ATOM$RED        STATIC     ATOMS    COLORGROUP SYSTEM
2 29 30
@<TRIPOS>COMMENT
> <Gold.Version>
2022.2.0

> <Gold.Id.Protein>
1qkm|1qkm_protein|mol2

> <Gold.Protein.RotatedTorsions>
[  496  491  490  487 ] final   74.98 input  -89.99 | X-H torsion

> <Gold.Protein.ActiveResidues>
 MET295  LEU298  THR299  LEU301  ALA302  GLU305  TRP335  MET336  LEU339  MET340 
 GLY342  LEU343  ARG346  PHE356  ILE373  ILE376  PHE377  LEU380  LYS471  GLY472 
 MET473  HIS475  LEU476  LEU477  ASN478  MET479  VAL484  VAL487 

> <Gold.Protein.RotatedAtoms>
   36.6820   33.1473   42.1855 H   0  0  0  0  0  0  0  0  0  0  0  0  # atno 496  bound_to 491 

> <Gold.Score>
     Score     S(PLP)   S(hbond)     S(cho)   S(metal)  DE(clash)   DE(tors)     intcor
     40.41     -40.92       0.00       0.00       0.00       0.00       0.50       0.49

> <Gold.PLP.Fitness>
40.4097

> <Gold.PLP.PLP>
-40.9247

> <Gold.PLP.part.hbond>
0.0000

> <Gold.PLP.part.metal>
0.0000

> <Gold.PLP.part.buried>
-3.9113

> <Gold.PLP.part.nonpolar>
-37.0794

> <Gold.PLP.part.repulsive>
0.0068

> <Gold.PLP.ligand.clash>
0.0000

> <Gold.PLP.ligand.torsion>
0.5047

> <Gold.PLP.Chemscore.Hbond>
0.0000

> <Gold.PLP.Chemscore.CHOScore>
0.0000

> <Gold.PLP.Chemscore.Metal>
0.0000

> <Gold.PLP.Chemscore.Internal.Correction>
0.4945

