#       Name:                EN300-1177249_i002
#       Creating user name   aseyller
#       Creation time:       Fri Apr 21 14:19:31 2023


#       File generated by GOLD software.
#

@<TRIPOS>MOLECULE
EN300-1177249_i002|amine_1|mol2|667|dock20
    30    29     1
SMALL
USER_CHARGES


@<TRIPOS>ATOM
      1 C1          24.7217  37.2992  42.1048 C.3            1 <1>                0.0000
      2 C2          25.7808  36.7843  41.2214 C.1            1 <1>                0.0000
      3 C3          26.6253  36.3737  40.5169 C.1            1 <1>                0.0000
      4 C4          27.6843  35.8589  39.6336 C.3            1 <1>                0.0000
      5 C5          28.9843  36.6209  39.8981 C.3            1 <1>                0.0000
      6 N6          29.5123  36.2455  41.2166 N.3            1 <1>                0.0000
      7 C7          29.9949  36.2745  38.8352 C.2            1 <1>                0.0000
      8 O8          30.4021  37.1311  38.0866 O.2            1 <1>                0.0000
      9 O9          30.4427  35.0144  38.7201 O.3            1 <1>                0.0000
     10 C10         31.6673  34.8163  37.9655 C.3            1 <1>                0.0000
     11 C11         32.7522  35.7546  38.4981 C.3            1 <1>                0.0000
     12 C12         32.1295  33.3655  38.1148 C.3            1 <1>                0.0000
     13 C13         31.4107  35.1203  36.4880 C.3            1 <1>                0.0000
     14 H14         25.0351  37.1995  43.1440 H              1 <1>                0.0000
     15 H15         24.5395  38.3499  41.8794 H              1 <1>                0.0000
     16 H16         23.8064  36.7292  41.9450 H              1 <1>                0.0000
     17 H17         27.8383  34.7980  39.8311 H              1 <1>                0.0000
     18 H18         27.3882  35.9956  38.5935 H              1 <1>                0.0000
     19 H19         28.7879  37.6929  39.8771 H              1 <1>                0.0000
     20 H20         32.9350  35.5380  39.5507 H              1 <1>                0.0000
     21 H21         33.6714  35.6058  37.9316 H              1 <1>                0.0000
     22 H22         32.4229  36.7882  38.3917 H              1 <1>                0.0000
     23 H23         31.3567  32.6970  37.7354 H              1 <1>                0.0000
     24 H24         33.0487  33.2168  37.5484 H              1 <1>                0.0000
     25 H25         32.3123  33.1490  39.1674 H              1 <1>                0.0000
     26 H26         31.0815  36.1539  36.3816 H              1 <1>                0.0000
     27 H27         32.3299  34.9716  35.9215 H              1 <1>                0.0000
     28 H28         30.6378  34.4518  36.1085 H              1 <1>                0.0000
     29 H29         28.8766  35.6274  41.6980 H              1 <1>                0.0000
     30 H30         30.4282  35.8301  41.1344 H              1 <1>                0.0000
@<TRIPOS>BOND
    1    1    2 1     
    2    1   14 1     
    3    1   15 1     
    4    1   16 1     
    5    2    3 3     
    6    3    4 1     
    7    4    5 1     
    8    4   17 1     
    9    4   18 1     
   10    5    6 1     
   11    5    7 1     
   12    5   19 1     
   13    6   29 1     
   14    6   30 1     
   15    7    8 2     
   16    7    9 1     
   17    9   10 1     
   18   10   11 1     
   19   10   12 1     
   20   10   13 1     
   21   11   20 1     
   22   11   21 1     
   23   11   22 1     
   24   12   23 1     
   25   12   24 1     
   26   12   25 1     
   27   13   26 1     
   28   13   27 1     
   29   13   28 1     
@<TRIPOS>SUBSTRUCTURE
      1 ****           1
@<TRIPOS>SET
DONOR_HYDROGENS      STATIC     ATOMS    <user>   **** ""
2 29 30
ATOM$RED        STATIC     ATOMS    COLORGROUP SYSTEM
2 29 30
@<TRIPOS>COMMENT
> <Gold.Version>
2022.2.0

> <Gold.Id.Protein>
1qkm|1qkm_protein|mol2

> <Gold.Protein.RotatedTorsions>
[  496  491  490  487 ] final   77.15 input  -89.99 | X-H torsion

> <Gold.Protein.ActiveResidues>
 MET295  LEU298  THR299  LEU301  ALA302  GLU305  TRP335  MET336  LEU339  MET340 
 GLY342  LEU343  ARG346  PHE356  ILE373  ILE376  PHE377  LEU380  LYS471  GLY472 
 MET473  HIS475  LEU476  LEU477  ASN478  MET479  VAL484  VAL487 

> <Gold.Protein.RotatedAtoms>
   36.7018   33.1260   42.1645 H   0  0  0  0  0  0  0  0  0  0  0  0  # atno 496  bound_to 491 

> <Gold.Score>
     Score     S(PLP)   S(hbond)     S(cho)   S(metal)  DE(clash)   DE(tors)     intcor
     38.09     -35.67       0.88       0.00       0.00       0.00       0.36       0.49

> <Gold.PLP.Fitness>
38.0901

> <Gold.PLP.PLP>
-35.6745

> <Gold.PLP.part.hbond>
-1.0000

> <Gold.PLP.part.metal>
0.0000

> <Gold.PLP.part.buried>
1.4785

> <Gold.PLP.part.nonpolar>
-36.3445

> <Gold.PLP.part.repulsive>
0.0867

> <Gold.PLP.ligand.clash>
0.0000

> <Gold.PLP.ligand.torsion>
0.3589

> <Gold.PLP.Chemscore.Hbond>
0.8800

> <Gold.PLP.Chemscore.CHOScore>
0.0000

> <Gold.PLP.Chemscore.Metal>
0.0000

> <Gold.Chemscore.Hbonds>
donor molecule, donor type, donor heavy atom, donor atom, acceptor molecule, acceptor atom, score
      L1  H     6    30       P1   470  0.88

> <Gold.PLP.Chemscore.Internal.Correction>
0.4934

