#       Name:                EN300-1177249_i002
#       Creating user name   aseyller
#       Creation time:       Fri Apr 21 14:19:24 2023


#       File generated by GOLD software.
#

@<TRIPOS>MOLECULE
EN300-1177249_i002|amine_1|mol2|667|dock14
    30    29     1
SMALL
USER_CHARGES


@<TRIPOS>ATOM
      1 C1          31.6027  33.0279  38.1963 C.3            1 <1>                0.0000
      2 C2          31.9558  34.4429  37.9960 C.1            1 <1>                0.0000
      3 C3          32.2375  35.5713  37.8362 C.1            1 <1>                0.0000
      4 C4          32.5906  36.9862  37.6359 C.3            1 <1>                0.0000
      5 C5          31.4549  37.6955  36.8958 C.3            1 <1>                0.0000
      6 N6          31.4508  37.2761  35.4879 N.3            1 <1>                0.0000
      7 C7          30.1375  37.3333  37.5317 C.2            1 <1>                0.0000
      8 O8          29.2407  36.8908  36.8535 O.2            1 <1>                0.0000
      9 O9          29.9605  37.5021  38.8515 O.3            1 <1>                0.0000
     10 C10         28.9927  36.6374  39.5027 C.3            1 <1>                0.0000
     11 C11         29.2777  35.1811  39.1297 C.3            1 <1>                0.0000
     12 C12         29.0982  36.8053  41.0198 C.3            1 <1>                0.0000
     13 C13         27.5824  37.0144  39.0446 C.3            1 <1>                0.0000
     14 H14         30.7803  32.7612  37.5325 H              1 <1>                0.0000
     15 H15         32.4671  32.4027  37.9732 H              1 <1>                0.0000
     16 H16         31.2991  32.8723  39.2316 H              1 <1>                0.0000
     17 H17         32.7466  37.4623  38.6040 H              1 <1>                0.0000
     18 H18         33.5053  37.0525  37.0468 H              1 <1>                0.0000
     19 H19         31.6017  38.7741  36.9531 H              1 <1>                0.0000
     20 H20         30.2825  34.9125  39.4561 H              1 <1>                0.0000
     21 H21         28.5512  34.5320  39.6186 H              1 <1>                0.0000
     22 H22         29.2026  35.0614  38.0490 H              1 <1>                0.0000
     23 H23         28.8952  37.8428  41.2854 H              1 <1>                0.0000
     24 H24         28.3718  36.1563  41.5086 H              1 <1>                0.0000
     25 H25         30.1029  36.5367  41.3460 H              1 <1>                0.0000
     26 H26         27.5073  36.8947  37.9638 H              1 <1>                0.0000
     27 H27         26.8560  36.3654  39.5334 H              1 <1>                0.0000
     28 H28         27.3793  38.0519  39.3103 H              1 <1>                0.0000
     29 H29         32.1600  36.5792  35.3162 H              1 <1>                0.0000
     30 H30         30.5398  36.9403  35.2133 H              1 <1>                0.0000
@<TRIPOS>BOND
    1    1    2 1     
    2    1   14 1     
    3    1   15 1     
    4    1   16 1     
    5    2    3 3     
    6    3    4 1     
    7    4    5 1     
    8    4   17 1     
    9    4   18 1     
   10    5    6 1     
   11    5    7 1     
   12    5   19 1     
   13    6   29 1     
   14    6   30 1     
   15    7    8 2     
   16    7    9 1     
   17    9   10 1     
   18   10   11 1     
   19   10   12 1     
   20   10   13 1     
   21   11   20 1     
   22   11   21 1     
   23   11   22 1     
   24   12   23 1     
   25   12   24 1     
   26   12   25 1     
   27   13   26 1     
   28   13   27 1     
   29   13   28 1     
@<TRIPOS>SUBSTRUCTURE
      1 ****           1
@<TRIPOS>SET
DONOR_HYDROGENS      STATIC     ATOMS    <user>   **** ""
2 29 30
ATOM$RED        STATIC     ATOMS    COLORGROUP SYSTEM
2 29 30
@<TRIPOS>COMMENT
> <Gold.Version>
2022.2.0

> <Gold.Id.Protein>
1qkm|1qkm_protein|mol2

> <Gold.Protein.RotatedTorsions>
[  496  491  490  487 ] final -157.35 input  -89.99 | X-H torsion

> <Gold.Protein.ActiveResidues>
 MET295  LEU298  THR299  LEU301  ALA302  GLU305  TRP335  MET336  LEU339  MET340 
 GLY342  LEU343  ARG346  PHE356  ILE373  ILE376  PHE377  LEU380  LYS471  GLY472 
 MET473  HIS475  LEU476  LEU477  ASN478  MET479  VAL484  VAL487 

> <Gold.Protein.RotatedAtoms>
   37.2649   33.8047   40.7382 H   0  0  0  0  0  0  0  0  0  0  0  0  # atno 496  bound_to 491 

> <Gold.Score>
     Score     S(PLP)   S(hbond)     S(cho)   S(metal)  DE(clash)   DE(tors)     intcor
     39.82     -40.54       0.00       0.00       0.00       0.00       0.60       0.49

> <Gold.PLP.Fitness>
39.8222

> <Gold.PLP.PLP>
-40.5376

> <Gold.PLP.part.hbond>
0.0000

> <Gold.PLP.part.metal>
0.0000

> <Gold.PLP.part.buried>
-3.3777

> <Gold.PLP.part.nonpolar>
-38.1906

> <Gold.PLP.part.repulsive>
0.0289

> <Gold.PLP.ligand.clash>
0.0000

> <Gold.PLP.ligand.torsion>
0.6044

> <Gold.PLP.Chemscore.Hbond>
0.0000

> <Gold.PLP.Chemscore.CHOScore>
0.0000

> <Gold.PLP.Chemscore.Metal>
0.0000

> <Gold.PLP.Chemscore.Internal.Correction>
0.4934

