#       Name:                EN300-1177249_i002
#       Creating user name   aseyller
#       Creation time:       Fri Apr 21 14:19:11 2023


#       File generated by GOLD software.
#

@<TRIPOS>MOLECULE
EN300-1177249_i002|amine_1|mol2|667|dock3
    30    29     1
SMALL
USER_CHARGES


@<TRIPOS>ATOM
      1 C1          25.5028  36.9938  41.2342 C.3            1 <1>                0.0000
      2 C2          26.5423  36.9092  40.1953 C.1            1 <1>                0.0000
      3 C3          27.3712  36.8418  39.3669 C.1            1 <1>                0.0000
      4 C4          28.4108  36.7572  38.3280 C.3            1 <1>                0.0000
      5 C5          29.7889  36.6942  38.9895 C.3            1 <1>                0.0000
      6 N6          29.8611  35.5124  39.8590 N.3            1 <1>                0.0000
      7 C7          30.8527  36.6013  37.9262 C.2            1 <1>                0.0000
      8 O8          31.9896  36.3287  38.2312 O.2            1 <1>                0.0000
      9 O9          30.5373  36.8213  36.6402 O.3            1 <1>                0.0000
     10 C10         31.6133  37.2401  35.7598 C.3            1 <1>                0.0000
     11 C11         31.0267  37.7269  34.4332 C.3            1 <1>                0.0000
     12 C12         32.3978  38.3769  36.4181 C.3            1 <1>                0.0000
     13 C13         32.5493  36.0580  35.5003 C.3            1 <1>                0.0000
     14 H14         25.9718  36.9962  42.2181 H              1 <1>                0.0000
     15 H15         24.9310  37.9123  41.1021 H              1 <1>                0.0000
     16 H16         24.8358  36.1356  41.1516 H              1 <1>                0.0000
     17 H17         28.2538  35.8601  37.7292 H              1 <1>                0.0000
     18 H18         28.3555  37.6366  37.6864 H              1 <1>                0.0000
     19 H19         29.9477  37.5935  39.5848 H              1 <1>                0.0000
     20 H20         30.3598  38.5691  34.6180 H              1 <1>                0.0000
     21 H21         31.8345  38.0413  33.7723 H              1 <1>                0.0000
     22 H22         30.4678  36.9171  33.9641 H              1 <1>                0.0000
     23 H23         32.8157  38.0301  37.3632 H              1 <1>                0.0000
     24 H24         33.2055  38.6913  35.7573 H              1 <1>                0.0000
     25 H25         31.7309  39.2190  36.6030 H              1 <1>                0.0000
     26 H26         31.9905  35.2482  35.0312 H              1 <1>                0.0000
     27 H27         33.3571  36.3724  34.8395 H              1 <1>                0.0000
     28 H28         32.9673  35.7112  36.4455 H              1 <1>                0.0000
     29 H29         29.9008  34.6643  39.3138 H              1 <1>                0.0000
     30 H30         30.6470  35.5744  40.4889 H              1 <1>                0.0000
@<TRIPOS>BOND
    1    1    2 1     
    2    1   14 1     
    3    1   15 1     
    4    1   16 1     
    5    2    3 3     
    6    3    4 1     
    7    4    5 1     
    8    4   17 1     
    9    4   18 1     
   10    5    6 1     
   11    5    7 1     
   12    5   19 1     
   13    6   29 1     
   14    6   30 1     
   15    7    8 2     
   16    7    9 1     
   17    9   10 1     
   18   10   11 1     
   19   10   12 1     
   20   10   13 1     
   21   11   20 1     
   22   11   21 1     
   23   11   22 1     
   24   12   23 1     
   25   12   24 1     
   26   12   25 1     
   27   13   26 1     
   28   13   27 1     
   29   13   28 1     
@<TRIPOS>SUBSTRUCTURE
      1 ****           1
@<TRIPOS>SET
DONOR_HYDROGENS      STATIC     ATOMS    <user>   **** ""
2 29 30
ATOM$RED        STATIC     ATOMS    COLORGROUP SYSTEM
2 29 30
@<TRIPOS>COMMENT
> <Gold.Version>
2022.2.0

> <Gold.Id.Protein>
1qkm|1qkm_protein|mol2

> <Gold.Protein.RotatedTorsions>
[  496  491  490  487 ] final  157.44 input  -89.99 | X-H torsion

> <Gold.Protein.ActiveResidues>
 MET295  LEU298  THR299  LEU301  ALA302  GLU305  TRP335  MET336  LEU339  MET340 
 GLY342  LEU343  ARG346  PHE356  ILE373  ILE376  PHE377  LEU380  LYS471  GLY472 
 MET473  HIS475  LEU476  LEU477  ASN478  MET479  VAL484  VAL487 

> <Gold.Protein.RotatedAtoms>
   37.2895   33.1775   41.1010 H   0  0  0  0  0  0  0  0  0  0  0  0  # atno 496  bound_to 491 

> <Gold.Score>
     Score     S(PLP)   S(hbond)     S(cho)   S(metal)  DE(clash)   DE(tors)     intcor
     41.38     -39.28       1.00       0.00       0.00       0.00       0.70       0.49

> <Gold.PLP.Fitness>
41.3847

> <Gold.PLP.PLP>
-39.2823

> <Gold.PLP.part.hbond>
-1.0000

> <Gold.PLP.part.metal>
0.0000

> <Gold.PLP.part.buried>
-2.6715

> <Gold.PLP.part.nonpolar>
-35.5738

> <Gold.PLP.part.repulsive>
0.0512

> <Gold.PLP.ligand.clash>
0.0000

> <Gold.PLP.ligand.torsion>
0.6960

> <Gold.PLP.Chemscore.Hbond>
1.0000

> <Gold.PLP.Chemscore.CHOScore>
0.0000

> <Gold.PLP.Chemscore.Metal>
0.0000

> <Gold.Chemscore.Hbonds>
donor molecule, donor type, donor heavy atom, donor atom, acceptor molecule, acceptor atom, score
      L1  H     6    30       P1   470  1.00

> <Gold.PLP.Chemscore.Internal.Correction>
0.4945

