#       Name:                EN300-1177249_i002
#       Creating user name   aseyller
#       Creation time:       Fri Apr 21 14:19:25 2023


#       File generated by GOLD software.
#

@<TRIPOS>MOLECULE
EN300-1177249_i002|amine_1|mol2|667|dock15
    30    29     1
SMALL
USER_CHARGES


@<TRIPOS>ATOM
      1 C1          25.7827  37.5904  39.1095 C.3            1 <1>                0.0000
      2 C2          26.9483  36.6958  39.0192 C.1            1 <1>                0.0000
      3 C3          27.8777  35.9824  38.9472 C.1            1 <1>                0.0000
      4 C4          29.0433  35.0878  38.8569 C.3            1 <1>                0.0000
      5 C5          30.3280  35.9120  38.9604 C.3            1 <1>                0.0000
      6 N6          31.4691  35.0142  39.1843 N.3            1 <1>                0.0000
      7 C7          30.5367  36.6799  37.6806 C.2            1 <1>                0.0000
      8 O8          31.1471  36.1773  36.7671 O.2            1 <1>                0.0000
      9 O9          30.0443  37.9224  37.5557 O.3            1 <1>                0.0000
     10 C10         30.5549  38.7267  36.4599 C.3            1 <1>                0.0000
     11 C11         30.1009  38.1229  35.1293 C.3            1 <1>                0.0000
     12 C12         30.0182  40.1542  36.5817 C.3            1 <1>                0.0000
     13 C13         32.0838  38.7503  36.5138 C.3            1 <1>                0.0000
     14 H14         25.6685  38.1341  38.1717 H              1 <1>                0.0000
     15 H15         24.8859  37.0007  39.2992 H              1 <1>                0.0000
     16 H16         25.9308  38.2989  39.9245 H              1 <1>                0.0000
     17 H17         29.0095  34.3638  39.6711 H              1 <1>                0.0000
     18 H18         29.0247  34.5621  37.9023 H              1 <1>                0.0000
     19 H19         30.2459  36.6099  39.7937 H              1 <1>                0.0000
     20 H20         29.0117  38.1061  35.0909 H              1 <1>                0.0000
     21 H21         30.4842  38.7267  34.3068 H              1 <1>                0.0000
     22 H22         30.4833  37.1059  35.0425 H              1 <1>                0.0000
     23 H23         30.3416  40.5844  37.5296 H              1 <1>                0.0000
     24 H24         30.4014  40.7580  35.7592 H              1 <1>                0.0000
     25 H25         28.9290  40.1373  36.5432 H              1 <1>                0.0000
     26 H26         32.4662  37.7333  36.4270 H              1 <1>                0.0000
     27 H27         32.4671  39.3541  35.6913 H              1 <1>                0.0000
     28 H28         32.4073  39.1805  37.4618 H              1 <1>                0.0000
     29 H29         32.3351  35.4560  38.9141 H              1 <1>                0.0000
     30 H30         31.5042  34.7067  40.1446 H              1 <1>                0.0000
@<TRIPOS>BOND
    1    1    2 1     
    2    1   14 1     
    3    1   15 1     
    4    1   16 1     
    5    2    3 3     
    6    3    4 1     
    7    4    5 1     
    8    4   17 1     
    9    4   18 1     
   10    5    6 1     
   11    5    7 1     
   12    5   19 1     
   13    6   29 1     
   14    6   30 1     
   15    7    8 2     
   16    7    9 1     
   17    9   10 1     
   18   10   11 1     
   19   10   12 1     
   20   10   13 1     
   21   11   20 1     
   22   11   21 1     
   23   11   22 1     
   24   12   23 1     
   25   12   24 1     
   26   12   25 1     
   27   13   26 1     
   28   13   27 1     
   29   13   28 1     
@<TRIPOS>SUBSTRUCTURE
      1 ****           1
@<TRIPOS>SET
DONOR_HYDROGENS      STATIC     ATOMS    <user>   **** ""
2 29 30
ATOM$RED        STATIC     ATOMS    COLORGROUP SYSTEM
2 29 30
@<TRIPOS>COMMENT
> <Gold.Version>
2022.2.0

> <Gold.Id.Protein>
1qkm|1qkm_protein|mol2

> <Gold.Protein.RotatedTorsions>
[  496  491  490  487 ] final  -43.27 input  -89.99 | X-H torsion

> <Gold.Protein.ActiveResidues>
 MET295  LEU298  THR299  LEU301  ALA302  GLU305  TRP335  MET336  LEU339  MET340 
 GLY342  LEU343  ARG346  PHE356  ILE373  ILE376  PHE377  LEU380  LYS471  GLY472 
 MET473  HIS475  LEU476  LEU477  ASN478  MET479  VAL484  VAL487 

> <Gold.Protein.RotatedAtoms>
   36.3820   34.6705   41.7261 H   0  0  0  0  0  0  0  0  0  0  0  0  # atno 496  bound_to 491 

> <Gold.Score>
     Score     S(PLP)   S(hbond)     S(cho)   S(metal)  DE(clash)   DE(tors)     intcor
     38.69     -37.35       0.99       0.00       0.00       0.00       1.06       0.49

> <Gold.PLP.Fitness>
38.6947

> <Gold.PLP.PLP>
-37.3484

> <Gold.PLP.part.hbond>
-1.0000

> <Gold.PLP.part.metal>
0.0000

> <Gold.PLP.part.buried>
-2.5835

> <Gold.PLP.part.nonpolar>
-33.6381

> <Gold.PLP.part.repulsive>
0.0000

> <Gold.PLP.ligand.clash>
0.0033

> <Gold.PLP.ligand.torsion>
1.0599

> <Gold.PLP.Chemscore.Hbond>
0.9920

> <Gold.PLP.Chemscore.CHOScore>
0.0000

> <Gold.PLP.Chemscore.Metal>
0.0000

> <Gold.Chemscore.Hbonds>
donor molecule, donor type, donor heavy atom, donor atom, acceptor molecule, acceptor atom, score
      L1  H     6    30       P1   470  0.99

> <Gold.PLP.Chemscore.Internal.Correction>
0.4934

