#       Name:                EN300-1177249_i002
#       Creating user name   aseyller
#       Creation time:       Fri Apr 21 14:19:30 2023


#       File generated by GOLD software.
#

@<TRIPOS>MOLECULE
EN300-1177249_i002|amine_1|mol2|667|dock19
    30    29     1
SMALL
USER_CHARGES


@<TRIPOS>ATOM
      1 C1          29.6387  40.0204  37.0009 C.3            1 <1>                0.0000
      2 C2          29.7395  38.6738  37.5871 C.1            1 <1>                0.0000
      3 C3          29.8199  37.5999  38.0545 C.1            1 <1>                0.0000
      4 C4          29.9207  36.2534  38.6407 C.3            1 <1>                0.0000
      5 C5          31.3945  35.8865  38.8253 C.3            1 <1>                0.0000
      6 N6          31.4957  34.5310  39.3824 N.3            1 <1>                0.0000
      7 C7          32.0952  35.9352  37.4920 C.2            1 <1>                0.0000
      8 O8          32.4842  34.9142  36.9763 O.2            1 <1>                0.0000
      9 O9          32.2870  37.1130  36.8773 O.3            1 <1>                0.0000
     10 C10         32.3214  37.1011  35.4258 C.3            1 <1>                0.0000
     11 C11         31.1013  36.3471  34.8928 C.3            1 <1>                0.0000
     12 C12         32.3006  38.5389  34.9032 C.3            1 <1>                0.0000
     13 C13         33.5985  36.4045  34.9516 C.3            1 <1>                0.0000
     14 H14         29.9044  40.7643  37.7519 H              1 <1>                0.0000
     15 H15         30.3201  40.0998  36.1539 H              1 <1>                0.0000
     16 H16         28.6170  40.1939  36.6630 H              1 <1>                0.0000
     17 H17         29.4189  36.2398  39.6083 H              1 <1>                0.0000
     18 H18         29.4471  35.5313  37.9756 H              1 <1>                0.0000
     19 H19         31.8627  36.5957  39.5080 H              1 <1>                0.0000
     20 H20         30.1915  36.8433  35.2307 H              1 <1>                0.0000
     21 H21         31.1272  36.3382  33.8032 H              1 <1>                0.0000
     22 H22         31.1161  35.3228  35.2651 H              1 <1>                0.0000
     23 H23         33.1697  39.0761  35.2829 H              1 <1>                0.0000
     24 H24         32.3264  38.5300  33.8137 H              1 <1>                0.0000
     25 H25         31.3908  39.0351  35.2410 H              1 <1>                0.0000
     26 H26         33.6132  35.3802  35.3238 H              1 <1>                0.0000
     27 H27         33.6243  36.3956  33.8620 H              1 <1>                0.0000
     28 H28         34.4677  36.9417  35.3312 H              1 <1>                0.0000
     29 H29         31.6395  34.5602  40.3806 H              1 <1>                0.0000
     30 H30         30.6809  33.9829  39.1503 H              1 <1>                0.0000
@<TRIPOS>BOND
    1    1    2 1     
    2    1   14 1     
    3    1   15 1     
    4    1   16 1     
    5    2    3 3     
    6    3    4 1     
    7    4    5 1     
    8    4   17 1     
    9    4   18 1     
   10    5    6 1     
   11    5    7 1     
   12    5   19 1     
   13    6   29 1     
   14    6   30 1     
   15    7    8 2     
   16    7    9 1     
   17    9   10 1     
   18   10   11 1     
   19   10   12 1     
   20   10   13 1     
   21   11   20 1     
   22   11   21 1     
   23   11   22 1     
   24   12   23 1     
   25   12   24 1     
   26   12   25 1     
   27   13   26 1     
   28   13   27 1     
   29   13   28 1     
@<TRIPOS>SUBSTRUCTURE
      1 ****           1
@<TRIPOS>SET
DONOR_HYDROGENS      STATIC     ATOMS    <user>   **** ""
2 29 30
ATOM$RED        STATIC     ATOMS    COLORGROUP SYSTEM
2 29 30
@<TRIPOS>COMMENT
> <Gold.Version>
2022.2.0

> <Gold.Id.Protein>
1qkm|1qkm_protein|mol2

> <Gold.Protein.RotatedTorsions>
[  496  491  490  487 ] final   -7.13 input  -89.99 | X-H torsion

> <Gold.Protein.ActiveResidues>
 MET295  LEU298  THR299  LEU301  ALA302  GLU305  TRP335  MET336  LEU339  MET340 
 GLY342  LEU343  ARG346  PHE356  ILE373  ILE376  PHE377  LEU380  LYS471  GLY472 
 MET473  HIS475  LEU476  LEU477  ASN478  MET479  VAL484  VAL487 

> <Gold.Protein.RotatedAtoms>
   36.2599   34.3119   42.1721 H   0  0  0  0  0  0  0  0  0  0  0  0  # atno 496  bound_to 491 

> <Gold.Score>
     Score     S(PLP)   S(hbond)     S(cho)   S(metal)  DE(clash)   DE(tors)     intcor
     40.85     -38.56       1.00       0.00       0.00       0.00       0.60       0.49

> <Gold.PLP.Fitness>
40.8460

> <Gold.PLP.PLP>
-38.5574

> <Gold.PLP.part.hbond>
-1.0000

> <Gold.PLP.part.metal>
0.0000

> <Gold.PLP.part.buried>
-2.2143

> <Gold.PLP.part.nonpolar>
-34.8691

> <Gold.PLP.part.repulsive>
0.0000

> <Gold.PLP.ligand.clash>
0.0022

> <Gold.PLP.ligand.torsion>
0.6013

> <Gold.PLP.Chemscore.Hbond>
1.0000

> <Gold.PLP.Chemscore.CHOScore>
0.0000

> <Gold.PLP.Chemscore.Metal>
0.0000

> <Gold.Chemscore.Hbonds>
donor molecule, donor type, donor heavy atom, donor atom, acceptor molecule, acceptor atom, score
      L1  H     6    29       P1   470  1.00

> <Gold.PLP.Chemscore.Internal.Correction>
0.4934

