#       Name:                EN300-1177249_i002
#       Creating user name   aseyller
#       Creation time:       Fri Apr 21 14:19:29 2023


#       File generated by GOLD software.
#

@<TRIPOS>MOLECULE
EN300-1177249_i002|amine_1|mol2|667|dock18
    30    29     1
SMALL
USER_CHARGES


@<TRIPOS>ATOM
      1 C1          25.5049  36.8306  41.2009 C.3            1 <1>                0.0000
      2 C2          26.9165  36.7403  40.7931 C.1            1 <1>                0.0000
      3 C3          28.0421  36.6682  40.4679 C.1            1 <1>                0.0000
      4 C4          29.4537  36.5779  40.0600 C.3            1 <1>                0.0000
      5 C5          29.5365  36.4236  38.5402 C.3            1 <1>                0.0000
      6 N6          28.9890  37.6247  37.8954 N.3            1 <1>                0.0000
      7 C7          30.9760  36.2457  38.1310 C.2            1 <1>                0.0000
      8 O8          31.6317  35.3474  38.6031 O.2            1 <1>                0.0000
      9 O9          31.5295  37.0852  37.2418 O.3            1 <1>                0.0000
     10 C10         32.6522  36.5821  36.4707 C.3            1 <1>                0.0000
     11 C11         33.8635  36.4061  37.3887 C.3            1 <1>                0.0000
     12 C12         32.2818  35.2332  35.8508 C.3            1 <1>                0.0000
     13 C13         32.9946  37.5770  35.3598 C.3            1 <1>                0.0000
     14 H14         25.2727  36.0175  41.8887 H              1 <1>                0.0000
     15 H15         25.3301  37.7860  41.6955 H              1 <1>                0.0000
     16 H16         24.8668  36.7552  40.3204 H              1 <1>                0.0000
     17 H17         29.9779  37.4845  40.3624 H              1 <1>                0.0000
     18 H18         29.9155  35.7144  40.5387 H              1 <1>                0.0000
     19 H19         28.9606  35.5511  38.2316 H              1 <1>                0.0000
     20 H20         33.6196  35.6972  38.1801 H              1 <1>                0.0000
     21 H21         34.7063  36.0284  36.8097 H              1 <1>                0.0000
     22 H22         34.1275  37.3670  37.8303 H              1 <1>                0.0000
     23 H23         31.4189  35.3586  35.1968 H              1 <1>                0.0000
     24 H24         33.1245  34.8556  35.2719 H              1 <1>                0.0000
     25 H25         32.0379  34.5245  36.6422 H              1 <1>                0.0000
     26 H26         33.2586  38.5379  35.8014 H              1 <1>                0.0000
     27 H27         33.8374  37.1994  34.7810 H              1 <1>                0.0000
     28 H28         32.1317  37.7024  34.7058 H              1 <1>                0.0000
     29 H29         29.3605  38.4626  38.3174 H              1 <1>                0.0000
     30 H30         29.1628  37.6126  36.9016 H              1 <1>                0.0000
@<TRIPOS>BOND
    1    1    2 1     
    2    1   14 1     
    3    1   15 1     
    4    1   16 1     
    5    2    3 3     
    6    3    4 1     
    7    4    5 1     
    8    4   17 1     
    9    4   18 1     
   10    5    6 1     
   11    5    7 1     
   12    5   19 1     
   13    6   29 1     
   14    6   30 1     
   15    7    8 2     
   16    7    9 1     
   17    9   10 1     
   18   10   11 1     
   19   10   12 1     
   20   10   13 1     
   21   11   20 1     
   22   11   21 1     
   23   11   22 1     
   24   12   23 1     
   25   12   24 1     
   26   12   25 1     
   27   13   26 1     
   28   13   27 1     
   29   13   28 1     
@<TRIPOS>SUBSTRUCTURE
      1 ****           1
@<TRIPOS>SET
DONOR_HYDROGENS      STATIC     ATOMS    <user>   **** ""
2 29 30
ATOM$RED        STATIC     ATOMS    COLORGROUP SYSTEM
2 29 30
@<TRIPOS>COMMENT
> <Gold.Version>
2022.2.0

> <Gold.Id.Protein>
1qkm|1qkm_protein|mol2

> <Gold.Protein.RotatedTorsions>
[  496  491  490  487 ] final -109.79 input  -89.99 | X-H torsion

> <Gold.Protein.ActiveResidues>
 MET295  LEU298  THR299  LEU301  ALA302  GLU305  TRP335  MET336  LEU339  MET340 
 GLY342  LEU343  ARG346  PHE356  ILE373  ILE376  PHE377  LEU380  LYS471  GLY472 
 MET473  HIS475  LEU476  LEU477  ASN478  MET479  VAL484  VAL487 

> <Gold.Protein.RotatedAtoms>
   36.9383   34.4778   40.8754 H   0  0  0  0  0  0  0  0  0  0  0  0  # atno 496  bound_to 491 

> <Gold.Score>
     Score     S(PLP)   S(hbond)     S(cho)   S(metal)  DE(clash)   DE(tors)     intcor
     38.49     -38.90       0.00       0.00       0.00       0.00       0.45       0.49

> <Gold.PLP.Fitness>
38.4863

> <Gold.PLP.PLP>
-38.8962

> <Gold.PLP.part.hbond>
0.0000

> <Gold.PLP.part.metal>
0.0000

> <Gold.PLP.part.buried>
-4.8213

> <Gold.PLP.part.nonpolar>
-34.9437

> <Gold.PLP.part.repulsive>
0.0814

> <Gold.PLP.ligand.clash>
0.0000

> <Gold.PLP.ligand.torsion>
0.4516

> <Gold.PLP.Chemscore.Hbond>
0.0000

> <Gold.PLP.Chemscore.CHOScore>
0.0000

> <Gold.PLP.Chemscore.Metal>
0.0000

> <Gold.PLP.Chemscore.Internal.Correction>
0.4934

