#       Name:                EN300-1177249_i002
#       Creating user name   aseyller
#       Creation time:       Fri Apr 21 14:19:17 2023


#       File generated by GOLD software.
#

@<TRIPOS>MOLECULE
EN300-1177249_i002|amine_1|mol2|667|dock8
    30    29     1
SMALL
USER_CHARGES


@<TRIPOS>ATOM
      1 C1          25.9257  37.2476  39.3842 C.3            1 <1>                0.0000
      2 C2          27.0990  36.3832  39.1762 C.1            1 <1>                0.0000
      3 C3          28.0346  35.6939  39.0103 C.1            1 <1>                0.0000
      4 C4          29.2078  34.8294  38.8023 C.3            1 <1>                0.0000
      5 C5          30.4833  35.6213  39.0964 C.3            1 <1>                0.0000
      6 N6          31.5985  34.6902  39.3147 N.3            1 <1>                0.0000
      7 C7          30.7991  36.5177  37.9269 C.2            1 <1>                0.0000
      8 O8          30.0437  37.4130  37.6306 O.2            1 <1>                0.0000
      9 O9          31.9197  36.3216  37.2144 O.3            1 <1>                0.0000
     10 C10         32.0032  36.9797  35.9228 C.3            1 <1>                0.0000
     11 C11         32.0760  38.4944  36.1258 C.3            1 <1>                0.0000
     12 C12         33.2574  36.5028  35.1875 C.3            1 <1>                0.0000
     13 C13         30.7641  36.6353  35.0939 C.3            1 <1>                0.0000
     14 H14         25.4751  37.0221  40.3507 H              1 <1>                0.0000
     15 H15         26.2359  38.2923  39.3628 H              1 <1>                0.0000
     16 H16         25.1976  37.0685  38.5930 H              1 <1>                0.0000
     17 H17         29.1502  33.9714  39.4721 H              1 <1>                0.0000
     18 H18         29.2252  34.4831  37.7689 H              1 <1>                0.0000
     19 H19         30.3364  36.2281  39.9900 H              1 <1>                0.0000
     20 H20         32.9588  38.7398  36.7163 H              1 <1>                0.0000
     21 H21         32.1387  38.9884  35.1561 H              1 <1>                0.0000
     22 H22         31.1826  38.8342  36.6496 H              1 <1>                0.0000
     23 H23         33.2055  35.4237  35.0429 H              1 <1>                0.0000
     24 H24         33.3201  36.9967  34.2180 H              1 <1>                0.0000
     25 H25         34.1400  36.7482  35.7780 H              1 <1>                0.0000
     26 H26         29.8707  36.9751  35.6176 H              1 <1>                0.0000
     27 H27         30.8268  37.1292  34.1243 H              1 <1>                0.0000
     28 H28         30.7123  35.5561  34.9492 H              1 <1>                0.0000
     29 H29         32.4604  35.0665  38.9493 H              1 <1>                0.0000
     30 H30         31.6905  34.4592  40.2926 H              1 <1>                0.0000
@<TRIPOS>BOND
    1    1    2 1     
    2    1   14 1     
    3    1   15 1     
    4    1   16 1     
    5    2    3 3     
    6    3    4 1     
    7    4    5 1     
    8    4   17 1     
    9    4   18 1     
   10    5    6 1     
   11    5    7 1     
   12    5   19 1     
   13    6   29 1     
   14    6   30 1     
   15    7    8 2     
   16    7    9 1     
   17    9   10 1     
   18   10   11 1     
   19   10   12 1     
   20   10   13 1     
   21   11   20 1     
   22   11   21 1     
   23   11   22 1     
   24   12   23 1     
   25   12   24 1     
   26   12   25 1     
   27   13   26 1     
   28   13   27 1     
   29   13   28 1     
@<TRIPOS>SUBSTRUCTURE
      1 ****           1
@<TRIPOS>SET
DONOR_HYDROGENS      STATIC     ATOMS    <user>   **** ""
2 29 30
ATOM$RED        STATIC     ATOMS    COLORGROUP SYSTEM
2 29 30
@<TRIPOS>COMMENT
> <Gold.Version>
2022.2.0

> <Gold.Id.Protein>
1qkm|1qkm_protein|mol2

> <Gold.Protein.RotatedTorsions>
[  496  491  490  487 ] final  147.71 input  -89.99 | X-H torsion

> <Gold.Protein.ActiveResidues>
 MET295  LEU298  THR299  LEU301  ALA302  GLU305  TRP335  MET336  LEU339  MET340 
 GLY342  LEU343  ARG346  PHE356  ILE373  ILE376  PHE377  LEU380  LYS471  GLY472 
 MET473  HIS475  LEU476  LEU477  ASN478  MET479  VAL484  VAL487 

> <Gold.Protein.RotatedAtoms>
   37.2528   33.0840   41.2257 H   0  0  0  0  0  0  0  0  0  0  0  0  # atno 496  bound_to 491 

> <Gold.Score>
     Score     S(PLP)   S(hbond)     S(cho)   S(metal)  DE(clash)   DE(tors)     intcor
     40.38     -37.93       0.94       0.00       0.00       0.02       0.43       0.49

> <Gold.PLP.Fitness>
40.3845

> <Gold.PLP.PLP>
-37.9322

> <Gold.PLP.part.hbond>
-1.0000

> <Gold.PLP.part.metal>
0.0000

> <Gold.PLP.part.buried>
-2.8643

> <Gold.PLP.part.nonpolar>
-34.4386

> <Gold.PLP.part.repulsive>
0.0000

> <Gold.PLP.ligand.clash>
0.0235

> <Gold.PLP.ligand.torsion>
0.4253

> <Gold.PLP.Chemscore.Hbond>
0.9440

> <Gold.PLP.Chemscore.CHOScore>
0.0000

> <Gold.PLP.Chemscore.Metal>
0.0000

> <Gold.Chemscore.Hbonds>
donor molecule, donor type, donor heavy atom, donor atom, acceptor molecule, acceptor atom, score
      L1  H     6    30       P1   470  0.94

> <Gold.PLP.Chemscore.Internal.Correction>
0.4945

