#       Name:                EN300-1177249_i002
#       Creating user name   aseyller
#       Creation time:       Fri Apr 21 14:19:19 2023


#       File generated by GOLD software.
#

@<TRIPOS>MOLECULE
EN300-1177249_i002|amine_1|mol2|667|dock10
    30    29     1
SMALL
USER_CHARGES


@<TRIPOS>ATOM
      1 C1          30.1478  40.4692  36.0998 C.3            1 <1>                0.0000
      2 C2          29.7458  39.2672  36.8487 C.1            1 <1>                0.0000
      3 C3          29.4252  38.3088  37.4459 C.1            1 <1>                0.0000
      4 C4          29.0232  37.1069  38.1947 C.3            1 <1>                0.0000
      5 C5          30.1848  36.6424  39.0754 C.3            1 <1>                0.0000
      6 N6          29.7378  35.5358  39.9321 N.3            1 <1>                0.0000
      7 C7          31.3211  36.1748  38.2029 C.2            1 <1>                0.0000
      8 O8          31.7428  35.0479  38.3125 O.2            1 <1>                0.0000
      9 O9          31.8645  37.0103  37.3039 O.3            1 <1>                0.0000
     10 C10         32.6459  36.4122  36.2362 C.3            1 <1>                0.0000
     11 C11         33.9271  35.8104  36.8173 C.3            1 <1>                0.0000
     12 C12         31.8267  35.3113  35.5596 C.3            1 <1>                0.0000
     13 C13         33.0077  37.4846  35.2066 C.3            1 <1>                0.0000
     14 H14         29.3750  41.2320  36.1951 H              1 <1>                0.0000
     15 H15         31.0864  40.8506  36.5018 H              1 <1>                0.0000
     16 H16         30.2797  40.2147  35.0481 H              1 <1>                0.0000
     17 H17         28.1626  37.3404  38.8217 H              1 <1>                0.0000
     18 H18         28.7584  36.3144  37.4948 H              1 <1>                0.0000
     19 H19         30.5222  37.4707  39.6985 H              1 <1>                0.0000
     20 H20         33.6693  35.0464  37.5508 H              1 <1>                0.0000
     21 H21         34.5136  35.3614  36.0157 H              1 <1>                0.0000
     22 H22         34.5107  36.5946  37.2993 H              1 <1>                0.0000
     23 H23         30.9140  35.7400  35.1456 H              1 <1>                0.0000
     24 H24         32.4132  34.8624  34.7581 H              1 <1>                0.0000
     25 H25         31.5690  34.5474  36.2931 H              1 <1>                0.0000
     26 H26         33.5914  38.2688  35.6886 H              1 <1>                0.0000
     27 H27         33.5942  37.0356  34.4051 H              1 <1>                0.0000
     28 H28         32.0950  37.9133  34.7926 H              1 <1>                0.0000
     29 H29         30.3245  35.4510  40.7486 H              1 <1>                0.0000
     30 H30         28.7696  35.6485  40.1926 H              1 <1>                0.0000
@<TRIPOS>BOND
    1    1    2 1     
    2    1   14 1     
    3    1   15 1     
    4    1   16 1     
    5    2    3 3     
    6    3    4 1     
    7    4    5 1     
    8    4   17 1     
    9    4   18 1     
   10    5    6 1     
   11    5    7 1     
   12    5   19 1     
   13    6   29 1     
   14    6   30 1     
   15    7    8 2     
   16    7    9 1     
   17    9   10 1     
   18   10   11 1     
   19   10   12 1     
   20   10   13 1     
   21   11   20 1     
   22   11   21 1     
   23   11   22 1     
   24   12   23 1     
   25   12   24 1     
   26   12   25 1     
   27   13   26 1     
   28   13   27 1     
   29   13   28 1     
@<TRIPOS>SUBSTRUCTURE
      1 ****           1
@<TRIPOS>SET
DONOR_HYDROGENS      STATIC     ATOMS    <user>   **** ""
2 29 30
ATOM$RED        STATIC     ATOMS    COLORGROUP SYSTEM
2 29 30
@<TRIPOS>COMMENT
> <Gold.Version>
2022.2.0

> <Gold.Id.Protein>
1qkm|1qkm_protein|mol2

> <Gold.Protein.RotatedTorsions>
[  496  491  490  487 ] final  -95.77 input  -89.99 | X-H torsion

> <Gold.Protein.ActiveResidues>
 MET295  LEU298  THR299  LEU301  ALA302  GLU305  TRP335  MET336  LEU339  MET340 
 GLY342  LEU343  ARG346  PHE356  ILE373  ILE376  PHE377  LEU380  LYS471  GLY472 
 MET473  HIS475  LEU476  LEU477  ASN478  MET479  VAL484  VAL487 

> <Gold.Protein.RotatedAtoms>
   36.8107   34.6114   41.0128 H   0  0  0  0  0  0  0  0  0  0  0  0  # atno 496  bound_to 491 

> <Gold.Score>
     Score     S(PLP)   S(hbond)     S(cho)   S(metal)  DE(clash)   DE(tors)     intcor
     40.72     -37.89       1.00       0.00       0.00       0.00       0.33       0.49

> <Gold.PLP.Fitness>
40.7212

> <Gold.PLP.PLP>
-37.8890

> <Gold.PLP.part.hbond>
-1.0000

> <Gold.PLP.part.metal>
0.0000

> <Gold.PLP.part.buried>
-3.9813

> <Gold.PLP.part.nonpolar>
-33.5405

> <Gold.PLP.part.repulsive>
0.0660

> <Gold.PLP.ligand.clash>
0.0000

> <Gold.PLP.ligand.torsion>
0.3311

> <Gold.PLP.Chemscore.Hbond>
1.0000

> <Gold.PLP.Chemscore.CHOScore>
0.0000

> <Gold.PLP.Chemscore.Metal>
0.0000

> <Gold.Chemscore.Hbonds>
donor molecule, donor type, donor heavy atom, donor atom, acceptor molecule, acceptor atom, score
      L1  H     6    29       P1   470  1.00

> <Gold.PLP.Chemscore.Internal.Correction>
0.4945

