#       Name:                EN300-1177249_i002
#       Creating user name   aseyller
#       Creation time:       Fri Apr 21 14:19:21 2023


#       File generated by GOLD software.
#

@<TRIPOS>MOLECULE
EN300-1177249_i002|amine_1|mol2|667|dock12
    30    29     1
SMALL
USER_CHARGES


@<TRIPOS>ATOM
      1 C1          31.6217  32.8003  38.1997 C.3            1 <1>                0.0000
      2 C2          31.7218  34.2624  38.0603 C.1            1 <1>                0.0000
      3 C3          31.8015  35.4283  37.9490 C.1            1 <1>                0.0000
      4 C4          31.9016  36.8903  37.8096 C.3            1 <1>                0.0000
      5 C5          30.5044  37.4801  37.6079 C.3            1 <1>                0.0000
      6 N6          29.9196  36.9426  36.3721 N.3            1 <1>                0.0000
      7 C7          29.6299  37.1123  38.7788 C.2            1 <1>                0.0000
      8 O8          30.1201  36.6222  39.7685 O.2            1 <1>                0.0000
      9 O9          28.3065  37.3292  38.7223 O.3            1 <1>                0.0000
     10 C10         27.4575  36.4250  39.4773 C.3            1 <1>                0.0000
     11 C11         27.6472  36.6779  40.9743 C.3            1 <1>                0.0000
     12 C12         25.9942  36.6656  39.1008 C.3            1 <1>                0.0000
     13 C13         27.8365  34.9787  39.1524 C.3            1 <1>                0.0000
     14 H14         30.5743  32.5019  38.1555 H              1 <1>                0.0000
     15 H15         32.1709  32.3198  37.3901 H              1 <1>                0.0000
     16 H16         32.0459  32.4968  39.1568 H              1 <1>                0.0000
     17 H17         32.3473  37.3116  38.7108 H              1 <1>                0.0000
     18 H18         32.5254  37.1313  36.9489 H              1 <1>                0.0000
     19 H19         30.5753  38.5654  37.5342 H              1 <1>                0.0000
     20 H20         27.3771  37.7082  41.2058 H              1 <1>                0.0000
     21 H21         27.0098  35.9991  41.5410 H              1 <1>                0.0000
     22 H22         28.6896  36.5065  41.2426 H              1 <1>                0.0000
     23 H23         25.8590  36.4855  38.0344 H              1 <1>                0.0000
     24 H24         25.3569  35.9869  39.6675 H              1 <1>                0.0000
     25 H25         25.7242  37.6960  39.3324 H              1 <1>                0.0000
     26 H26         28.8790  34.8074  39.4206 H              1 <1>                0.0000
     27 H27         27.1992  34.3001  39.7191 H              1 <1>                0.0000
     28 H28         27.7014  34.7986  38.0858 H              1 <1>                0.0000
     29 H29         30.6398  36.6682  35.7209 H              1 <1>                0.0000
     30 H30         29.2992  36.1721  36.5710 H              1 <1>                0.0000
@<TRIPOS>BOND
    1    1    2 1     
    2    1   14 1     
    3    1   15 1     
    4    1   16 1     
    5    2    3 3     
    6    3    4 1     
    7    4    5 1     
    8    4   17 1     
    9    4   18 1     
   10    5    6 1     
   11    5    7 1     
   12    5   19 1     
   13    6   29 1     
   14    6   30 1     
   15    7    8 2     
   16    7    9 1     
   17    9   10 1     
   18   10   11 1     
   19   10   12 1     
   20   10   13 1     
   21   11   20 1     
   22   11   21 1     
   23   11   22 1     
   24   12   23 1     
   25   12   24 1     
   26   12   25 1     
   27   13   26 1     
   28   13   27 1     
   29   13   28 1     
@<TRIPOS>SUBSTRUCTURE
      1 ****           1
@<TRIPOS>SET
DONOR_HYDROGENS      STATIC     ATOMS    <user>   **** ""
2 29 30
ATOM$RED        STATIC     ATOMS    COLORGROUP SYSTEM
2 29 30
@<TRIPOS>COMMENT
> <Gold.Version>
2022.2.0

> <Gold.Id.Protein>
1qkm|1qkm_protein|mol2

> <Gold.Protein.RotatedTorsions>
[  496  491  490  487 ] final  139.18 input  -89.99 | X-H torsion

> <Gold.Protein.ActiveResidues>
 MET295  LEU298  THR299  LEU301  ALA302  GLU305  TRP335  MET336  LEU339  MET340 
 GLY342  LEU343  ARG346  PHE356  ILE373  ILE376  PHE377  LEU380  LYS471  GLY472 
 MET473  HIS475  LEU476  LEU477  ASN478  MET479  VAL484  VAL487 

> <Gold.Protein.RotatedAtoms>
   37.2097   33.0199   41.3427 H   0  0  0  0  0  0  0  0  0  0  0  0  # atno 496  bound_to 491 

> <Gold.Score>
     Score     S(PLP)   S(hbond)     S(cho)   S(metal)  DE(clash)   DE(tors)     intcor
     39.55     -40.40       0.00       0.00       0.00       0.00       0.67       0.49

> <Gold.PLP.Fitness>
39.5506

> <Gold.PLP.PLP>
-40.4027

> <Gold.PLP.part.hbond>
0.0000

> <Gold.PLP.part.metal>
0.0000

> <Gold.PLP.part.buried>
-1.7008

> <Gold.PLP.part.nonpolar>
-38.4351

> <Gold.PLP.part.repulsive>
0.0944

> <Gold.PLP.ligand.clash>
0.0000

> <Gold.PLP.ligand.torsion>
0.6728

> <Gold.PLP.Chemscore.Hbond>
0.0000

> <Gold.PLP.Chemscore.CHOScore>
0.0000

> <Gold.PLP.Chemscore.Metal>
0.0000

> <Gold.PLP.Chemscore.Internal.Correction>
0.4934

