#       Name:                EN300-1177249_i002
#       Creating user name   aseyller
#       Creation time:       Fri Apr 21 14:19:26 2023


#       File generated by GOLD software.
#

@<TRIPOS>MOLECULE
EN300-1177249_i002|amine_1|mol2|667|dock16
    30    29     1
SMALL
USER_CHARGES


@<TRIPOS>ATOM
      1 C1          25.4999  37.2992  39.8393 C.3            1 <1>                0.0000
      2 C2          26.7673  37.1051  39.1161 C.1            1 <1>                0.0000
      3 C3          27.7780  36.9503  38.5393 C.1            1 <1>                0.0000
      4 C4          29.0454  36.7562  37.8161 C.3            1 <1>                0.0000
      5 C5          30.1995  36.6899  38.8183 C.3            1 <1>                0.0000
      6 N6          29.9464  35.6143  39.7863 N.3            1 <1>                0.0000
      7 C7          31.4865  36.4131  38.0849 C.2            1 <1>                0.0000
      8 O8          32.1436  35.4384  38.3644 O.2            1 <1>                0.0000
      9 O9          31.9029  37.2493  37.1210 O.3            1 <1>                0.0000
     10 C10         32.7040  36.6778  36.0533 C.3            1 <1>                0.0000
     11 C11         34.0851  36.3044  36.5958 C.3            1 <1>                0.0000
     12 C12         32.0130  35.4248  35.5117 C.3            1 <1>                0.0000
     13 C13         32.8584  37.7021  34.9273 C.3            1 <1>                0.0000
     14 H14         24.9583  36.3543  39.8832 H              1 <1>                0.0000
     15 H15         25.7086  37.6458  40.8514 H              1 <1>                0.0000
     16 H16         24.8945  38.0413  39.3187 H              1 <1>                0.0000
     17 H17         29.0019  35.8257  37.2501 H              1 <1>                0.0000
     18 H18         29.2051  37.5901  37.1327 H              1 <1>                0.0000
     19 H19         30.2787  37.6412  39.3447 H              1 <1>                0.0000
     20 H20         33.9751  35.5746  37.3980 H              1 <1>                0.0000
     21 H21         34.6865  35.8754  35.7943 H              1 <1>                0.0000
     22 H22         34.5774  37.1970  36.9816 H              1 <1>                0.0000
     23 H23         31.0292  35.6908  35.1252 H              1 <1>                0.0000
     24 H24         32.6143  34.9958  34.7103 H              1 <1>                0.0000
     25 H25         31.9031  34.6951  36.3139 H              1 <1>                0.0000
     26 H26         33.3508  38.5947  35.3131 H              1 <1>                0.0000
     27 H27         33.4598  37.2731  34.1258 H              1 <1>                0.0000
     28 H28         31.8745  37.9681  34.5407 H              1 <1>                0.0000
     29 H29         29.9592  34.7117  39.3353 H              1 <1>                0.0000
     30 H30         30.6094  35.6483  40.5462 H              1 <1>                0.0000
@<TRIPOS>BOND
    1    1    2 1     
    2    1   14 1     
    3    1   15 1     
    4    1   16 1     
    5    2    3 3     
    6    3    4 1     
    7    4    5 1     
    8    4   17 1     
    9    4   18 1     
   10    5    6 1     
   11    5    7 1     
   12    5   19 1     
   13    6   29 1     
   14    6   30 1     
   15    7    8 2     
   16    7    9 1     
   17    9   10 1     
   18   10   11 1     
   19   10   12 1     
   20   10   13 1     
   21   11   20 1     
   22   11   21 1     
   23   11   22 1     
   24   12   23 1     
   25   12   24 1     
   26   12   25 1     
   27   13   26 1     
   28   13   27 1     
   29   13   28 1     
@<TRIPOS>SUBSTRUCTURE
      1 ****           1
@<TRIPOS>SET
DONOR_HYDROGENS      STATIC     ATOMS    <user>   **** ""
2 29 30
ATOM$RED        STATIC     ATOMS    COLORGROUP SYSTEM
2 29 30
@<TRIPOS>COMMENT
> <Gold.Version>
2022.2.0

> <Gold.Id.Protein>
1qkm|1qkm_protein|mol2

> <Gold.Protein.RotatedTorsions>
[  496  491  490  487 ] final   68.11 input  -89.99 | X-H torsion

> <Gold.Protein.ActiveResidues>
 MET295  LEU298  THR299  LEU301  ALA302  GLU305  TRP335  MET336  LEU339  MET340 
 GLY342  LEU343  ARG346  PHE356  ILE373  ILE376  PHE377  LEU380  LYS471  GLY472 
 MET473  HIS475  LEU476  LEU477  ASN478  MET479  VAL484  VAL487 

> <Gold.Protein.RotatedAtoms>
   36.6207   33.2210   42.2453 H   0  0  0  0  0  0  0  0  0  0  0  0  # atno 496  bound_to 491 

> <Gold.Score>
     Score     S(PLP)   S(hbond)     S(cho)   S(metal)  DE(clash)   DE(tors)     intcor
     40.66     -38.11       1.00       0.00       0.00       0.00       0.47       0.49

> <Gold.PLP.Fitness>
40.6592

> <Gold.PLP.PLP>
-38.1075

> <Gold.PLP.part.hbond>
-1.0000

> <Gold.PLP.part.metal>
0.0000

> <Gold.PLP.part.buried>
-4.2731

> <Gold.PLP.part.nonpolar>
-33.1615

> <Gold.PLP.part.repulsive>
0.0677

> <Gold.PLP.ligand.clash>
0.0000

> <Gold.PLP.ligand.torsion>
0.4708

> <Gold.PLP.Chemscore.Hbond>
1.0000

> <Gold.PLP.Chemscore.CHOScore>
0.0000

> <Gold.PLP.Chemscore.Metal>
0.0000

> <Gold.Chemscore.Hbonds>
donor molecule, donor type, donor heavy atom, donor atom, acceptor molecule, acceptor atom, score
      L1  H     6    30       P1   470  1.00

> <Gold.PLP.Chemscore.Internal.Correction>
0.4934

