#       Name:                EN300-1177249_i002
#       Creating user name   aseyller
#       Creation time:       Fri Apr 21 14:19:13 2023


#       File generated by GOLD software.
#

@<TRIPOS>MOLECULE
EN300-1177249_i002|amine_1|mol2|667|dock5
    30    29     1
SMALL
USER_CHARGES


@<TRIPOS>ATOM
      1 C1          25.4016  37.3013  41.4591 C.3            1 <1>                0.0000
      2 C2          26.4876  36.5478  40.8111 C.1            1 <1>                0.0000
      3 C3          27.3536  35.9469  40.2942 C.1            1 <1>                0.0000
      4 C4          28.4395  35.1934  39.6462 C.3            1 <1>                0.0000
      5 C5          29.6977  36.0618  39.5864 C.3            1 <1>                0.0000
      6 N6          30.8735  35.2065  39.3766 N.3            1 <1>                0.0000
      7 C7          29.5788  37.0406  38.4467 C.2            1 <1>                0.0000
      8 O8          28.4970  37.2760  37.9628 O.2            1 <1>                0.0000
      9 O9          30.6748  37.6510  37.9693 O.3            1 <1>                0.0000
     10 C10         30.5556  38.3052  36.6785 C.3            1 <1>                0.0000
     11 C11         29.6127  39.5041  36.7994 C.3            1 <1>                0.0000
     12 C12         31.9343  38.7848  36.2204 C.3            1 <1>                0.0000
     13 C13         29.9938  37.3159  35.6554 C.3            1 <1>                0.0000
     14 H14         25.8042  38.2147  41.8969 H              1 <1>                0.0000
     15 H15         24.6442  37.5566  40.7181 H              1 <1>                0.0000
     16 H16         24.9525  36.6903  42.2421 H              1 <1>                0.0000
     17 H17         28.6481  34.2905  40.2203 H              1 <1>                0.0000
     18 H18         28.1386  34.9196  38.6350 H              1 <1>                0.0000
     19 H19         29.8077  36.6071  40.5238 H              1 <1>                0.0000
     20 H20         30.0129  40.2089  37.5283 H              1 <1>                0.0000
     21 H21         29.5232  39.9951  35.8304 H              1 <1>                0.0000
     22 H22         28.6305  39.1624  37.1258 H              1 <1>                0.0000
     23 H23         32.6060  37.9307  36.1342 H              1 <1>                0.0000
     24 H24         31.8448  39.2758  35.2514 H              1 <1>                0.0000
     25 H25         32.3344  39.4896  36.9493 H              1 <1>                0.0000
     26 H26         29.0116  36.9742  35.9817 H              1 <1>                0.0000
     27 H27         29.9043  37.8069  34.6864 H              1 <1>                0.0000
     28 H28         30.6655  36.4617  35.5692 H              1 <1>                0.0000
     29 H29         31.5635  35.6737  38.8075 H              1 <1>                0.0000
     30 H30         31.2694  34.9136  40.2573 H              1 <1>                0.0000
@<TRIPOS>BOND
    1    1    2 1     
    2    1   14 1     
    3    1   15 1     
    4    1   16 1     
    5    2    3 3     
    6    3    4 1     
    7    4    5 1     
    8    4   17 1     
    9    4   18 1     
   10    5    6 1     
   11    5    7 1     
   12    5   19 1     
   13    6   29 1     
   14    6   30 1     
   15    7    8 2     
   16    7    9 1     
   17    9   10 1     
   18   10   11 1     
   19   10   12 1     
   20   10   13 1     
   21   11   20 1     
   22   11   21 1     
   23   11   22 1     
   24   12   23 1     
   25   12   24 1     
   26   12   25 1     
   27   13   26 1     
   28   13   27 1     
   29   13   28 1     
@<TRIPOS>SUBSTRUCTURE
      1 ****           1
@<TRIPOS>SET
DONOR_HYDROGENS      STATIC     ATOMS    <user>   **** ""
2 29 30
ATOM$RED        STATIC     ATOMS    COLORGROUP SYSTEM
2 29 30
@<TRIPOS>COMMENT
> <Gold.Version>
2022.2.0

> <Gold.Id.Protein>
1qkm|1qkm_protein|mol2

> <Gold.Protein.RotatedTorsions>
[  496  491  490  487 ] final  151.17 input  -89.99 | X-H torsion

> <Gold.Protein.ActiveResidues>
 MET295  LEU298  THR299  LEU301  ALA302  GLU305  TRP335  MET336  LEU339  MET340 
 GLY342  LEU343  ARG346  PHE356  ILE373  ILE376  PHE377  LEU380  LYS471  GLY472 
 MET473  HIS475  LEU476  LEU477  ASN478  MET479  VAL484  VAL487 

> <Gold.Protein.RotatedAtoms>
   37.2675   33.1149   41.1801 H   0  0  0  0  0  0  0  0  0  0  0  0  # atno 496  bound_to 491 

> <Gold.Score>
     Score     S(PLP)   S(hbond)     S(cho)   S(metal)  DE(clash)   DE(tors)     intcor
     41.22     -39.51       1.00       0.00       0.00       0.00       0.89       0.49

> <Gold.PLP.Fitness>
41.2169

> <Gold.PLP.PLP>
-39.5094

> <Gold.PLP.part.hbond>
-1.0000

> <Gold.PLP.part.metal>
0.0000

> <Gold.PLP.part.buried>
-1.7044

> <Gold.PLP.part.nonpolar>
-36.6139

> <Gold.PLP.part.repulsive>
0.0000

> <Gold.PLP.ligand.clash>
0.0000

> <Gold.PLP.ligand.torsion>
0.8935

> <Gold.PLP.Chemscore.Hbond>
1.0000

> <Gold.PLP.Chemscore.CHOScore>
0.0000

> <Gold.PLP.Chemscore.Metal>
0.0000

> <Gold.Chemscore.Hbonds>
donor molecule, donor type, donor heavy atom, donor atom, acceptor molecule, acceptor atom, score
      L1  H     6    30       P1   470  1.00

> <Gold.PLP.Chemscore.Internal.Correction>
0.4945

