#       Name:                EN300-1177249_i002
#       Creating user name   aseyller
#       Creation time:       Fri Apr 21 14:19:10 2023


#       File generated by GOLD software.
#

@<TRIPOS>MOLECULE
EN300-1177249_i002|amine_1|mol2|667|dock2
    30    29     1
SMALL
USER_CHARGES


@<TRIPOS>ATOM
      1 C1          25.5004  37.1297  41.2028 C.3            1 <1>                0.0000
      2 C2          26.5738  36.5347  40.3899 C.1            1 <1>                0.0000
      3 C3          27.4297  36.0602  39.7416 C.1            1 <1>                0.0000
      4 C4          28.5031  35.4651  38.9287 C.3            1 <1>                0.0000
      5 C5          29.8166  36.2006  39.2012 C.3            1 <1>                0.0000
      6 N6          30.8927  35.2217  39.4056 N.3            1 <1>                0.0000
      7 C7          30.1539  37.0794  38.0242 C.2            1 <1>                0.0000
      8 O8          29.3672  37.9166  37.6503 O.2            1 <1>                0.0000
      9 O9          31.3285  36.9319  37.3915 O.3            1 <1>                0.0000
     10 C10         31.4561  37.5531  36.0853 C.3            1 <1>                0.0000
     11 C11         31.4238  39.0750  36.2389 C.3            1 <1>                0.0000
     12 C12         32.7821  37.1329  35.4480 C.3            1 <1>                0.0000
     13 C13         30.2969  37.1059  35.1925 C.3            1 <1>                0.0000
     14 H14         25.0048  36.3480  41.7785 H              1 <1>                0.0000
     15 H15         25.9263  37.8673  41.8830 H              1 <1>                0.0000
     16 H16         24.7755  37.6144  40.5488 H              1 <1>                0.0000
     17 H17         28.6151  34.4126  39.1892 H              1 <1>                0.0000
     18 H18         28.2498  35.5530  37.8722 H              1 <1>                0.0000
     19 H19         29.7102  36.8154  40.0950 H              1 <1>                0.0000
     20 H20         32.2497  39.3936  36.8750 H              1 <1>                0.0000
     21 H21         31.5196  39.5413  35.2583 H              1 <1>                0.0000
     22 H22         30.4791  39.3744  36.6929 H              1 <1>                0.0000
     23 H23         32.8052  36.0487  35.3386 H              1 <1>                0.0000
     24 H24         32.8779  37.5991  34.4675 H              1 <1>                0.0000
     25 H25         33.6079  37.4515  36.0841 H              1 <1>                0.0000
     26 H26         29.3522  37.4053  35.6464 H              1 <1>                0.0000
     27 H27         30.3927  37.5722  34.2120 H              1 <1>                0.0000
     28 H28         30.3199  36.0216  35.0830 H              1 <1>                0.0000
     29 H29         31.0895  35.1006  40.3878 H              1 <1>                0.0000
     30 H30         30.6667  34.3397  38.9706 H              1 <1>                0.0000
@<TRIPOS>BOND
    1    1    2 1     
    2    1   14 1     
    3    1   15 1     
    4    1   16 1     
    5    2    3 3     
    6    3    4 1     
    7    4    5 1     
    8    4   17 1     
    9    4   18 1     
   10    5    6 1     
   11    5    7 1     
   12    5   19 1     
   13    6   29 1     
   14    6   30 1     
   15    7    8 2     
   16    7    9 1     
   17    9   10 1     
   18   10   11 1     
   19   10   12 1     
   20   10   13 1     
   21   11   20 1     
   22   11   21 1     
   23   11   22 1     
   24   12   23 1     
   25   12   24 1     
   26   12   25 1     
   27   13   26 1     
   28   13   27 1     
   29   13   28 1     
@<TRIPOS>SUBSTRUCTURE
      1 ****           1
@<TRIPOS>SET
DONOR_HYDROGENS      STATIC     ATOMS    <user>   **** ""
2 29 30
ATOM$RED        STATIC     ATOMS    COLORGROUP SYSTEM
2 29 30
@<TRIPOS>COMMENT
> <Gold.Version>
2022.2.0

> <Gold.Id.Protein>
1qkm|1qkm_protein|mol2

> <Gold.Protein.RotatedTorsions>
[  496  491  490  487 ] final   45.24 input  -89.99 | X-H torsion

> <Gold.Protein.ActiveResidues>
 MET295  LEU298  THR299  LEU301  ALA302  GLU305  TRP335  MET336  LEU339  MET340 
 GLY342  LEU343  ARG346  PHE356  ILE373  ILE376  PHE377  LEU380  LYS471  GLY472 
 MET473  HIS475  LEU476  LEU477  ASN478  MET479  VAL484  VAL487 

> <Gold.Protein.RotatedAtoms>
   36.4386   33.5232   42.3691 H   0  0  0  0  0  0  0  0  0  0  0  0  # atno 496  bound_to 491 

> <Gold.Score>
     Score     S(PLP)   S(hbond)     S(cho)   S(metal)  DE(clash)   DE(tors)     intcor
     42.23     -40.55       1.00       0.00       0.00       0.00       0.91       0.49

> <Gold.PLP.Fitness>
42.2346

> <Gold.PLP.PLP>
-40.5514

> <Gold.PLP.part.hbond>
-1.0000

> <Gold.PLP.part.metal>
0.0000

> <Gold.PLP.part.buried>
-3.6939

> <Gold.PLP.part.nonpolar>
-35.8096

> <Gold.PLP.part.repulsive>
0.0000

> <Gold.PLP.ligand.clash>
0.0000

> <Gold.PLP.ligand.torsion>
0.9056

> <Gold.PLP.Chemscore.Hbond>
1.0000

> <Gold.PLP.Chemscore.CHOScore>
0.0000

> <Gold.PLP.Chemscore.Metal>
0.0000

> <Gold.Chemscore.Hbonds>
donor molecule, donor type, donor heavy atom, donor atom, acceptor molecule, acceptor atom, score
      L1  H     6    29       P1   470  1.00

> <Gold.PLP.Chemscore.Internal.Correction>
0.4945

