#       Name:                EN300-1177249_i002
#       Creating user name   aseyller
#       Creation time:       Fri Apr 21 14:19:16 2023


#       File generated by GOLD software.
#

@<TRIPOS>MOLECULE
EN300-1177249_i002|amine_1|mol2|667|dock7
    30    29     1
SMALL
USER_CHARGES


@<TRIPOS>ATOM
      1 C1          25.5997  36.9970  41.2026 C.3            1 <1>                0.0000
      2 C2          26.6722  36.4541  40.3530 C.1            1 <1>                0.0000
      3 C3          27.5275  36.0211  39.6754 C.1            1 <1>                0.0000
      4 C4          28.6001  35.4781  38.8258 C.3            1 <1>                0.0000
      5 C5          29.9466  36.0450  39.2798 C.3            1 <1>                0.0000
      6 N6          30.9231  34.9537  39.3968 N.3            1 <1>                0.0000
      7 C7          30.4353  37.0500  38.2687 C.2            1 <1>                0.0000
      8 O8          31.5131  36.9029  37.7429 O.2            1 <1>                0.0000
      9 O9          29.6730  38.1085  37.9522 O.3            1 <1>                0.0000
     10 C10         29.9215  38.7395  36.6683 C.3            1 <1>                0.0000
     11 C11         28.7838  39.7115  36.3489 C.3            1 <1>                0.0000
     12 C12         31.2454  39.5044  36.7235 C.3            1 <1>                0.0000
     13 C13         29.9970  37.6674  35.5793 C.3            1 <1>                0.0000
     14 H14         25.2892  37.9689  40.8191 H              1 <1>                0.0000
     15 H15         24.7496  36.3148  41.1948 H              1 <1>                0.0000
     16 H16         25.9662  37.1092  42.2230 H              1 <1>                0.0000
     17 H17         28.6160  34.3915  38.9108 H              1 <1>                0.0000
     18 H18         28.4189  35.7588  37.7883 H              1 <1>                0.0000
     19 H19         29.8282  36.5318  40.2479 H              1 <1>                0.0000
     20 H20         28.7300  40.4753  37.1247 H              1 <1>                0.0000
     21 H21         28.9704  40.1851  35.3851 H              1 <1>                0.0000
     22 H22         27.8407  39.1666  36.3095 H              1 <1>                0.0000
     23 H23         32.0559  38.8120  36.9510 H              1 <1>                0.0000
     24 H24         31.4319  39.9780  35.7598 H              1 <1>                0.0000
     25 H25         31.1915  40.2682  37.4993 H              1 <1>                0.0000
     26 H26         29.0538  37.1225  35.5399 H              1 <1>                0.0000
     27 H27         30.1835  38.1410  34.6155 H              1 <1>                0.0000
     28 H28         30.8075  36.9749  35.8068 H              1 <1>                0.0000
     29 H29         31.7039  35.0991  38.7745 H              1 <1>                0.0000
     30 H30         31.2353  34.8486  40.3505 H              1 <1>                0.0000
@<TRIPOS>BOND
    1    1    2 1     
    2    1   14 1     
    3    1   15 1     
    4    1   16 1     
    5    2    3 3     
    6    3    4 1     
    7    4    5 1     
    8    4   17 1     
    9    4   18 1     
   10    5    6 1     
   11    5    7 1     
   12    5   19 1     
   13    6   29 1     
   14    6   30 1     
   15    7    8 2     
   16    7    9 1     
   17    9   10 1     
   18   10   11 1     
   19   10   12 1     
   20   10   13 1     
   21   11   20 1     
   22   11   21 1     
   23   11   22 1     
   24   12   23 1     
   25   12   24 1     
   26   12   25 1     
   27   13   26 1     
   28   13   27 1     
   29   13   28 1     
@<TRIPOS>SUBSTRUCTURE
      1 ****           1
@<TRIPOS>SET
DONOR_HYDROGENS      STATIC     ATOMS    <user>   **** ""
2 29 30
ATOM$RED        STATIC     ATOMS    COLORGROUP SYSTEM
2 29 30
@<TRIPOS>COMMENT
> <Gold.Version>
2022.2.0

> <Gold.Id.Protein>
1qkm|1qkm_protein|mol2

> <Gold.Protein.RotatedTorsions>
[  496  491  490  487 ] final  166.05 input  -89.99 | X-H torsion

> <Gold.Protein.ActiveResidues>
 MET295  LEU298  THR299  LEU301  ALA302  GLU305  TRP335  MET336  LEU339  MET340 
 GLY342  LEU343  ARG346  PHE356  ILE373  ILE376  PHE377  LEU380  LYS471  GLY472 
 MET473  HIS475  LEU476  LEU477  ASN478  MET479  VAL484  VAL487 

> <Gold.Protein.RotatedAtoms>
   37.3098   33.2761   41.0015 H   0  0  0  0  0  0  0  0  0  0  0  0  # atno 496  bound_to 491 

> <Gold.Score>
     Score     S(PLP)   S(hbond)     S(cho)   S(metal)  DE(clash)   DE(tors)     intcor
     40.07     -38.82       1.00       0.00       0.00       0.00       1.12       0.49

> <Gold.PLP.Fitness>
40.0713

> <Gold.PLP.PLP>
-38.8213

> <Gold.PLP.part.hbond>
-1.0000

> <Gold.PLP.part.metal>
0.0000

> <Gold.PLP.part.buried>
-3.8675

> <Gold.PLP.part.nonpolar>
-34.4071

> <Gold.PLP.part.repulsive>
0.0142

> <Gold.PLP.ligand.clash>
0.0000

> <Gold.PLP.ligand.torsion>
1.1223

> <Gold.PLP.Chemscore.Hbond>
1.0000

> <Gold.PLP.Chemscore.CHOScore>
0.0000

> <Gold.PLP.Chemscore.Metal>
0.0000

> <Gold.Chemscore.Hbonds>
donor molecule, donor type, donor heavy atom, donor atom, acceptor molecule, acceptor atom, score
      L1  H     6    30       P1   470  1.00

> <Gold.PLP.Chemscore.Internal.Correction>
0.4945

