#       Name:                EN300-1177249_i002
#       Creating user name   aseyller
#       Creation time:       Fri Apr 21 14:19:18 2023


#       File generated by GOLD software.
#

@<TRIPOS>MOLECULE
EN300-1177249_i002|amine_1|mol2|667|dock9
    30    29     1
SMALL
USER_CHARGES


@<TRIPOS>ATOM
      1 C1          32.1566  37.9375  34.1813 C.3            1 <1>                0.0000
      2 C2          32.4411  36.9651  35.2492 C.1            1 <1>                0.0000
      3 C3          32.6679  36.1896  36.1008 C.1            1 <1>                0.0000
      4 C4          32.9524  35.2172  37.1688 C.3            1 <1>                0.0000
      5 C5          31.6482  34.5530  37.6143 C.3            1 <1>                0.0000
      6 N6          31.9539  33.3985  38.4698 N.3            1 <1>                0.0000
      7 C7          30.8176  35.5449  38.3872 C.2            1 <1>                0.0000
      8 O8          31.1748  36.6961  38.4715 O.2            1 <1>                0.0000
      9 O9          29.6810  35.1495  38.9817 O.3            1 <1>                0.0000
     10 C10         28.7634  36.1908  39.4082 C.3            1 <1>                0.0000
     11 C11         27.4597  35.5542  39.8942 C.3            1 <1>                0.0000
     12 C12         29.3954  36.9923  40.5479 C.3            1 <1>                0.0000
     13 C13         28.4678  37.1233  38.2317 C.3            1 <1>                0.0000
     14 H14         32.4069  37.4996  33.2150 H              1 <1>                0.0000
     15 H15         31.0983  38.1976  34.1992 H              1 <1>                0.0000
     16 H16         32.7541  38.8355  34.3390 H              1 <1>                0.0000
     17 H17         33.6380  34.4569  36.7946 H              1 <1>                0.0000
     18 H18         33.4066  35.7307  38.0161 H              1 <1>                0.0000
     19 H19         31.0928  34.2187  36.7379 H              1 <1>                0.0000
     20 H20         27.6703  34.8898  40.7324 H              1 <1>                0.0000
     21 H21         26.7709  36.3359  40.2144 H              1 <1>                0.0000
     22 H22         27.0094  34.9832  39.0823 H              1 <1>                0.0000
     23 H23         30.3241  37.4459  40.2017 H              1 <1>                0.0000
     24 H24         28.7067  37.7740  40.8680 H              1 <1>                0.0000
     25 H25         29.6060  36.3280  41.3860 H              1 <1>                0.0000
     26 H26         28.0174  36.5523  37.4198 H              1 <1>                0.0000
     27 H27         27.7790  37.9050  38.5518 H              1 <1>                0.0000
     28 H28         29.3965  37.5769  37.8854 H              1 <1>                0.0000
     29 H29         32.7124  33.6076  39.1016 H              1 <1>                0.0000
     30 H30         31.1348  33.0963  38.9757 H              1 <1>                0.0000
@<TRIPOS>BOND
    1    1    2 1     
    2    1   14 1     
    3    1   15 1     
    4    1   16 1     
    5    2    3 3     
    6    3    4 1     
    7    4    5 1     
    8    4   17 1     
    9    4   18 1     
   10    5    6 1     
   11    5    7 1     
   12    5   19 1     
   13    6   29 1     
   14    6   30 1     
   15    7    8 2     
   16    7    9 1     
   17    9   10 1     
   18   10   11 1     
   19   10   12 1     
   20   10   13 1     
   21   11   20 1     
   22   11   21 1     
   23   11   22 1     
   24   12   23 1     
   25   12   24 1     
   26   12   25 1     
   27   13   26 1     
   28   13   27 1     
   29   13   28 1     
@<TRIPOS>SUBSTRUCTURE
      1 ****           1
@<TRIPOS>SET
DONOR_HYDROGENS      STATIC     ATOMS    <user>   **** ""
2 29 30
ATOM$RED        STATIC     ATOMS    COLORGROUP SYSTEM
2 29 30
@<TRIPOS>COMMENT
> <Gold.Version>
2022.2.0

> <Gold.Id.Protein>
1qkm|1qkm_protein|mol2

> <Gold.Protein.RotatedTorsions>
[  496  491  490  487 ] final -110.18 input  -89.99 | X-H torsion

> <Gold.Protein.ActiveResidues>
 MET295  LEU298  THR299  LEU301  ALA302  GLU305  TRP335  MET336  LEU339  MET340 
 GLY342  LEU343  ARG346  PHE356  ILE373  ILE376  PHE377  LEU380  LYS471  GLY472 
 MET473  HIS475  LEU476  LEU477  ASN478  MET479  VAL484  VAL487 

> <Gold.Protein.RotatedAtoms>
   36.9418   34.4735   40.8722 H   0  0  0  0  0  0  0  0  0  0  0  0  # atno 496  bound_to 491 

> <Gold.Score>
     Score     S(PLP)   S(hbond)     S(cho)   S(metal)  DE(clash)   DE(tors)     intcor
     40.74     -40.99       0.00       0.00       0.00       0.00       0.37       0.49

> <Gold.PLP.Fitness>
40.7365

> <Gold.PLP.PLP>
-40.9855

> <Gold.PLP.part.hbond>
0.0000

> <Gold.PLP.part.metal>
0.0000

> <Gold.PLP.part.buried>
-3.3549

> <Gold.PLP.part.nonpolar>
-38.3811

> <Gold.PLP.part.repulsive>
0.1182

> <Gold.PLP.ligand.clash>
0.0000

> <Gold.PLP.ligand.torsion>
0.3717

> <Gold.PLP.Chemscore.Hbond>
0.0000

> <Gold.PLP.Chemscore.CHOScore>
0.0000

> <Gold.PLP.Chemscore.Metal>
0.0000

> <Gold.PLP.Chemscore.Internal.Correction>
0.4945

