#       Name:                EN300-1177249_i002
#       Creating user name   aseyller
#       Creation time:       Fri Apr 21 14:19:14 2023


#       File generated by GOLD software.
#

@<TRIPOS>MOLECULE
EN300-1177249_i002|amine_1|mol2|667|dock6
    30    29     1
SMALL
USER_CHARGES


@<TRIPOS>ATOM
      1 C1          28.2041  36.6825  42.3992 C.3            1 <1>                0.0000
      2 C2          28.7880  36.4998  41.0603 C.1            1 <1>                0.0000
      3 C3          29.2536  36.3541  39.9926 C.1            1 <1>                0.0000
      4 C4          29.8375  36.1714  38.6536 C.3            1 <1>                0.0000
      5 C5          31.3230  35.8307  38.7872 C.3            1 <1>                0.0000
      6 N6          31.4682  34.4326  39.2144 N.3            1 <1>                0.0000
      7 C7          32.0041  36.0227  37.4568 C.2            1 <1>                0.0000
      8 O8          32.4778  35.0737  36.8780 O.2            1 <1>                0.0000
      9 O9          32.0845  37.2480  36.9147 O.3            1 <1>                0.0000
     10 C10         32.1063  37.3273  35.4650 C.3            1 <1>                0.0000
     11 C11         30.9545  36.4994  34.8915 C.3            1 <1>                0.0000
     12 C12         31.9508  38.7864  35.0315 C.3            1 <1>                0.0000
     13 C13         33.4366  36.7795  34.9442 C.3            1 <1>                0.0000
     14 H14         28.0102  37.7415  42.5696 H              1 <1>                0.0000
     15 H15         27.2690  36.1264  42.4667 H              1 <1>                0.0000
     16 H16         28.9007  36.3147  43.1526 H              1 <1>                0.0000
     17 H17         29.3230  35.3588  38.1407 H              1 <1>                0.0000
     18 H18         29.7259  37.0915  38.0801 H              1 <1>                0.0000
     19 H19         31.7810  36.4863  39.5279 H              1 <1>                0.0000
     20 H20         30.0067  36.8896  35.2624 H              1 <1>                0.0000
     21 H21         30.9709  36.5590  33.8032 H              1 <1>                0.0000
     22 H22         31.0652  35.4600  35.2002 H              1 <1>                0.0000
     23 H23         32.7714  39.3762  35.4401 H              1 <1>                0.0000
     24 H24         31.9672  38.8459  33.9434 H              1 <1>                0.0000
     25 H25         31.0031  39.1765  35.4025 H              1 <1>                0.0000
     26 H26         33.5474  35.7401  35.2530 H              1 <1>                0.0000
     27 H27         33.4531  36.8391  33.8561 H              1 <1>                0.0000
     28 H28         34.2573  37.3694  35.3528 H              1 <1>                0.0000
     29 H29         32.2162  33.9773  38.7130 H              1 <1>                0.0000
     30 H30         31.6117  34.3721  40.2113 H              1 <1>                0.0000
@<TRIPOS>BOND
    1    1    2 1     
    2    1   14 1     
    3    1   15 1     
    4    1   16 1     
    5    2    3 3     
    6    3    4 1     
    7    4    5 1     
    8    4   17 1     
    9    4   18 1     
   10    5    6 1     
   11    5    7 1     
   12    5   19 1     
   13    6   29 1     
   14    6   30 1     
   15    7    8 2     
   16    7    9 1     
   17    9   10 1     
   18   10   11 1     
   19   10   12 1     
   20   10   13 1     
   21   11   20 1     
   22   11   21 1     
   23   11   22 1     
   24   12   23 1     
   25   12   24 1     
   26   12   25 1     
   27   13   26 1     
   28   13   27 1     
   29   13   28 1     
@<TRIPOS>SUBSTRUCTURE
      1 ****           1
@<TRIPOS>SET
DONOR_HYDROGENS      STATIC     ATOMS    <user>   **** ""
2 29 30
ATOM$RED        STATIC     ATOMS    COLORGROUP SYSTEM
2 29 30
@<TRIPOS>COMMENT
> <Gold.Version>
2022.2.0

> <Gold.Id.Protein>
1qkm|1qkm_protein|mol2

> <Gold.Protein.RotatedTorsions>
[  496  491  490  487 ] final -158.54 input  -89.99 | X-H torsion

> <Gold.Protein.ActiveResidues>
 MET295  LEU298  THR299  LEU301  ALA302  GLU305  TRP335  MET336  LEU339  MET340 
 GLY342  LEU343  ARG346  PHE356  ILE373  ILE376  PHE377  LEU380  LYS471  GLY472 
 MET473  HIS475  LEU476  LEU477  ASN478  MET479  VAL484  VAL487 

> <Gold.Protein.RotatedAtoms>
   37.2697   33.7862   40.7420 H   0  0  0  0  0  0  0  0  0  0  0  0  # atno 496  bound_to 491 

> <Gold.Score>
     Score     S(PLP)   S(hbond)     S(cho)   S(metal)  DE(clash)   DE(tors)     intcor
     40.87     -38.62       1.00       0.00       0.00       0.00       0.62       0.49

> <Gold.PLP.Fitness>
40.8736

> <Gold.PLP.PLP>
-38.6188

> <Gold.PLP.part.hbond>
-1.0000

> <Gold.PLP.part.metal>
0.0000

> <Gold.PLP.part.buried>
-4.4162

> <Gold.PLP.part.nonpolar>
-33.1642

> <Gold.PLP.part.repulsive>
0.0009

> <Gold.PLP.ligand.clash>
0.0000

> <Gold.PLP.ligand.torsion>
0.6199

> <Gold.PLP.Chemscore.Hbond>
1.0000

> <Gold.PLP.Chemscore.CHOScore>
0.0000

> <Gold.PLP.Chemscore.Metal>
0.0000

> <Gold.Chemscore.Hbonds>
donor molecule, donor type, donor heavy atom, donor atom, acceptor molecule, acceptor atom, score
      L1  H     6    30       P1   470  1.00

> <Gold.PLP.Chemscore.Internal.Correction>
0.4945

