#       Name:                EN300-1177249_i002
#       Creating user name   aseyller
#       Creation time:       Fri Apr 21 14:19:22 2023


#       File generated by GOLD software.
#

@<TRIPOS>MOLECULE
EN300-1177249_i002|amine_1|mol2|667|dock13
    30    29     1
SMALL
USER_CHARGES


@<TRIPOS>ATOM
      1 C1          25.3879  36.9986  41.4856 C.3            1 <1>                0.0000
      2 C2          26.3807  36.7056  40.4390 C.1            1 <1>                0.0000
      3 C3          27.1725  36.4720  39.6044 C.1            1 <1>                0.0000
      4 C4          28.1654  36.1791  38.5578 C.3            1 <1>                0.0000
      5 C5          29.5743  36.3487  39.1295 C.3            1 <1>                0.0000
      6 N6          30.0117  35.0847  39.7371 N.3            1 <1>                0.0000
      7 C7          30.5234  36.7287  38.0224 C.2            1 <1>                0.0000
      8 O8          31.4375  35.9941  37.7314 O.2            1 <1>                0.0000
      9 O9          30.3532  37.8834  37.3594 O.3            1 <1>                0.0000
     10 C10         30.9748  37.9904  36.0516 C.3            1 <1>                0.0000
     11 C11         30.5010  39.2730  35.3650 C.3            1 <1>                0.0000
     12 C12         32.4960  38.0295  36.2114 C.3            1 <1>                0.0000
     13 C13         30.5825  36.7813  35.1999 C.3            1 <1>                0.0000
     14 H14         24.5543  36.3014  41.4010 H              1 <1>                0.0000
     15 H15         25.8518  36.8929  42.4663 H              1 <1>                0.0000
     16 H16         25.0224  38.0184  41.3645 H              1 <1>                0.0000
     17 H17         28.0352  35.1542  38.2102 H              1 <1>                0.0000
     18 H18         28.0268  36.8662  37.7231 H              1 <1>                0.0000
     19 H19         29.5671  37.1325  39.8870 H              1 <1>                0.0000
     20 H20         30.7806  40.1344  35.9717 H              1 <1>                0.0000
     21 H21         30.9677  39.3533  34.3832 H              1 <1>                0.0000
     22 H22         29.4174  39.2452  35.2511 H              1 <1>                0.0000
     23 H23         32.8335  37.1158  36.7005 H              1 <1>                0.0000
     24 H24         32.9626  38.1098  35.2297 H              1 <1>                0.0000
     25 H25         32.7754  38.8909  36.8181 H              1 <1>                0.0000
     26 H26         29.4988  36.7535  35.0860 H              1 <1>                0.0000
     27 H27         31.0491  36.8616  34.2182 H              1 <1>                0.0000
     28 H28         30.9201  35.8675  35.6891 H              1 <1>                0.0000
     29 H29         30.3989  34.4644  39.0418 H              1 <1>                0.0000
     30 H30         30.6721  35.2508  40.4816 H              1 <1>                0.0000
@<TRIPOS>BOND
    1    1    2 1     
    2    1   14 1     
    3    1   15 1     
    4    1   16 1     
    5    2    3 3     
    6    3    4 1     
    7    4    5 1     
    8    4   17 1     
    9    4   18 1     
   10    5    6 1     
   11    5    7 1     
   12    5   19 1     
   13    6   29 1     
   14    6   30 1     
   15    7    8 2     
   16    7    9 1     
   17    9   10 1     
   18   10   11 1     
   19   10   12 1     
   20   10   13 1     
   21   11   20 1     
   22   11   21 1     
   23   11   22 1     
   24   12   23 1     
   25   12   24 1     
   26   12   25 1     
   27   13   26 1     
   28   13   27 1     
   29   13   28 1     
@<TRIPOS>SUBSTRUCTURE
      1 ****           1
@<TRIPOS>SET
DONOR_HYDROGENS      STATIC     ATOMS    <user>   **** ""
2 29 30
ATOM$RED        STATIC     ATOMS    COLORGROUP SYSTEM
2 29 30
@<TRIPOS>COMMENT
> <Gold.Version>
2022.2.0

> <Gold.Id.Protein>
1qkm|1qkm_protein|mol2

> <Gold.Protein.RotatedTorsions>
[  496  491  490  487 ] final   60.99 input  -89.99 | X-H torsion

> <Gold.Protein.ActiveResidues>
 MET295  LEU298  THR299  LEU301  ALA302  GLU305  TRP335  MET336  LEU339  MET340 
 GLY342  LEU343  ARG346  PHE356  ILE373  ILE376  PHE377  LEU380  LYS471  GLY472 
 MET473  HIS475  LEU476  LEU477  ASN478  MET479  VAL484  VAL487 

> <Gold.Protein.RotatedAtoms>
   36.5597   33.3066   42.2968 H   0  0  0  0  0  0  0  0  0  0  0  0  # atno 496  bound_to 491 

> <Gold.Score>
     Score     S(PLP)   S(hbond)     S(cho)   S(metal)  DE(clash)   DE(tors)     intcor
     38.58     -36.47       1.00       0.00       0.00       0.00       0.70       0.49

> <Gold.PLP.Fitness>
38.5765

> <Gold.PLP.PLP>
-36.4733

> <Gold.PLP.part.hbond>
-1.0000

> <Gold.PLP.part.metal>
0.0000

> <Gold.PLP.part.buried>
-1.1942

> <Gold.PLP.part.nonpolar>
-35.6132

> <Gold.PLP.part.repulsive>
0.0278

> <Gold.PLP.ligand.clash>
0.0000

> <Gold.PLP.ligand.torsion>
0.6951

> <Gold.PLP.Chemscore.Hbond>
1.0000

> <Gold.PLP.Chemscore.CHOScore>
0.0000

> <Gold.PLP.Chemscore.Metal>
0.0000

> <Gold.Chemscore.Hbonds>
donor molecule, donor type, donor heavy atom, donor atom, acceptor molecule, acceptor atom, score
      L1  H     6    30       P1   470  1.00

> <Gold.PLP.Chemscore.Internal.Correction>
0.4934

