#       Name:                EN300-1177249_i002
#       Creating user name   aseyller
#       Creation time:       Fri Apr 21 14:19:20 2023


#       File generated by GOLD software.
#

@<TRIPOS>MOLECULE
EN300-1177249_i002|amine_1|mol2|667|dock11
    30    29     1
SMALL
USER_CHARGES


@<TRIPOS>ATOM
      1 C1          25.3203  36.9837  41.2511 C.3            1 <1>                0.0000
      2 C2          26.2142  36.9955  40.0816 C.1            1 <1>                0.0000
      3 C3          26.9271  37.0049  39.1490 C.1            1 <1>                0.0000
      4 C4          27.8210  37.0167  37.9795 C.3            1 <1>                0.0000
      5 C5          29.1978  37.5386  38.3952 C.3            1 <1>                0.0000
      6 N6          29.6508  36.8230  39.5955 N.3            1 <1>                0.0000
      7 C7          30.1800  37.3125  37.2749 C.2            1 <1>                0.0000
      8 O8          29.9669  37.7794  36.1810 O.2            1 <1>                0.0000
      9 O9          31.2918  36.5925  37.4923 O.3            1 <1>                0.0000
     10 C10         32.3522  36.7035  36.5066 C.3            1 <1>                0.0000
     11 C11         32.6893  38.1792  36.2840 C.3            1 <1>                0.0000
     12 C12         33.5953  35.9667  37.0096 C.3            1 <1>                0.0000
     13 C13         31.8896  36.0815  35.1875 C.3            1 <1>                0.0000
     14 H14         25.7286  37.6312  42.0271 H              1 <1>                0.0000
     15 H15         24.3343  37.3448  40.9584 H              1 <1>                0.0000
     16 H16         25.2359  35.9665  41.6337 H              1 <1>                0.0000
     17 H17         27.9193  36.0045  37.5872 H              1 <1>                0.0000
     18 H18         27.4036  37.6658  37.2097 H              1 <1>                0.0000
     19 H19         29.1321  38.6050  38.6112 H              1 <1>                0.0000
     20 H20         33.0189  38.6224  37.2237 H              1 <1>                0.0000
     21 H21         33.4854  38.2625  35.5441 H              1 <1>                0.0000
     22 H22         31.8038  38.7041  35.9256 H              1 <1>                0.0000
     23 H23         33.3552  34.9154  37.1682 H              1 <1>                0.0000
     24 H24         34.3913  36.0500  36.2698 H              1 <1>                0.0000
     25 H25         33.9249  36.4099  37.9493 H              1 <1>                0.0000
     26 H26         31.0041  36.6064  34.8292 H              1 <1>                0.0000
     27 H27         32.6856  36.1647  34.4477 H              1 <1>                0.0000
     28 H28         31.6495  35.0301  35.3461 H              1 <1>                0.0000
     29 H29         29.0818  36.0075  39.7665 H              1 <1>                0.0000
     30 H30         30.6260  36.5745  39.5218 H              1 <1>                0.0000
@<TRIPOS>BOND
    1    1    2 1     
    2    1   14 1     
    3    1   15 1     
    4    1   16 1     
    5    2    3 3     
    6    3    4 1     
    7    4    5 1     
    8    4   17 1     
    9    4   18 1     
   10    5    6 1     
   11    5    7 1     
   12    5   19 1     
   13    6   29 1     
   14    6   30 1     
   15    7    8 2     
   16    7    9 1     
   17    9   10 1     
   18   10   11 1     
   19   10   12 1     
   20   10   13 1     
   21   11   20 1     
   22   11   21 1     
   23   11   22 1     
   24   12   23 1     
   25   12   24 1     
   26   12   25 1     
   27   13   26 1     
   28   13   27 1     
   29   13   28 1     
@<TRIPOS>SUBSTRUCTURE
      1 ****           1
@<TRIPOS>SET
DONOR_HYDROGENS      STATIC     ATOMS    <user>   **** ""
2 29 30
ATOM$RED        STATIC     ATOMS    COLORGROUP SYSTEM
2 29 30
@<TRIPOS>COMMENT
> <Gold.Version>
2022.2.0

> <Gold.Id.Protein>
1qkm|1qkm_protein|mol2

> <Gold.Protein.RotatedTorsions>
[  496  491  490  487 ] final   98.56 input  -89.99 | X-H torsion

> <Gold.Protein.ActiveResidues>
 MET295  LEU298  THR299  LEU301  ALA302  GLU305  TRP335  MET336  LEU339  MET340 
 GLY342  LEU343  ARG346  PHE356  ILE373  ILE376  PHE377  LEU380  LYS471  GLY472 
 MET473  HIS475  LEU476  LEU477  ASN478  MET479  VAL484  VAL487 

> <Gold.Protein.RotatedAtoms>
   36.8987   32.9751   41.9170 H   0  0  0  0  0  0  0  0  0  0  0  0  # atno 496  bound_to 491 

> <Gold.Score>
     Score     S(PLP)   S(hbond)     S(cho)   S(metal)  DE(clash)   DE(tors)     intcor
     38.71     -38.84       0.00       0.00       0.00       0.00       0.31       0.49

> <Gold.PLP.Fitness>
38.7085

> <Gold.PLP.PLP>
-38.8390

> <Gold.PLP.part.hbond>
0.0000

> <Gold.PLP.part.metal>
0.0000

> <Gold.PLP.part.buried>
-2.8178

> <Gold.PLP.part.nonpolar>
-36.4290

> <Gold.PLP.part.repulsive>
0.0058

> <Gold.PLP.ligand.clash>
0.0000

> <Gold.PLP.ligand.torsion>
0.3120

> <Gold.PLP.Chemscore.Hbond>
0.0000

> <Gold.PLP.Chemscore.CHOScore>
0.0000

> <Gold.PLP.Chemscore.Metal>
0.0000

> <Gold.PLP.Chemscore.Internal.Correction>
0.4934

