#       Name:                EN300-1177249_i002
#       Creating user name   aseyller
#       Creation time:       Fri Apr 21 14:19:09 2023


#       File generated by GOLD software.
#

@<TRIPOS>MOLECULE
EN300-1177249_i002|amine_1|mol2|667|dock1
    30    29     1
SMALL
USER_CHARGES


@<TRIPOS>ATOM
      1 C1          25.2768  37.0947  41.2175 C.3            1 <1>                0.0000
      2 C2          26.3794  36.8440  40.2749 C.1            1 <1>                0.0000
      3 C3          27.2586  36.6441  39.5232 C.1            1 <1>                0.0000
      4 C4          28.3612  36.3934  38.5806 C.3            1 <1>                0.0000
      5 C5          29.6989  36.5820  39.2987 C.3            1 <1>                0.0000
      6 N6          29.6815  35.8435  40.5686 N.3            1 <1>                0.0000
      7 C7          30.8138  36.0601  38.4294 C.2            1 <1>                0.0000
      8 O8          31.4869  35.1294  38.8042 O.2            1 <1>                0.0000
      9 O9          31.0589  36.6293  37.2388 O.3            1 <1>                0.0000
     10 C10         32.3546  36.3684  36.6377 C.3            1 <1>                0.0000
     11 C11         33.4584  36.6738  37.6523 C.3            1 <1>                0.0000
     12 C12         32.4371  34.8984  36.2214 C.3            1 <1>                0.0000
     13 C13         32.5339  37.2581  35.4059 C.3            1 <1>                0.0000
     14 H14         24.7461  38.0002  40.9233 H              1 <1>                0.0000
     15 H15         24.5885  36.2497  41.2044 H              1 <1>                0.0000
     16 H16         25.6795  37.2199  42.2226 H              1 <1>                0.0000
     17 H17         28.2919  35.3730  38.2036 H              1 <1>                0.0000
     18 H18         28.2938  37.0937  37.7482 H              1 <1>                0.0000
     19 H19         29.8585  37.6419  39.4971 H              1 <1>                0.0000
     20 H20         33.3307  36.0399  38.5299 H              1 <1>                0.0000
     21 H21         34.4311  36.4779  37.2010 H              1 <1>                0.0000
     22 H22         33.3997  37.7210  37.9489 H              1 <1>                0.0000
     23 H23         31.6509  34.6808  35.4986 H              1 <1>                0.0000
     24 H24         33.4097  34.7026  35.7702 H              1 <1>                0.0000
     25 H25         32.3095  34.2646  37.0989 H              1 <1>                0.0000
     26 H26         32.4752  38.3053  35.7025 H              1 <1>                0.0000
     27 H27         33.5065  37.0623  34.9547 H              1 <1>                0.0000
     28 H28         31.7476  37.0405  34.6830 H              1 <1>                0.0000
     29 H29         29.2350  34.9454  40.4583 H              1 <1>                0.0000
     30 H30         30.6140  35.7407  40.9399 H              1 <1>                0.0000
@<TRIPOS>BOND
    1    1    2 1     
    2    1   14 1     
    3    1   15 1     
    4    1   16 1     
    5    2    3 3     
    6    3    4 1     
    7    4    5 1     
    8    4   17 1     
    9    4   18 1     
   10    5    6 1     
   11    5    7 1     
   12    5   19 1     
   13    6   29 1     
   14    6   30 1     
   15    7    8 2     
   16    7    9 1     
   17    9   10 1     
   18   10   11 1     
   19   10   12 1     
   20   10   13 1     
   21   11   20 1     
   22   11   21 1     
   23   11   22 1     
   24   12   23 1     
   25   12   24 1     
   26   12   25 1     
   27   13   26 1     
   28   13   27 1     
   29   13   28 1     
@<TRIPOS>SUBSTRUCTURE
      1 ****           1
@<TRIPOS>SET
DONOR_HYDROGENS      STATIC     ATOMS    <user>   **** ""
2 29 30
ATOM$RED        STATIC     ATOMS    COLORGROUP SYSTEM
2 29 30
@<TRIPOS>COMMENT
> <Gold.Version>
2022.2.0

> <Gold.Id.Protein>
1qkm|1qkm_protein|mol2

> <Gold.Protein.RotatedTorsions>
[  496  491  490  487 ] final   96.98 input  -89.99 | X-H torsion

> <Gold.Protein.ActiveResidues>
 MET295  LEU298  THR299  LEU301  ALA302  GLU305  TRP335  MET336  LEU339  MET340 
 GLY342  LEU343  ARG346  PHE356  ILE373  ILE376  PHE377  LEU380  LYS471  GLY472 
 MET473  HIS475  LEU476  LEU477  ASN478  MET479  VAL484  VAL487 

> <Gold.Protein.RotatedAtoms>
   36.8843   32.9823   41.9376 H   0  0  0  0  0  0  0  0  0  0  0  0  # atno 496  bound_to 491 

> <Gold.Score>
     Score     S(PLP)   S(hbond)     S(cho)   S(metal)  DE(clash)   DE(tors)     intcor
     42.68     -39.94       1.00       0.00       0.00       0.00       0.38       0.51

> <Gold.PLP.Fitness>
42.6801

> <Gold.PLP.PLP>
-39.9370

> <Gold.PLP.part.hbond>
-1.0000

> <Gold.PLP.part.metal>
0.0000

> <Gold.PLP.part.buried>
-3.5500

> <Gold.PLP.part.nonpolar>
-36.2365

> <Gold.PLP.part.repulsive>
0.0922

> <Gold.PLP.ligand.clash>
0.0000

> <Gold.PLP.ligand.torsion>
0.3834

> <Gold.PLP.Chemscore.Hbond>
1.0000

> <Gold.PLP.Chemscore.CHOScore>
0.0000

> <Gold.PLP.Chemscore.Metal>
0.0000

> <Gold.Chemscore.Hbonds>
donor molecule, donor type, donor heavy atom, donor atom, acceptor molecule, acceptor atom, score
      L1  H     6    30       P1   470  1.00

> <Gold.PLP.Chemscore.Internal.Correction>
0.5100

