#       Name:                EN300-1177249_i002
#       Creating user name   aseyller
#       Creation time:       Fri Apr 21 14:19:27 2023


#       File generated by GOLD software.
#

@<TRIPOS>MOLECULE
EN300-1177249_i002|amine_1|mol2|667|dock17
    30    29     1
SMALL
USER_CHARGES


@<TRIPOS>ATOM
      1 C1          28.2997  36.6987  41.5401 C.3            1 <1>                0.0000
      2 C2          29.0822  36.0298  40.4879 C.1            1 <1>                0.0000
      3 C3          29.7063  35.4964  39.6488 C.1            1 <1>                0.0000
      4 C4          30.4888  34.8275  38.5966 C.3            1 <1>                0.0000
      5 C5          31.7474  35.6450  38.2995 C.3            1 <1>                0.0000
      6 N6          32.6478  34.8634  37.4412 N.3            1 <1>                0.0000
      7 C7          31.3634  36.9205  37.5947 C.2            1 <1>                0.0000
      8 O8          30.4419  37.5845  38.0069 O.2            1 <1>                0.0000
      9 O9          32.0451  37.3189  36.5093 O.3            1 <1>                0.0000
     10 C10         31.3142  38.0863  35.5168 C.3            1 <1>                0.0000
     11 C11         30.9968  39.4741  36.0774 C.3            1 <1>                0.0000
     12 C12         32.1658  38.2291  34.2537 C.3            1 <1>                0.0000
     13 C13         30.0095  37.3646  35.1733 C.3            1 <1>                0.0000
     14 H14         28.6820  37.7083  41.6910 H              1 <1>                0.0000
     15 H15         27.2533  36.7477  41.2389 H              1 <1>                0.0000
     16 H16         28.3843  36.1354  42.4695 H              1 <1>                0.0000
     17 H17         30.7740  33.8310  38.9339 H              1 <1>                0.0000
     18 H18         29.8863  34.7463  37.6919 H              1 <1>                0.0000
     19 H19         32.2541  35.8848  39.2344 H              1 <1>                0.0000
     20 H20         31.9262  39.9884  36.3221 H              1 <1>                0.0000
     21 H21         30.4481  40.0502  35.3323 H              1 <1>                0.0000
     22 H22         30.3901  39.3725  36.9772 H              1 <1>                0.0000
     23 H23         32.3919  37.2405  33.8543 H              1 <1>                0.0000
     24 H24         31.6171  38.8052  33.5087 H              1 <1>                0.0000
     25 H25         33.0952  38.7433  34.4985 H              1 <1>                0.0000
     26 H26         29.4028  37.2629  36.0731 H              1 <1>                0.0000
     27 H27         29.4609  37.9406  34.4283 H              1 <1>                0.0000
     28 H28         30.2356  36.3758  34.7738 H              1 <1>                0.0000
     29 H29         33.0564  35.4429  36.7234 H              1 <1>                0.0000
     30 H30         33.3625  34.4068  37.9878 H              1 <1>                0.0000
@<TRIPOS>BOND
    1    1    2 1     
    2    1   14 1     
    3    1   15 1     
    4    1   16 1     
    5    2    3 3     
    6    3    4 1     
    7    4    5 1     
    8    4   17 1     
    9    4   18 1     
   10    5    6 1     
   11    5    7 1     
   12    5   19 1     
   13    6   29 1     
   14    6   30 1     
   15    7    8 2     
   16    7    9 1     
   17    9   10 1     
   18   10   11 1     
   19   10   12 1     
   20   10   13 1     
   21   11   20 1     
   22   11   21 1     
   23   11   22 1     
   24   12   23 1     
   25   12   24 1     
   26   12   25 1     
   27   13   26 1     
   28   13   27 1     
   29   13   28 1     
@<TRIPOS>SUBSTRUCTURE
      1 ****           1
@<TRIPOS>SET
DONOR_HYDROGENS      STATIC     ATOMS    <user>   **** ""
2 29 30
ATOM$RED        STATIC     ATOMS    COLORGROUP SYSTEM
2 29 30
@<TRIPOS>COMMENT
> <Gold.Version>
2022.2.0

> <Gold.Id.Protein>
1qkm|1qkm_protein|mol2

> <Gold.Protein.RotatedTorsions>
[  496  491  490  487 ] final  -40.15 input  -89.99 | X-H torsion

> <Gold.Protein.ActiveResidues>
 MET295  LEU298  THR299  LEU301  ALA302  GLU305  TRP335  MET336  LEU339  MET340 
 GLY342  LEU343  ARG346  PHE356  ILE373  ILE376  PHE377  LEU380  LYS471  GLY472 
 MET473  HIS475  LEU476  LEU477  ASN478  MET479  VAL484  VAL487 

> <Gold.Protein.RotatedAtoms>
   36.3641   34.6510   41.7701 H   0  0  0  0  0  0  0  0  0  0  0  0  # atno 496  bound_to 491 

> <Gold.Score>
     Score     S(PLP)   S(hbond)     S(cho)   S(metal)  DE(clash)   DE(tors)     intcor
     38.49     -39.68       0.00       0.00       0.00       0.00       0.84       0.49

> <Gold.PLP.Fitness>
38.4902

> <Gold.PLP.PLP>
-39.6756

> <Gold.PLP.part.hbond>
0.0000

> <Gold.PLP.part.metal>
0.0000

> <Gold.PLP.part.buried>
-3.0676

> <Gold.PLP.part.nonpolar>
-36.7648

> <Gold.PLP.part.repulsive>
0.0000

> <Gold.PLP.ligand.clash>
0.0000

> <Gold.PLP.ligand.torsion>
0.8394

> <Gold.PLP.Chemscore.Hbond>
0.0000

> <Gold.PLP.Chemscore.CHOScore>
0.0000

> <Gold.PLP.Chemscore.Metal>
0.0000

> <Gold.PLP.Chemscore.Internal.Correction>
0.4934

