#       Name:                EN300-246579_i001
#       Creating user name   fsindt
#       Creation time:       Wed Mar  1 10:42:01 2023


#       File generated by GOLD software.
#

@<TRIPOS>MOLECULE
EN300-246579_i001|acide_1|mol2|7898|dock7
    40    41     1
SMALL
USER_CHARGES


@<TRIPOS>ATOM
      1 C1           0.5491 -20.6218  14.4990 C.3            1 <1>                0.0000
      2 C2           0.4403 -19.1311  14.1725 C.3            1 <1>                0.0000
      3 C3          -0.3142 -18.4167  15.2957 C.3            1 <1>                0.0000
      4 C4           1.8428 -18.5343  14.0403 C.3            1 <1>                0.0000
      5 O5          -0.2782 -18.9607  12.9223 O.3            1 <1>                0.0000
      6 C6          -0.2557 -17.7345  12.3666 C.2            1 <1>                0.0000
      7 O7          -0.0159 -16.7608  13.0528 O.2            1 <1>                0.0000
      8 N8          -0.4991 -17.5871  11.0492 N.am           1 <1>                0.0000
      9 C9          -0.6997 -18.6808  10.0873 C.3            1 <1>                0.0000
     10 C10         -0.9198 -18.0377   8.7018 C.3            1 <1>                0.0000
     11 C11         -0.2689 -16.6383   8.8609 C.3            1 <1>                0.0000
     12 C12         -0.6149 -16.3025  10.3353 C.3            1 <1>                0.0000
     13 C13          0.3860 -15.2926  10.9005 C.3            1 <1>                0.0000
     14 N14         -0.2427 -13.9715  10.9752 N.pl3          1 <1>                0.0000
     15 C15         -0.2172 -13.0165  10.0257 C.2            1 <1>                0.0000
     16 C16         -0.9333 -11.9479  10.5201 C.2            1 <1>                0.0000
     17 N17         -1.3758 -12.2709  11.7490 N.2            1 <1>                0.0000
     18 N18         -0.9904 -13.4627  12.0460 N.2            1 <1>                0.0000
     19 C19         -1.1721 -10.6735   9.8247 C.2            1 <1>                0.0000
     20 O20         -1.8100  -9.7864  10.3752 O.co2          1 <1>                0.0000
     21 O21         -0.7329 -10.5009   8.6960 O.co2          1 <1>               -1.0000
     22 H22         -0.4501 -21.0471  14.5933 H              1 <1>                0.0000
     23 H23          1.0865 -21.1308  13.6989 H              1 <1>                0.0000
     24 H24          1.0884 -20.7498  15.4376 H              1 <1>                0.0000
     25 H25          0.2252 -18.5447  16.2342 H              1 <1>                0.0000
     26 H26         -0.3917 -17.3547  15.0631 H              1 <1>                0.0000
     27 H27         -1.3134 -18.8419  15.3899 H              1 <1>                0.0000
     28 H28          2.3802 -19.0432  13.2401 H              1 <1>                0.0000
     29 H29          1.7653 -17.4722  13.8076 H              1 <1>                0.0000
     30 H30          2.3821 -18.6621  14.9788 H              1 <1>                0.0000
     31 H31          0.1829 -19.3199  10.0633 H              1 <1>                0.0000
     32 H32         -1.5758 -19.2654  10.3680 H              1 <1>                0.0000
     33 H33         -0.4144 -18.6121   7.9253 H              1 <1>                0.0000
     34 H34         -1.9838 -17.9456   8.4840 H              1 <1>                0.0000
     35 H35          0.8095 -16.6896   8.7110 H              1 <1>                0.0000
     36 H36         -0.7223 -15.9169   8.1809 H              1 <1>                0.0000
     37 H37         -1.6302 -15.9125  10.4074 H              1 <1>                0.0000
     38 H38          0.6938 -15.6055  11.8981 H              1 <1>                0.0000
     39 H39          1.2590 -15.2432  10.2496 H              1 <1>                0.0000
     40 H40          0.2700 -13.0764   9.0636 H              1 <1>                0.0000
@<TRIPOS>BOND
    1    1    2 1     
    2    1   22 1     
    3    1   23 1     
    4    1   24 1     
    5    2    3 1     
    6    2    4 1     
    7    2    5 1     
    8    3   25 1     
    9    3   26 1     
   10    3   27 1     
   11    4   28 1     
   12    4   29 1     
   13    4   30 1     
   14    5    6 1     
   15    6    7 2     
   16    6    8 am    
   17    8    9 1     
   18    8   12 1     
   19    9   10 1     
   20    9   31 1     
   21    9   32 1     
   22   10   11 1     
   23   10   33 1     
   24   10   34 1     
   25   11   12 1     
   26   11   35 1     
   27   11   36 1     
   28   12   13 1     
   29   12   37 1     
   30   13   14 1     
   31   13   38 1     
   32   13   39 1     
   33   14   15 1     
   34   14   18 1     
   35   15   16 2     
   36   15   40 1     
   37   16   17 1     
   38   16   19 1     
   39   17   18 2     
   40   19   20 ar    
   41   19   21 ar    
@<TRIPOS>SUBSTRUCTURE
      1 ****           1
@<TRIPOS>COMMENT
> <Gold.Version>
2022.2.0

> <Gold.Id.Protein>
3pbl|protein|mol2

> <Gold.Protein.RotatedTorsions>
[ 1303 1298 1297 1294 ] final   60.54 input  179.99 | X-H torsion
[ 2461 2456 2455 2452 ] final -107.79 input   30.03 | X-H torsion
[ 2515 2510 2509 2506 ] final   78.20 input  -89.99 | X-H torsion
[ 3721 3712 3711 3710 ] final  -11.12 input -179.91 | X-H torsion
[ 3841 3832 3831 3830 ] final  -21.87 input -179.91 | X-H torsion
[ 3767 3762 3761 3758 ] final -165.26 input  -89.99 | X-H torsion
[ 2472 2467 2466 2463 ] final   52.42 input  -89.97 | X-H torsion

> <Gold.Protein.ActiveResidues>
 VAL82   VAL86   LEU89   PHE106  VAL107  ASP110  VAL111  MET112  CYS114  THR115 
 CYS181  SER182  ILE183  PHE188  VAL189  ILE190  SER192  SER193  SER196  TRP342 
 PHE345  PHE346  HIS349  VAL350  TYR365  THR369  GLY372  TYR373 

> <Gold.Protein.RotatedAtoms>
    4.0154  -10.2693    4.6386 H   0  0  0  0  0  0  0  0  0  0  0  0  # atno 1303 bound_to 1298
    0.4588   -9.0809    7.9191 H   0  0  0  0  0  0  0  0  0  0  0  0  # atno 2461 bound_to 2456
   -4.5191   -4.8073    7.6625 H   0  0  0  0  0  0  0  0  0  0  0  0  # atno 2472 bound_to 2467
    2.0741   -7.6026    5.7009 H   0  0  0  0  0  0  0  0  0  0  0  0  # atno 2515 bound_to 2510
   -2.5180  -17.8798   14.3882 H   0  0  0  0  0  0  0  0  0  0  0  0  # atno 3721 bound_to 3712
   -4.2461  -22.3564   11.6333 H   0  0  0  0  0  0  0  0  0  0  0  0  # atno 3767 bound_to 3762
    1.5963  -20.2277    9.4135 H   0  0  0  0  0  0  0  0  0  0  0  0  # atno 3841 bound_to 3832
    3.4942   -8.9839    3.7770 LP  0  0  0  0  0  0  0  0  0  0  0  0  # atno 4297 bound_to 1298
    4.8526   -8.8678    4.6759 LP  0  0  0  0  0  0  0  0  0  0  0  0  # atno 4298 bound_to 1298
    2.0443   -8.7896    8.1814 LP  0  0  0  0  0  0  0  0  0  0  0  0  # atno 4299 bound_to 2456
    1.2344   -7.9378    7.0478 LP  0  0  0  0  0  0  0  0  0  0  0  0  # atno 4300 bound_to 2456
    2.7723   -8.2077    4.3547 LP  0  0  0  0  0  0  0  0  0  0  0  0  # atno 4301 bound_to 2510
    2.4504   -9.1892    5.6194 LP  0  0  0  0  0  0  0  0  0  0  0  0  # atno 4302 bound_to 2510
   -3.4976  -16.6113   14.2937 LP  0  0  0  0  0  0  0  0  0  0  0  0  # atno 4306 bound_to 3712
   -3.1230  -17.4725   12.9579 LP  0  0  0  0  0  0  0  0  0  0  0  0  # atno 4307 bound_to 3712
    2.4738  -19.7711    8.1496 LP  0  0  0  0  0  0  0  0  0  0  0  0  # atno 4314 bound_to 3832
    2.9116  -21.0682    9.0399 LP  0  0  0  0  0  0  0  0  0  0  0  0  # atno 4315 bound_to 3832
   -4.3731  -23.3291   10.3277 LP  0  0  0  0  0  0  0  0  0  0  0  0  # atno 4318 bound_to 3762
   -5.5080  -22.1894   10.6103 LP  0  0  0  0  0  0  0  0  0  0  0  0  # atno 4319 bound_to 3762
   -3.7880   -5.2298    9.0602 LP  0  0  0  0  0  0  0  0  0  0  0  0  # atno 4320 bound_to 2467
   -5.4097   -5.3563    8.9162 LP  0  0  0  0  0  0  0  0  0  0  0  0  # atno 4321 bound_to 2467

> <Gold.Score>
     Score     S(PLP)   S(hbond)     S(cho)   S(metal)  DE(clash)   DE(tors)     intcor
     44.61     -43.86       1.00       0.00       0.00       4.05       1.39       4.58

> <Gold.PLP.Fitness>
44.6097

> <Gold.PLP.PLP>
-43.8584

> <Gold.PLP.part.hbond>
-2.2867

> <Gold.PLP.part.metal>
0.0000

> <Gold.PLP.part.buried>
-5.0903

> <Gold.PLP.part.nonpolar>
-37.8301

> <Gold.PLP.part.repulsive>
0.3191

> <Gold.PLP.ligand.clash>
4.0521

> <Gold.PLP.ligand.torsion>
1.3889

> <Gold.PLP.Chemscore.Hbond>
1.0000

> <Gold.PLP.Chemscore.CHOScore>
0.0000

> <Gold.PLP.Chemscore.Metal>
0.0000

> <Gold.Chemscore.Hbonds>
donor molecule, donor type, donor heavy atom, donor atom, acceptor molecule, acceptor atom, score
      P1  H  2456  2461       L1    21  1.00

> <Gold.PLP.Chemscore.Internal.Correction>
4.5812

