#       Name:                EN300-246579_i001
#       Creating user name   fsindt
#       Creation time:       Wed Mar  1 10:41:54 2023


#       File generated by GOLD software.
#

@<TRIPOS>MOLECULE
EN300-246579_i001|acide_1|mol2|7898|dock1
    40    41     1
SMALL
USER_CHARGES


@<TRIPOS>ATOM
      1 C1           2.3232 -18.0946  13.1990 C.3            1 <1>                0.0000
      2 C2           1.1477 -17.2644  13.7185 C.3            1 <1>                0.0000
      3 C3           0.4841 -17.9955  14.8873 C.3            1 <1>                0.0000
      4 C4           1.6560 -15.9013  14.1920 C.3            1 <1>                0.0000
      5 O5           0.1795 -17.0765  12.6528 O.3            1 <1>                0.0000
      6 C6          -0.1800 -18.1696  11.9538 C.2            1 <1>                0.0000
      7 O7          -0.1758 -19.2609  12.4881 O.2            1 <1>                0.0000
      8 N8          -0.5447 -18.0534  10.6616 N.am           1 <1>                0.0000
      9 C9          -0.8590 -19.1684   9.7564 C.3            1 <1>                0.0000
     10 C10         -1.1965 -18.5593   8.3791 C.3            1 <1>                0.0000
     11 C11         -0.5041 -17.1719   8.4337 C.3            1 <1>                0.0000
     12 C12         -0.7009 -16.7869   9.9235 C.3            1 <1>                0.0000
     13 C13          0.3703 -15.7856  10.3607 C.3            1 <1>                0.0000
     14 N14          0.6107 -14.8250   9.2811 N.pl3          1 <1>                0.0000
     15 C15          0.2602 -13.5244   9.2723 C.2            1 <1>                0.0000
     16 C16          0.6812 -13.0094   8.0654 C.2            1 <1>                0.0000
     17 N17          1.2738 -13.9975   7.3706 N.2            1 <1>                0.0000
     18 N18          1.2545 -15.0825   8.0630 N.2            1 <1>                0.0000
     19 C19          0.5116 -11.6193   7.6143 C.2            1 <1>                0.0000
     20 O20         -0.2021 -10.8535   8.2476 O.co2          1 <1>                0.0000
     21 O21          1.0842 -11.2292   6.6060 O.co2          1 <1>               -1.0000
     22 H22          1.9612 -19.0657  12.8616 H              1 <1>                0.0000
     23 H23          2.7959 -17.5738  12.3663 H              1 <1>                0.0000
     24 H24          3.0500 -18.2357  13.9989 H              1 <1>                0.0000
     25 H25          1.2110 -18.1365  15.6873 H              1 <1>                0.0000
     26 H26         -0.3533 -17.4040  15.2574 H              1 <1>                0.0000
     27 H27          0.1221 -18.9666  14.5500 H              1 <1>                0.0000
     28 H28          2.1287 -15.3804  13.3593 H              1 <1>                0.0000
     29 H29          0.8185 -15.3097  14.5622 H              1 <1>                0.0000
     30 H30          2.3827 -16.0422  14.9920 H              1 <1>                0.0000
     31 H31          0.0037 -19.8288   9.6682 H              1 <1>                0.0000
     32 H32         -1.7165 -19.7239  10.1362 H              1 <1>                0.0000
     33 H33         -0.7796 -19.1671   7.5760 H              1 <1>                0.0000
     34 H34         -2.2743 -18.4480   8.2603 H              1 <1>                0.0000
     35 H35          0.5539 -17.2530   8.1841 H              1 <1>                0.0000
     36 H36         -1.0049 -16.4592   7.7783 H              1 <1>                0.0000
     37 H37         -1.6963 -16.3709  10.0796 H              1 <1>                0.0000
     38 H38          0.0305 -15.2552  11.2502 H              1 <1>                0.0000
     39 H39          1.2946 -16.3178  10.5860 H              1 <1>                0.0000
     40 H40         -0.2517 -12.9892  10.0584 H              1 <1>                0.0000
@<TRIPOS>BOND
    1    1    2 1     
    2    1   22 1     
    3    1   23 1     
    4    1   24 1     
    5    2    3 1     
    6    2    4 1     
    7    2    5 1     
    8    3   25 1     
    9    3   26 1     
   10    3   27 1     
   11    4   28 1     
   12    4   29 1     
   13    4   30 1     
   14    5    6 1     
   15    6    7 2     
   16    6    8 am    
   17    8    9 1     
   18    8   12 1     
   19    9   10 1     
   20    9   31 1     
   21    9   32 1     
   22   10   11 1     
   23   10   33 1     
   24   10   34 1     
   25   11   12 1     
   26   11   35 1     
   27   11   36 1     
   28   12   13 1     
   29   12   37 1     
   30   13   14 1     
   31   13   38 1     
   32   13   39 1     
   33   14   15 1     
   34   14   18 1     
   35   15   16 2     
   36   15   40 1     
   37   16   17 1     
   38   16   19 1     
   39   17   18 2     
   40   19   20 ar    
   41   19   21 ar    
@<TRIPOS>SUBSTRUCTURE
      1 ****           1
@<TRIPOS>COMMENT
> <Gold.Version>
2022.2.0

> <Gold.Id.Protein>
3pbl|protein|mol2

> <Gold.Protein.RotatedTorsions>
[ 1303 1298 1297 1294 ] final  -95.34 input  179.99 | X-H torsion
[ 2461 2456 2455 2452 ] final -105.61 input   30.03 | X-H torsion
[ 2515 2510 2509 2506 ] final   17.44 input  -89.99 | X-H torsion
[ 3721 3712 3711 3710 ] final   26.69 input -179.91 | X-H torsion
[ 3841 3832 3831 3830 ] final  -87.23 input -179.91 | X-H torsion
[ 3767 3762 3761 3758 ] final  105.65 input  -89.99 | X-H torsion
[ 2472 2467 2466 2463 ] final   50.08 input  -89.97 | X-H torsion

> <Gold.Protein.ActiveResidues>
 VAL82   VAL86   LEU89   PHE106  VAL107  ASP110  VAL111  MET112  CYS114  THR115 
 CYS181  SER182  ILE183  PHE188  VAL189  ILE190  SER192  SER193  SER196  TRP342 
 PHE345  PHE346  HIS349  VAL350  TYR365  THR369  GLY372  TYR373 

> <Gold.Protein.RotatedAtoms>
    3.8960   -8.5837    3.9015 H   0  0  0  0  0  0  0  0  0  0  0  0  # atno 1303 bound_to 1298
    0.4416   -9.0619    7.8940 H   0  0  0  0  0  0  0  0  0  0  0  0  # atno 2461 bound_to 2456
   -4.4809   -4.8046    7.6667 H   0  0  0  0  0  0  0  0  0  0  0  0  # atno 2472 bound_to 2467
    2.4195   -7.4819    4.8206 H   0  0  0  0  0  0  0  0  0  0  0  0  # atno 2515 bound_to 2510
   -2.4773  -18.0344   13.8502 H   0  0  0  0  0  0  0  0  0  0  0  0  # atno 3721 bound_to 3712
   -4.0462  -23.2784   10.7060 H   0  0  0  0  0  0  0  0  0  0  0  0  # atno 3767 bound_to 3762
    1.8232  -19.6264    8.7347 H   0  0  0  0  0  0  0  0  0  0  0  0  # atno 3841 bound_to 3832
    4.8902   -9.3989    4.9081 LP  0  0  0  0  0  0  0  0  0  0  0  0  # atno 4297 bound_to 1298
    3.5761  -10.1390    4.2821 LP  0  0  0  0  0  0  0  0  0  0  0  0  # atno 4298 bound_to 1298
    2.0267   -8.8145    8.2002 LP  0  0  0  0  0  0  0  0  0  0  0  0  # atno 4299 bound_to 2456
    1.2692   -7.9319    7.0540 LP  0  0  0  0  0  0  0  0  0  0  0  0  # atno 4300 bound_to 2456
    2.7880   -9.0713    4.7589 LP  0  0  0  0  0  0  0  0  0  0  0  0  # atno 4301 bound_to 2510
    2.0892   -8.4464    6.0960 LP  0  0  0  0  0  0  0  0  0  0  0  0  # atno 4302 bound_to 2510
   -3.2586  -16.9578   14.7494 LP  0  0  0  0  0  0  0  0  0  0  0  0  # atno 4306 bound_to 3712
   -3.4091  -16.9475   13.1234 LP  0  0  0  0  0  0  0  0  0  0  0  0  # atno 4307 bound_to 3712
    3.1142  -20.5314    8.4339 LP  0  0  0  0  0  0  0  0  0  0  0  0  # atno 4314 bound_to 3832
    2.0090  -21.0024    9.5399 LP  0  0  0  0  0  0  0  0  0  0  0  0  # atno 4315 bound_to 3832
   -5.4320  -22.5398   10.2579 LP  0  0  0  0  0  0  0  0  0  0  0  0  # atno 4318 bound_to 3762
   -4.6488  -22.0571   11.6071 LP  0  0  0  0  0  0  0  0  0  0  0  0  # atno 4319 bound_to 3762
   -3.8097   -5.2427    9.0893 LP  0  0  0  0  0  0  0  0  0  0  0  0  # atno 4320 bound_to 2467
   -5.4263   -5.3462    8.8830 LP  0  0  0  0  0  0  0  0  0  0  0  0  # atno 4321 bound_to 2467

> <Gold.Score>
     Score     S(PLP)   S(hbond)     S(cho)   S(metal)  DE(clash)   DE(tors)     intcor
     50.06     -47.94       1.00       0.00       0.00       4.01       0.89       4.91

> <Gold.PLP.Fitness>
50.0589

> <Gold.PLP.PLP>
-47.9447

> <Gold.PLP.part.hbond>
-1.9036

> <Gold.PLP.part.metal>
0.0000

> <Gold.PLP.part.buried>
-3.6920

> <Gold.PLP.part.nonpolar>
-44.2082

> <Gold.PLP.part.repulsive>
0.4748

> <Gold.PLP.ligand.clash>
4.0067

> <Gold.PLP.ligand.torsion>
0.8924

> <Gold.PLP.Chemscore.Hbond>
1.0000

> <Gold.PLP.Chemscore.CHOScore>
0.0000

> <Gold.PLP.Chemscore.Metal>
0.0000

> <Gold.Chemscore.Hbonds>
donor molecule, donor type, donor heavy atom, donor atom, acceptor molecule, acceptor atom, score
      P1  H  2456  2461       L1    20  1.00

> <Gold.PLP.Chemscore.Internal.Correction>
4.9057

