#       Name:                EN300-246579_i001
#       Creating user name   fsindt
#       Creation time:       Wed Mar  1 10:42:15 2023


#       File generated by GOLD software.
#

@<TRIPOS>MOLECULE
EN300-246579_i001|acide_1|mol2|7898|dock17
    40    41     1
SMALL
USER_CHARGES


@<TRIPOS>ATOM
      1 C1           0.0990 -18.9063  15.2682 C.3            1 <1>                0.0000
      2 C2           0.2468 -17.7669  14.2578 C.3            1 <1>                0.0000
      3 C3          -0.4019 -16.5000  14.8192 C.3            1 <1>                0.0000
      4 C4           1.7316 -17.5066  13.9963 C.3            1 <1>                0.0000
      5 O5          -0.4064 -18.1349  13.0144 O.3            1 <1>                0.0000
      6 C6          -0.2511 -17.2979  11.9713 C.2            1 <1>                0.0000
      7 O7           0.1805 -16.1764  12.1512 O.2            1 <1>                0.0000
      8 N8          -0.5742 -17.7041  10.7275 N.am           1 <1>                0.0000
      9 C9          -1.0063 -19.0587  10.3536 C.3            1 <1>                0.0000
     10 C10         -1.2402 -19.0604   8.8281 C.3            1 <1>                0.0000
     11 C11         -0.3834 -17.8609   8.3440 C.3            1 <1>                0.0000
     12 C12         -0.5593 -16.8619   9.5176 C.3            1 <1>                0.0000
     13 C13          0.6186 -15.8866   9.5679 C.3            1 <1>                0.0000
     14 N14          0.4942 -14.9141   8.4795 N.pl3          1 <1>                0.0000
     15 C15          1.0675 -13.6965   8.4227 C.2            1 <1>                0.0000
     16 C16          0.6801 -13.1323   7.2265 C.2            1 <1>                0.0000
     17 N17         -0.1136 -14.0094   6.5856 N.2            1 <1>                0.0000
     18 N18         -0.2391 -15.0756   7.2959 N.2            1 <1>                0.0000
     19 C19          1.0671 -11.8004   6.7354 C.2            1 <1>                0.0000
     20 O20          1.7076 -11.6932   5.6985 O.co2          1 <1>                0.0000
     21 O21          0.7485 -10.8003   7.3639 O.co2          1 <1>               -1.0000
     22 H22         -0.9588 -19.0917  15.4546 H              1 <1>                0.0000
     23 H23          0.5612 -19.8088  14.8682 H              1 <1>                0.0000
     24 H24          0.5894 -18.6301  16.2016 H              1 <1>                0.0000
     25 H25          0.0885 -16.2238  15.7527 H              1 <1>                0.0000
     26 H26         -0.2965 -15.6884  14.0994 H              1 <1>                0.0000
     27 H27         -1.4597 -16.6855  15.0056 H              1 <1>                0.0000
     28 H28          2.1938 -18.4092  13.5963 H              1 <1>                0.0000
     29 H29          1.8370 -16.6949  13.2765 H              1 <1>                0.0000
     30 H30          2.2221 -17.2303  14.9297 H              1 <1>                0.0000
     31 H31         -0.2300 -19.7795  10.6104 H              1 <1>                0.0000
     32 H32         -1.9326 -19.3085  10.8709 H              1 <1>                0.0000
     33 H33         -0.8861 -19.9912   8.3848 H              1 <1>                0.0000
     34 H34         -2.2935 -18.8991   8.5993 H              1 <1>                0.0000
     35 H35          0.6611 -18.1494   8.2253 H              1 <1>                0.0000
     36 H36         -0.7801 -17.4462   7.4172 H              1 <1>                0.0000
     37 H37         -1.4987 -16.3184   9.4156 H              1 <1>                0.0000
     38 H38          0.6168 -15.3638  10.5243 H              1 <1>                0.0000
     39 H39          1.5520 -16.4385   9.4572 H              1 <1>                0.0000
     40 H40          1.7065 -13.2491   9.1697 H              1 <1>                0.0000
@<TRIPOS>BOND
    1    1    2 1     
    2    1   22 1     
    3    1   23 1     
    4    1   24 1     
    5    2    3 1     
    6    2    4 1     
    7    2    5 1     
    8    3   25 1     
    9    3   26 1     
   10    3   27 1     
   11    4   28 1     
   12    4   29 1     
   13    4   30 1     
   14    5    6 1     
   15    6    7 2     
   16    6    8 am    
   17    8    9 1     
   18    8   12 1     
   19    9   10 1     
   20    9   31 1     
   21    9   32 1     
   22   10   11 1     
   23   10   33 1     
   24   10   34 1     
   25   11   12 1     
   26   11   35 1     
   27   11   36 1     
   28   12   13 1     
   29   12   37 1     
   30   13   14 1     
   31   13   38 1     
   32   13   39 1     
   33   14   15 1     
   34   14   18 1     
   35   15   16 2     
   36   15   40 1     
   37   16   17 1     
   38   16   19 1     
   39   17   18 2     
   40   19   20 ar    
   41   19   21 ar    
@<TRIPOS>SUBSTRUCTURE
      1 ****           1
@<TRIPOS>COMMENT
> <Gold.Version>
2022.2.0

> <Gold.Id.Protein>
3pbl|protein|mol2

> <Gold.Protein.RotatedTorsions>
[ 1303 1298 1297 1294 ] final -132.31 input  179.99 | X-H torsion
[ 2461 2456 2455 2452 ] final -133.38 input   30.03 | X-H torsion
[ 2515 2510 2509 2506 ] final  -75.99 input  -89.99 | X-H torsion
[ 3721 3712 3711 3710 ] final  166.06 input -179.91 | X-H torsion
[ 3841 3832 3831 3830 ] final  -41.82 input -179.91 | X-H torsion
[ 3767 3762 3761 3758 ] final  160.22 input  -89.99 | X-H torsion
[ 2472 2467 2466 2463 ] final  -74.85 input  -89.97 | X-H torsion

> <Gold.Protein.ActiveResidues>
 VAL82   VAL86   LEU89   PHE106  VAL107  ASP110  VAL111  MET112  CYS114  THR115 
 CYS181  SER182  ILE183  PHE188  VAL189  ILE190  SER192  SER193  SER196  TRP342 
 PHE345  PHE346  HIS349  VAL350  TYR365  THR369  GLY372  TYR373 

> <Gold.Protein.RotatedAtoms>
    4.3974   -8.4856    4.2119 H   0  0  0  0  0  0  0  0  0  0  0  0  # atno 1303 bound_to 1298
    0.7381   -9.2465    8.1819 H   0  0  0  0  0  0  0  0  0  0  0  0  # atno 2461 bound_to 2456
   -3.8593   -5.2699    9.1475 H   0  0  0  0  0  0  0  0  0  0  0  0  # atno 2472 bound_to 2467
    2.8357   -8.7439    4.4790 H   0  0  0  0  0  0  0  0  0  0  0  0  # atno 2515 bound_to 2510
   -3.2805  -16.7076   13.3665 H   0  0  0  0  0  0  0  0  0  0  0  0  # atno 3721 bound_to 3712
   -3.9562  -22.7766   11.4041 H   0  0  0  0  0  0  0  0  0  0  0  0  # atno 3767 bound_to 3762
    1.5622  -19.9955    9.2268 H   0  0  0  0  0  0  0  0  0  0  0  0  # atno 3841 bound_to 3832
    4.6242   -9.9340    4.9309 LP  0  0  0  0  0  0  0  0  0  0  0  0  # atno 4297 bound_to 1298
    3.3404   -9.7020    3.9488 LP  0  0  0  0  0  0  0  0  0  0  0  0  # atno 4298 bound_to 1298
    2.1593   -8.4862    7.9185 LP  0  0  0  0  0  0  0  0  0  0  0  0  # atno 4299 bound_to 2456
    0.8402   -8.0757    7.0479 LP  0  0  0  0  0  0  0  0  0  0  0  0  # atno 4300 bound_to 2456
    2.2207   -8.8449    5.9881 LP  0  0  0  0  0  0  0  0  0  0  0  0  # atno 4301 bound_to 2510
    2.2402   -7.4101    5.2085 LP  0  0  0  0  0  0  0  0  0  0  0  0  # atno 4302 bound_to 2510
   -2.6651  -18.1764   13.5714 LP  0  0  0  0  0  0  0  0  0  0  0  0  # atno 4306 bound_to 3712
   -3.0752  -17.2607   14.8598 LP  0  0  0  0  0  0  0  0  0  0  0  0  # atno 4307 bound_to 3712
    2.7484  -19.9573    8.1463 LP  0  0  0  0  0  0  0  0  0  0  0  0  # atno 4314 bound_to 3832
    2.6764  -21.1502    9.2590 LP  0  0  0  0  0  0  0  0  0  0  0  0  # atno 4315 bound_to 3832
   -4.8450  -23.1504   10.0861 LP  0  0  0  0  0  0  0  0  0  0  0  0  # atno 4318 bound_to 3762
   -5.3259  -21.9481   11.0810 LP  0  0  0  0  0  0  0  0  0  0  0  0  # atno 4319 bound_to 3762
   -5.4564   -5.3237    8.8113 LP  0  0  0  0  0  0  0  0  0  0  0  0  # atno 4320 bound_to 2467
   -4.4011   -4.8000    7.6805 LP  0  0  0  0  0  0  0  0  0  0  0  0  # atno 4321 bound_to 2467

> <Gold.Score>
     Score     S(PLP)   S(hbond)     S(cho)   S(metal)  DE(clash)   DE(tors)     intcor
     47.66     -48.82       0.62       0.00       0.00       4.06       1.77       4.57

> <Gold.PLP.Fitness>
47.6619

> <Gold.PLP.PLP>
-48.8158

> <Gold.PLP.part.hbond>
-1.7446

> <Gold.PLP.part.metal>
0.0000

> <Gold.PLP.part.buried>
-3.0646

> <Gold.PLP.part.nonpolar>
-45.0621

> <Gold.PLP.part.repulsive>
0.2714

> <Gold.PLP.ligand.clash>
4.0559

> <Gold.PLP.ligand.torsion>
1.7698

> <Gold.PLP.Chemscore.Hbond>
0.6240

> <Gold.PLP.Chemscore.CHOScore>
0.0000

> <Gold.PLP.Chemscore.Metal>
0.0000

> <Gold.Chemscore.Hbonds>
donor molecule, donor type, donor heavy atom, donor atom, acceptor molecule, acceptor atom, score
      P1  H  2456  2461       L1    21  0.62

> <Gold.PLP.Chemscore.Internal.Correction>
4.5696

