#       Name:                EN300-246579_i001
#       Creating user name   fsindt
#       Creation time:       Wed Mar  1 10:42:03 2023


#       File generated by GOLD software.
#

@<TRIPOS>MOLECULE
EN300-246579_i001|acide_1|mol2|7898|dock8
    40    41     1
SMALL
USER_CHARGES


@<TRIPOS>ATOM
      1 C1          -2.3076  -9.3090   9.3063 C.3            1 <1>                0.0000
      2 C2          -2.0313 -10.4434  10.2950 C.3            1 <1>                0.0000
      3 C3          -0.9752  -9.9927  11.3063 C.3            1 <1>                0.0000
      4 C4          -3.3227 -10.8030  11.0324 C.3            1 <1>                0.0000
      5 O5          -1.5457 -11.6063   9.5739 O.3            1 <1>                0.0000
      6 C6          -0.9988 -12.5951  10.3061 C.2            1 <1>                0.0000
      7 O7          -1.2974 -12.7203  11.4772 O.2            1 <1>                0.0000
      8 N8          -0.1204 -13.4461   9.7399 N.am           1 <1>                0.0000
      9 C9           0.2498 -13.4746   8.3173 C.3            1 <1>                0.0000
     10 C10          1.2615 -14.6248   8.1300 C.3            1 <1>                0.0000
     11 C11          0.9756 -15.5409   9.3492 C.3            1 <1>                0.0000
     12 C12          0.6335 -14.4983  10.4456 C.3            1 <1>                0.0000
     13 C13         -0.2375 -15.1335  11.5313 C.3            1 <1>                0.0000
     14 N14          0.4546 -16.2949  12.0953 N.pl3          1 <1>                0.0000
     15 C15          0.2122 -17.5890  11.8108 C.2            1 <1>                0.0000
     16 C16          1.0933 -18.3320  12.5663 C.2            1 <1>                0.0000
     17 N17          1.8471 -17.4832  13.2886 N.2            1 <1>                0.0000
     18 N18          1.4996 -16.2712  13.0292 N.2            1 <1>                0.0000
     19 C19          1.1923 -19.7999  12.5810 C.2            1 <1>                0.0000
     20 O20          1.0784 -20.4311  11.5391 O.co2          1 <1>                0.0000
     21 O21          1.3886 -20.3892  13.6350 O.co2          1 <1>               -1.0000
     22 H22         -1.3876  -9.0527   8.7810 H              1 <1>                0.0000
     23 H23         -3.0599  -9.6300   8.5859 H              1 <1>                0.0000
     24 H24         -2.6721  -8.4359   9.8476 H              1 <1>                0.0000
     25 H25         -1.3399  -9.1196  11.8476 H              1 <1>                0.0000
     26 H26         -0.7785 -10.8008  12.0107 H              1 <1>                0.0000
     27 H27         -0.0552  -9.7364  10.7810 H              1 <1>                0.0000
     28 H28         -4.0751 -11.1242  10.3119 H              1 <1>                0.0000
     29 H29         -3.1259 -11.6113  11.7368 H              1 <1>                0.0000
     30 H30         -3.6873  -9.9301  11.5737 H              1 <1>                0.0000
     31 H31         -0.6353 -13.6565   7.7076 H              1 <1>                0.0000
     32 H32          0.7090 -12.5273   8.0346 H              1 <1>                0.0000
     33 H33          1.0738 -15.1553   7.1965 H              1 <1>                0.0000
     34 H34          2.2838 -14.2482   8.1620 H              1 <1>                0.0000
     35 H35          0.1291 -16.1991   9.1534 H              1 <1>                0.0000
     36 H36          1.8607 -16.1160   9.6218 H              1 <1>                0.0000
     37 H37          1.5465 -14.0914  10.8804 H              1 <1>                0.0000
     38 H38         -0.4252 -14.4043  12.3195 H              1 <1>                0.0000
     39 H39         -1.1855 -15.4511  11.0970 H              1 <1>                0.0000
     40 H40         -0.5291 -17.9704  11.1241 H              1 <1>                0.0000
@<TRIPOS>BOND
    1    1    2 1     
    2    1   22 1     
    3    1   23 1     
    4    1   24 1     
    5    2    3 1     
    6    2    4 1     
    7    2    5 1     
    8    3   25 1     
    9    3   26 1     
   10    3   27 1     
   11    4   28 1     
   12    4   29 1     
   13    4   30 1     
   14    5    6 1     
   15    6    7 2     
   16    6    8 am    
   17    8    9 1     
   18    8   12 1     
   19    9   10 1     
   20    9   31 1     
   21    9   32 1     
   22   10   11 1     
   23   10   33 1     
   24   10   34 1     
   25   11   12 1     
   26   11   35 1     
   27   11   36 1     
   28   12   13 1     
   29   12   37 1     
   30   13   14 1     
   31   13   38 1     
   32   13   39 1     
   33   14   15 1     
   34   14   18 1     
   35   15   16 2     
   36   15   40 1     
   37   16   17 1     
   38   16   19 1     
   39   17   18 2     
   40   19   20 ar    
   41   19   21 ar    
@<TRIPOS>SUBSTRUCTURE
      1 ****           1
@<TRIPOS>COMMENT
> <Gold.Version>
2022.2.0

> <Gold.Id.Protein>
3pbl|protein|mol2

> <Gold.Protein.RotatedTorsions>
[ 1303 1298 1297 1294 ] final  -67.98 input  179.99 | X-H torsion
[ 2461 2456 2455 2452 ] final  168.54 input   30.03 | X-H torsion
[ 2515 2510 2509 2506 ] final  -29.45 input  -89.99 | X-H torsion
[ 3721 3712 3711 3710 ] final -146.46 input -179.91 | X-H torsion
[ 3841 3832 3831 3830 ] final   -2.18 input -179.91 | X-H torsion
[ 3767 3762 3761 3758 ] final    1.61 input  -89.99 | X-H torsion
[ 2472 2467 2466 2463 ] final  -83.82 input  -89.97 | X-H torsion

> <Gold.Protein.ActiveResidues>
 VAL82   VAL86   LEU89   PHE106  VAL107  ASP110  VAL111  MET112  CYS114  THR115 
 CYS181  SER182  ILE183  PHE188  VAL189  ILE190  SER192  SER193  SER196  TRP342 
 PHE345  PHE346  HIS349  VAL350  TYR365  THR369  GLY372  TYR373 

> <Gold.Protein.RotatedAtoms>
    3.5725   -8.8684    3.7872 H   0  0  0  0  0  0  0  0  0  0  0  0  # atno 1303 bound_to 1298
    1.6240   -9.1444    8.3892 H   0  0  0  0  0  0  0  0  0  0  0  0  # atno 2461 bound_to 2456
   -3.9631   -5.3154    9.2420 H   0  0  0  0  0  0  0  0  0  0  0  0  # atno 2472 bound_to 2467
    2.7179   -8.0146    4.3854 H   0  0  0  0  0  0  0  0  0  0  0  0  # atno 2515 bound_to 2510
   -3.3189  -16.5359   14.0413 H   0  0  0  0  0  0  0  0  0  0  0  0  # atno 3721 bound_to 3712
   -5.3084  -22.7365   10.1375 H   0  0  0  0  0  0  0  0  0  0  0  0  # atno 3767 bound_to 3762
    1.7184  -20.4617    9.5475 H   0  0  0  0  0  0  0  0  0  0  0  0  # atno 3841 bound_to 3832
    4.8891   -8.9834    4.7461 LP  0  0  0  0  0  0  0  0  0  0  0  0  # atno 4297 bound_to 1298
    3.9008  -10.2697    4.5585 LP  0  0  0  0  0  0  0  0  0  0  0  0  # atno 4298 bound_to 1298
    1.7789   -7.9674    7.2674 LP  0  0  0  0  0  0  0  0  0  0  0  0  # atno 4299 bound_to 2456
    0.3350   -8.6965    7.4918 LP  0  0  0  0  0  0  0  0  0  0  0  0  # atno 4300 bound_to 2456
    2.5363   -9.2442    5.4440 LP  0  0  0  0  0  0  0  0  0  0  0  0  # atno 4301 bound_to 2510
    2.0424   -7.7406    5.8463 LP  0  0  0  0  0  0  0  0  0  0  0  0  # atno 4302 bound_to 2510
   -2.9707  -17.7280   13.0238 LP  0  0  0  0  0  0  0  0  0  0  0  0  # atno 4306 bound_to 3712
   -2.7253  -17.9073   14.6283 LP  0  0  0  0  0  0  0  0  0  0  0  0  # atno 4307 bound_to 3712
    2.1775  -19.6609    8.2345 LP  0  0  0  0  0  0  0  0  0  0  0  0  # atno 4314 bound_to 3832
    3.0669  -20.9080    8.8003 LP  0  0  0  0  0  0  0  0  0  0  0  0  # atno 4315 bound_to 3832
   -4.8712  -21.9616   11.5069 LP  0  0  0  0  0  0  0  0  0  0  0  0  # atno 4318 bound_to 3762
   -3.9480  -23.1770   10.9263 LP  0  0  0  0  0  0  0  0  0  0  0  0  # atno 4319 bound_to 3762
   -5.4943   -5.2790    8.6759 LP  0  0  0  0  0  0  0  0  0  0  0  0  # atno 4320 bound_to 2467
   -4.2593   -4.7992    7.7214 LP  0  0  0  0  0  0  0  0  0  0  0  0  # atno 4321 bound_to 2467

> <Gold.Score>
     Score     S(PLP)   S(hbond)     S(cho)   S(metal)  DE(clash)   DE(tors)     intcor
     49.29     -48.45       1.00       0.00       0.00       4.05       1.35       4.58

> <Gold.PLP.Fitness>
49.2863

> <Gold.PLP.PLP>
-48.4540

> <Gold.PLP.part.hbond>
-1.0000

> <Gold.PLP.part.metal>
0.0000

> <Gold.PLP.part.buried>
-1.3672

> <Gold.PLP.part.nonpolar>
-47.2302

> <Gold.PLP.part.repulsive>
0.2592

> <Gold.PLP.ligand.clash>
4.0521

> <Gold.PLP.ligand.torsion>
1.3484

> <Gold.PLP.Chemscore.Hbond>
1.0000

> <Gold.PLP.Chemscore.CHOScore>
0.0000

> <Gold.PLP.Chemscore.Metal>
0.0000

> <Gold.Chemscore.Hbonds>
donor molecule, donor type, donor heavy atom, donor atom, acceptor molecule, acceptor atom, score
      P1  H  3832  3841       L1    20  1.00

> <Gold.PLP.Chemscore.Internal.Correction>
4.5812

