#       Name:                EN300-246579_i001
#       Creating user name   fsindt
#       Creation time:       Wed Mar  1 10:42:08 2023


#       File generated by GOLD software.
#

@<TRIPOS>MOLECULE
EN300-246579_i001|acide_1|mol2|7898|dock12
    40    41     1
SMALL
USER_CHARGES


@<TRIPOS>ATOM
      1 C1          -2.1172 -10.6791   9.9396 C.3            1 <1>                0.0000
      2 C2          -0.9703 -10.8816  10.9317 C.3            1 <1>                0.0000
      3 C3          -0.1790  -9.5793  11.0693 C.3            1 <1>                0.0000
      4 C4          -1.5395 -11.2790  12.2950 C.3            1 <1>                0.0000
      5 O5          -0.0925 -11.9325  10.4487 O.3            1 <1>                0.0000
      6 C6           0.2933 -11.8629   9.1606 C.2            1 <1>                0.0000
      7 O7           0.2672 -10.7984   8.5753 O.2            1 <1>                0.0000
      8 N8           0.7084 -12.9739   8.5205 N.am           1 <1>                0.0000
      9 C9           1.0569 -13.0617   7.0949 C.3            1 <1>                0.0000
     10 C10          1.4486 -14.5267   6.8083 C.3            1 <1>                0.0000
     11 C11          0.7558 -15.3030   7.9592 C.3            1 <1>                0.0000
     12 C12          0.8944 -14.3009   9.1351 C.3            1 <1>                0.0000
     13 C13         -0.1923 -14.5546  10.1820 C.3            1 <1>                0.0000
     14 N14          0.2541 -15.6003  11.1057 N.pl3          1 <1>                0.0000
     15 C15         -0.4059 -16.7334  11.4136 C.2            1 <1>                0.0000
     16 C16          0.3801 -17.4162  12.3164 C.2            1 <1>                0.0000
     17 N17          1.4921 -16.6918  12.5378 N.2            1 <1>                0.0000
     18 N18          1.4522 -15.6153  11.8330 N.2            1 <1>                0.0000
     19 C19          0.0587 -18.7132  12.9323 C.2            1 <1>                0.0000
     20 O20         -1.0726 -19.1702  12.8408 O.co2          1 <1>                0.0000
     21 O21          0.9225 -19.3346  13.5359 O.co2          1 <1>               -1.0000
     22 H22         -1.7117 -10.3959   8.9683 H              1 <1>                0.0000
     23 H23         -2.6809 -11.6068   9.8415 H              1 <1>                0.0000
     24 H24         -2.7762  -9.8901  10.3021 H              1 <1>                0.0000
     25 H25         -0.8381  -8.7904  11.4319 H              1 <1>                0.0000
     26 H26          0.6380  -9.7236  11.7762 H              1 <1>                0.0000
     27 H27          0.2265  -9.2961  10.0980 H              1 <1>                0.0000
     28 H28         -2.1032 -12.2068  12.1970 H              1 <1>                0.0000
     29 H29         -0.7224 -11.4233  13.0020 H              1 <1>                0.0000
     30 H30         -2.1985 -10.4901  12.6577 H              1 <1>                0.0000
     31 H31          0.1978 -12.7817   6.4853 H              1 <1>                0.0000
     32 H32          1.8984 -12.4038   6.8777 H              1 <1>                0.0000
     33 H33          1.0630 -14.8467   5.8403 H              1 <1>                0.0000
     34 H34          2.5303 -14.6527   6.8546 H              1 <1>                0.0000
     35 H35         -0.2917 -15.4947   7.7262 H              1 <1>                0.0000
     36 H36          1.2825 -16.2325   8.1760 H              1 <1>                0.0000
     37 H37          1.8832 -14.3804   9.5869 H              1 <1>                0.0000
     38 H38         -0.3832 -13.6364  10.7374 H              1 <1>                0.0000
     39 H39         -1.1077 -14.8755   9.6849 H              1 <1>                0.0000
     40 H40         -1.3651 -17.0461  11.0279 H              1 <1>                0.0000
@<TRIPOS>BOND
    1    1    2 1     
    2    1   22 1     
    3    1   23 1     
    4    1   24 1     
    5    2    3 1     
    6    2    4 1     
    7    2    5 1     
    8    3   25 1     
    9    3   26 1     
   10    3   27 1     
   11    4   28 1     
   12    4   29 1     
   13    4   30 1     
   14    5    6 1     
   15    6    7 2     
   16    6    8 am    
   17    8    9 1     
   18    8   12 1     
   19    9   10 1     
   20    9   31 1     
   21    9   32 1     
   22   10   11 1     
   23   10   33 1     
   24   10   34 1     
   25   11   12 1     
   26   11   35 1     
   27   11   36 1     
   28   12   13 1     
   29   12   37 1     
   30   13   14 1     
   31   13   38 1     
   32   13   39 1     
   33   14   15 1     
   34   14   18 1     
   35   15   16 2     
   36   15   40 1     
   37   16   17 1     
   38   16   19 1     
   39   17   18 2     
   40   19   20 ar    
   41   19   21 ar    
@<TRIPOS>SUBSTRUCTURE
      1 ****           1
@<TRIPOS>COMMENT
> <Gold.Version>
2022.2.0

> <Gold.Id.Protein>
3pbl|protein|mol2

> <Gold.Protein.RotatedTorsions>
[ 1303 1298 1297 1294 ] final   51.43 input  179.99 | X-H torsion
[ 2461 2456 2455 2452 ] final -149.99 input   30.03 | X-H torsion
[ 2515 2510 2509 2506 ] final   86.53 input  -89.99 | X-H torsion
[ 3721 3712 3711 3710 ] final   52.13 input -179.91 | X-H torsion
[ 3841 3832 3831 3830 ] final -151.27 input -179.91 | X-H torsion
[ 3767 3762 3761 3758 ] final   23.83 input  -89.99 | X-H torsion
[ 2472 2467 2466 2463 ] final -170.17 input  -89.97 | X-H torsion

> <Gold.Protein.ActiveResidues>
 VAL82   VAL86   LEU89   PHE106  VAL107  ASP110  VAL111  MET112  CYS114  THR115 
 CYS181  SER182  ILE183  PHE188  VAL189  ILE190  SER192  SER193  SER196  TRP342 
 PHE345  PHE346  HIS349  VAL350  TYR365  THR369  GLY372  TYR373 

> <Gold.Protein.RotatedAtoms>
    3.8926  -10.2686    4.5530 H   0  0  0  0  0  0  0  0  0  0  0  0  # atno 1303 bound_to 1298
    0.9770   -9.2874    8.3062 H   0  0  0  0  0  0  0  0  0  0  0  0  # atno 2461 bound_to 2456
   -5.2450   -5.4199    9.1406 H   0  0  0  0  0  0  0  0  0  0  0  0  # atno 2472 bound_to 2467
    2.0510   -7.6924    5.8017 H   0  0  0  0  0  0  0  0  0  0  0  0  # atno 2515 bound_to 2510
   -2.5530  -17.9591   13.4840 H   0  0  0  0  0  0  0  0  0  0  0  0  # atno 3721 bound_to 3712
   -5.0623  -22.9935   10.0642 H   0  0  0  0  0  0  0  0  0  0  0  0  # atno 3767 bound_to 3762
    2.6447  -19.7629    8.3483 H   0  0  0  0  0  0  0  0  0  0  0  0  # atno 3841 bound_to 3832
    3.5786   -8.8607    3.7878 LP  0  0  0  0  0  0  0  0  0  0  0  0  # atno 4297 bound_to 1298
    4.8910   -8.9917    4.7507 LP  0  0  0  0  0  0  0  0  0  0  0  0  # atno 4298 bound_to 1298
    2.1381   -8.2979    7.7229 LP  0  0  0  0  0  0  0  0  0  0  0  0  # atno 4299 bound_to 2456
    0.6226   -8.2231    7.1192 LP  0  0  0  0  0  0  0  0  0  0  0  0  # atno 4300 bound_to 2456
    2.7372   -8.0761    4.3707 LP  0  0  0  0  0  0  0  0  0  0  0  0  # atno 4301 bound_to 2510
    2.5087   -9.2309    5.5026 LP  0  0  0  0  0  0  0  0  0  0  0  0  # atno 4302 bound_to 2510
   -3.0492  -17.3054   14.8640 LP  0  0  0  0  0  0  0  0  0  0  0  0  # atno 4306 bound_to 3712
   -3.5310  -16.6868   13.4316 LP  0  0  0  0  0  0  0  0  0  0  0  0  # atno 4307 bound_to 3712
    2.7735  -21.1294    9.1803 LP  0  0  0  0  0  0  0  0  0  0  0  0  # atno 4314 bound_to 3832
    1.4009  -20.2467    9.2399 LP  0  0  0  0  0  0  0  0  0  0  0  0  # atno 4315 bound_to 3832
   -5.1562  -21.9148   11.2866 LP  0  0  0  0  0  0  0  0  0  0  0  0  # atno 4318 bound_to 3762
   -3.9090  -22.9668   11.2200 LP  0  0  0  0  0  0  0  0  0  0  0  0  # atno 4319 bound_to 3762
   -4.8019   -4.8434    7.6785 LP  0  0  0  0  0  0  0  0  0  0  0  0  # atno 4320 bound_to 2467
   -3.6702   -5.1304    8.8202 LP  0  0  0  0  0  0  0  0  0  0  0  0  # atno 4321 bound_to 2467

> <Gold.Score>
     Score     S(PLP)   S(hbond)     S(cho)   S(metal)  DE(clash)   DE(tors)     intcor
     53.28     -48.29       2.00       0.00       0.00       4.02       0.79       4.58

> <Gold.PLP.Fitness>
53.2791

> <Gold.PLP.PLP>
-48.2934

> <Gold.PLP.part.hbond>
-2.0000

> <Gold.PLP.part.metal>
0.0000

> <Gold.PLP.part.buried>
-4.6239

> <Gold.PLP.part.nonpolar>
-43.0646

> <Gold.PLP.part.repulsive>
0.2075

> <Gold.PLP.ligand.clash>
4.0170

> <Gold.PLP.ligand.torsion>
0.7893

> <Gold.PLP.Chemscore.Hbond>
2.0000

> <Gold.PLP.Chemscore.CHOScore>
0.0000

> <Gold.PLP.Chemscore.Metal>
0.0000

> <Gold.Chemscore.Hbonds>
donor molecule, donor type, donor heavy atom, donor atom, acceptor molecule, acceptor atom, score
      P1  H  2456  2461       L1     7  1.00
      P1  H  3712  3721       L1    20  1.00

> <Gold.PLP.Chemscore.Internal.Correction>
4.5812

