#       Name:                EN300-246579_i001
#       Creating user name   fsindt
#       Creation time:       Wed Mar  1 10:42:00 2023


#       File generated by GOLD software.
#

@<TRIPOS>MOLECULE
EN300-246579_i001|acide_1|mol2|7898|dock6
    40    41     1
SMALL
USER_CHARGES


@<TRIPOS>ATOM
      1 C1          -2.1912  -9.9213  10.3370 C.3            1 <1>                0.0000
      2 C2          -0.9903 -10.5512  11.0453 C.3            1 <1>                0.0000
      3 C3           0.2002  -9.5921  10.9814 C.3            1 <1>                0.0000
      4 C4          -1.3467 -10.8249  12.5078 C.3            1 <1>                0.0000
      5 O5          -0.6419 -11.7993  10.3902 O.3            1 <1>                0.0000
      6 C6          -0.1832 -11.7193   9.1269 C.2            1 <1>                0.0000
      7 O7          -0.2927 -10.6809   8.5054 O.2            1 <1>                0.0000
      8 N8           0.3975 -12.7909   8.5517 N.am           1 <1>                0.0000
      9 C9           0.8464 -12.8751   7.1542 C.3            1 <1>                0.0000
     10 C10          1.4213 -14.2916   6.9423 C.3            1 <1>                0.0000
     11 C11          0.7481 -15.1127   8.0736 C.3            1 <1>                0.0000
     12 C12          0.6937 -14.0704   9.2213 C.3            1 <1>                0.0000
     13 C13         -0.4229 -14.4213  10.2068 C.3            1 <1>                0.0000
     14 N14          0.0392 -15.4750  11.1135 N.pl3          1 <1>                0.0000
     15 C15          0.7246 -15.3024  12.2602 C.2            1 <1>                0.0000
     16 C16          0.9466 -16.5587  12.7813 C.2            1 <1>                0.0000
     17 N17          0.3972 -17.4620  11.9492 N.2            1 <1>                0.0000
     18 N18         -0.1526 -16.8545  10.9563 N.2            1 <1>                0.0000
     19 C19          1.6614 -16.8603  14.0315 C.2            1 <1>                0.0000
     20 O20          2.0854 -15.9487  14.7288 O.co2          1 <1>                0.0000
     21 O21          1.8318 -18.0224  14.3736 O.co2          1 <1>               -1.0000
     22 H22         -1.9373  -9.7262   9.2951 H              1 <1>                0.0000
     23 H23         -3.0393 -10.6045  10.3825 H              1 <1>                0.0000
     24 H24         -2.4528  -8.9843  10.8287 H              1 <1>                0.0000
     25 H25         -0.0614  -8.6552  11.4733 H              1 <1>                0.0000
     26 H26          1.0557 -10.0408  11.4861 H              1 <1>                0.0000
     27 H27          0.4541  -9.3970   9.9396 H              1 <1>                0.0000
     28 H28         -2.1948 -11.5083  12.5533 H              1 <1>                0.0000
     29 H29         -0.4911 -11.2737  13.0125 H              1 <1>                0.0000
     30 H30         -1.6082  -9.8880  12.9996 H              1 <1>                0.0000
     31 H31          0.0026 -12.7134   6.4834 H              1 <1>                0.0000
     32 H32          1.6193 -12.1296   6.9675 H              1 <1>                0.0000
     33 H33          1.1390 -14.6798   5.9636 H              1 <1>                0.0000
     34 H34          2.5049 -14.2895   7.0597 H              1 <1>                0.0000
     35 H35         -0.2529 -15.4312   7.7828 H              1 <1>                0.0000
     36 H36          1.3626 -15.9683   8.3540 H              1 <1>                0.0000
     37 H37          1.6535 -14.0222   9.7358 H              1 <1>                0.0000
     38 H38         -0.6894 -13.5361  10.7842 H              1 <1>                0.0000
     39 H39         -1.2959 -14.7725   9.6566 H              1 <1>                0.0000
     40 H40          1.0392 -14.3620  12.6882 H              1 <1>                0.0000
@<TRIPOS>BOND
    1    1    2 1     
    2    1   22 1     
    3    1   23 1     
    4    1   24 1     
    5    2    3 1     
    6    2    4 1     
    7    2    5 1     
    8    3   25 1     
    9    3   26 1     
   10    3   27 1     
   11    4   28 1     
   12    4   29 1     
   13    4   30 1     
   14    5    6 1     
   15    6    7 2     
   16    6    8 am    
   17    8    9 1     
   18    8   12 1     
   19    9   10 1     
   20    9   31 1     
   21    9   32 1     
   22   10   11 1     
   23   10   33 1     
   24   10   34 1     
   25   11   12 1     
   26   11   35 1     
   27   11   36 1     
   28   12   13 1     
   29   12   37 1     
   30   13   14 1     
   31   13   38 1     
   32   13   39 1     
   33   14   15 1     
   34   14   18 1     
   35   15   16 2     
   36   15   40 1     
   37   16   17 1     
   38   16   19 1     
   39   17   18 2     
   40   19   20 ar    
   41   19   21 ar    
@<TRIPOS>SUBSTRUCTURE
      1 ****           1
@<TRIPOS>COMMENT
> <Gold.Version>
2022.2.0

> <Gold.Id.Protein>
3pbl|protein|mol2

> <Gold.Protein.RotatedTorsions>
[ 1303 1298 1297 1294 ] final   50.01 input  179.99 | X-H torsion
[ 2461 2456 2455 2452 ] final -108.03 input   30.03 | X-H torsion
[ 2515 2510 2509 2506 ] final  -62.87 input  -89.99 | X-H torsion
[ 3721 3712 3711 3710 ] final   68.23 input -179.91 | X-H torsion
[ 3841 3832 3831 3830 ] final  142.02 input -179.91 | X-H torsion
[ 3767 3762 3761 3758 ] final   40.50 input  -89.99 | X-H torsion
[ 2472 2467 2466 2463 ] final -139.83 input  -89.97 | X-H torsion

> <Gold.Protein.ActiveResidues>
 VAL82   VAL86   LEU89   PHE106  VAL107  ASP110  VAL111  MET112  CYS114  THR115 
 CYS181  SER182  ILE183  PHE188  VAL189  ILE190  SER192  SER193  SER196  TRP342 
 PHE345  PHE346  HIS349  VAL350  TYR365  THR369  GLY372  TYR373 

> <Gold.Protein.RotatedAtoms>
    3.8740  -10.2665    4.5392 H   0  0  0  0  0  0  0  0  0  0  0  0  # atno 1303 bound_to 1298
    0.4608   -9.0830    7.9218 H   0  0  0  0  0  0  0  0  0  0  0  0  # atno 2461 bound_to 2456
   -4.8228   -5.4641    9.3921 H   0  0  0  0  0  0  0  0  0  0  0  0  # atno 2472 bound_to 2467
    2.8277   -8.5452    4.3964 H   0  0  0  0  0  0  0  0  0  0  0  0  # atno 2515 bound_to 2510
   -2.6376  -17.8416   13.2895 H   0  0  0  0  0  0  0  0  0  0  0  0  # atno 3721 bound_to 3712
   -4.8408  -23.1524   10.0865 H   0  0  0  0  0  0  0  0  0  0  0  0  # atno 3767 bound_to 3762
    3.1332  -20.4983    8.7042 H   0  0  0  0  0  0  0  0  0  0  0  0  # atno 3841 bound_to 3832
    3.5930   -8.8426    3.7908 LP  0  0  0  0  0  0  0  0  0  0  0  0  # atno 4297 bound_to 1298
    4.8953   -9.0119    4.7615 LP  0  0  0  0  0  0  0  0  0  0  0  0  # atno 4298 bound_to 1298
    2.0462   -8.7868    8.1793 LP  0  0  0  0  0  0  0  0  0  0  0  0  # atno 4299 bound_to 2456
    1.2305   -7.9385    7.0471 LP  0  0  0  0  0  0  0  0  0  0  0  0  # atno 4300 bound_to 2456
    2.3042   -9.0064    5.8725 LP  0  0  0  0  0  0  0  0  0  0  0  0  # atno 4301 bound_to 2510
    2.1646   -7.4475    5.4068 LP  0  0  0  0  0  0  0  0  0  0  0  0  # atno 4302 bound_to 2510
   -2.9180  -17.5380   14.8409 LP  0  0  0  0  0  0  0  0  0  0  0  0  # atno 4306 bound_to 3712
   -3.5645  -16.5899   13.6792 LP  0  0  0  0  0  0  0  0  0  0  0  0  # atno 4307 bound_to 3712
    1.8187  -20.8757    9.5443 LP  0  0  0  0  0  0  0  0  0  0  0  0  # atno 4314 bound_to 3832
    1.7914  -19.6509    8.4646 LP  0  0  0  0  0  0  0  0  0  0  0  0  # atno 4315 bound_to 3832
   -5.3285  -21.9492   11.0771 LP  0  0  0  0  0  0  0  0  0  0  0  0  # atno 4318 bound_to 3762
   -3.9581  -22.7737   11.4072 LP  0  0  0  0  0  0  0  0  0  0  0  0  # atno 4319 bound_to 3762
   -5.2297   -4.9670    7.8909 LP  0  0  0  0  0  0  0  0  0  0  0  0  # atno 4320 bound_to 2467
   -3.6644   -4.9625    8.3563 LP  0  0  0  0  0  0  0  0  0  0  0  0  # atno 4321 bound_to 2467

> <Gold.Score>
     Score     S(PLP)   S(hbond)     S(cho)   S(metal)  DE(clash)   DE(tors)     intcor
     54.36     -50.51       1.62       0.00       0.00       4.20       0.70       4.58

> <Gold.PLP.Fitness>
54.3649

> <Gold.PLP.PLP>
-50.5058

> <Gold.PLP.part.hbond>
-2.0000

> <Gold.PLP.part.metal>
0.0000

> <Gold.PLP.part.buried>
-6.7297

> <Gold.PLP.part.nonpolar>
-43.4368

> <Gold.PLP.part.repulsive>
0.3148

> <Gold.PLP.ligand.clash>
4.2037

> <Gold.PLP.ligand.torsion>
0.6952

> <Gold.PLP.Chemscore.Hbond>
1.6240

> <Gold.PLP.Chemscore.CHOScore>
0.0000

> <Gold.PLP.Chemscore.Metal>
0.0000

> <Gold.Chemscore.Hbonds>
donor molecule, donor type, donor heavy atom, donor atom, acceptor molecule, acceptor atom, score
      P1  H  2456  2461       L1     7  1.00
      P1  H  2305  2313       L1    20  0.62

> <Gold.PLP.Chemscore.Internal.Correction>
4.5812

