#       Name:                EN300-246579_i001
#       Creating user name   fsindt
#       Creation time:       Wed Mar  1 10:41:58 2023


#       File generated by GOLD software.
#

@<TRIPOS>MOLECULE
EN300-246579_i001|acide_1|mol2|7898|dock4
    40    41     1
SMALL
USER_CHARGES


@<TRIPOS>ATOM
      1 C1           1.3978 -19.8803  14.0982 C.3            1 <1>                0.0000
      2 C2           0.0341 -20.5562  13.9424 C.3            1 <1>                0.0000
      3 C3           0.2013 -22.0732  14.0514 C.3            1 <1>                0.0000
      4 C4          -0.9068 -20.0664  15.0449 C.3            1 <1>                0.0000
      5 O5          -0.5257 -20.2230  12.6448 O.3            1 <1>                0.0000
      6 C6          -0.5727 -18.9182  12.3161 C.2            1 <1>                0.0000
      7 O7          -0.4838 -18.0701  13.1817 O.2            1 <1>                0.0000
      8 N8          -0.7182 -18.5528  11.0270 N.am           1 <1>                0.0000
      9 C9          -0.7339 -19.4653   9.8743 C.3            1 <1>                0.0000
     10 C10         -0.8973 -18.5998   8.6071 C.3            1 <1>                0.0000
     11 C11         -0.3968 -17.2064   9.0710 C.3            1 <1>                0.0000
     12 C12         -0.8947 -17.1727  10.5399 C.3            1 <1>                0.0000
     13 C13         -0.0441 -16.2077  11.3684 C.3            1 <1>                0.0000
     14 N14          0.0074 -14.9051  10.7003 N.pl3          1 <1>                0.0000
     15 C15         -0.5426 -13.7565  11.1392 C.2            1 <1>                0.0000
     16 C16         -0.2470 -12.7921  10.2001 C.2            1 <1>                0.0000
     17 N17          0.4700 -13.3677   9.2179 N.2            1 <1>                0.0000
     18 N18          0.6435 -14.6149   9.4855 N.2            1 <1>                0.0000
     19 C19         -0.6469 -11.3775  10.2608 C.2            1 <1>                0.0000
     20 O20         -0.3352 -10.6144   9.3566 O.co2          1 <1>                0.0000
     21 O21         -1.2911 -10.9643  11.2153 O.co2          1 <1>               -1.0000
     22 H22          2.0682 -20.2293  13.3129 H              1 <1>                0.0000
     23 H23          1.2787 -18.7997  14.0206 H              1 <1>                0.0000
     24 H24          1.8182 -20.1305  15.0723 H              1 <1>                0.0000
     25 H25          0.6216 -22.3233  15.0255 H              1 <1>                0.0000
     26 H26         -0.7702 -22.5547  13.9404 H              1 <1>                0.0000
     27 H27          0.8717 -22.4222  13.2660 H              1 <1>                0.0000
     28 H28         -1.0260 -18.9857  14.9672 H              1 <1>                0.0000
     29 H29         -1.8784 -20.5479  14.9339 H              1 <1>                0.0000
     30 H30         -0.4866 -20.3165  16.0190 H              1 <1>                0.0000
     31 H31          0.2040 -20.0187   9.8268 H              1 <1>                0.0000
     32 H32         -1.5713 -20.1576   9.9608 H              1 <1>                0.0000
     33 H33         -0.2771 -18.9821   7.7963 H              1 <1>                0.0000
     34 H34         -1.9434 -18.5527   8.3045 H              1 <1>                0.0000
     35 H35          0.6904 -17.1454   9.0220 H              1 <1>                0.0000
     36 H36         -0.8579 -16.4108   8.4856 H              1 <1>                0.0000
     37 H37         -1.9447 -16.8825  10.5780 H              1 <1>                0.0000
     38 H38         -0.4863 -16.0914  12.3579 H              1 <1>                0.0000
     39 H39          0.9658 -16.6060  11.4664 H              1 <1>                0.0000
     40 H40         -1.1060 -13.6181  12.0502 H              1 <1>                0.0000
@<TRIPOS>BOND
    1    1    2 1     
    2    1   22 1     
    3    1   23 1     
    4    1   24 1     
    5    2    3 1     
    6    2    4 1     
    7    2    5 1     
    8    3   25 1     
    9    3   26 1     
   10    3   27 1     
   11    4   28 1     
   12    4   29 1     
   13    4   30 1     
   14    5    6 1     
   15    6    7 2     
   16    6    8 am    
   17    8    9 1     
   18    8   12 1     
   19    9   10 1     
   20    9   31 1     
   21    9   32 1     
   22   10   11 1     
   23   10   33 1     
   24   10   34 1     
   25   11   12 1     
   26   11   35 1     
   27   11   36 1     
   28   12   13 1     
   29   12   37 1     
   30   13   14 1     
   31   13   38 1     
   32   13   39 1     
   33   14   15 1     
   34   14   18 1     
   35   15   16 2     
   36   15   40 1     
   37   16   17 1     
   38   16   19 1     
   39   17   18 2     
   40   19   20 ar    
   41   19   21 ar    
@<TRIPOS>SUBSTRUCTURE
      1 ****           1
@<TRIPOS>COMMENT
> <Gold.Version>
2022.2.0

> <Gold.Id.Protein>
3pbl|protein|mol2

> <Gold.Protein.RotatedTorsions>
[ 1303 1298 1297 1294 ] final  103.21 input  179.99 | X-H torsion
[ 2461 2456 2455 2452 ] final -132.79 input   30.03 | X-H torsion
[ 2515 2510 2509 2506 ] final -100.90 input  -89.99 | X-H torsion
[ 3721 3712 3711 3710 ] final   27.48 input -179.91 | X-H torsion
[ 3841 3832 3831 3830 ] final  -37.70 input -179.91 | X-H torsion
[ 3767 3762 3761 3758 ] final   13.42 input  -89.99 | X-H torsion
[ 2472 2467 2466 2463 ] final  -84.96 input  -89.97 | X-H torsion

> <Gold.Protein.ActiveResidues>
 VAL82   VAL86   LEU89   PHE106  VAL107  ASP110  VAL111  MET112  CYS114  THR115 
 CYS181  SER182  ILE183  PHE188  VAL189  ILE190  SER192  SER193  SER196  TRP342 
 PHE345  PHE346  HIS349  VAL350  TYR365  THR369  GLY372  TYR373 

> <Gold.Protein.RotatedAtoms>
    4.5747   -9.9868    4.9176 H   0  0  0  0  0  0  0  0  0  0  0  0  # atno 1303 bound_to 1298
    0.7303   -9.2440    8.1767 H   0  0  0  0  0  0  0  0  0  0  0  0  # atno 2461 bound_to 2456
   -3.9774   -5.3208    9.2528 H   0  0  0  0  0  0  0  0  0  0  0  0  # atno 2472 bound_to 2467
    2.7934   -9.0545    4.7380 H   0  0  0  0  0  0  0  0  0  0  0  0  # atno 2515 bound_to 2510
   -2.4784  -18.0342   13.8384 H   0  0  0  0  0  0  0  0  0  0  0  0  # atno 3721 bound_to 3712
   -5.1866  -22.8778   10.0842 H   0  0  0  0  0  0  0  0  0  0  0  0  # atno 3767 bound_to 3762
    1.5615  -20.0417    9.2686 H   0  0  0  0  0  0  0  0  0  0  0  0  # atno 3841 bound_to 3832
    3.3326   -9.6356    3.9175 LP  0  0  0  0  0  0  0  0  0  0  0  0  # atno 4297 bound_to 1298
    4.4548   -8.4987    4.2562 LP  0  0  0  0  0  0  0  0  0  0  0  0  # atno 4298 bound_to 1298
    2.1587   -8.4931    7.9252 LP  0  0  0  0  0  0  0  0  0  0  0  0  # atno 4299 bound_to 2456
    0.8486   -8.0712    7.0463 LP  0  0  0  0  0  0  0  0  0  0  0  0  # atno 4300 bound_to 2456
    2.0955   -8.4728    6.0946 LP  0  0  0  0  0  0  0  0  0  0  0  0  # atno 4301 bound_to 2510
    2.4076   -7.4715    4.8429 LP  0  0  0  0  0  0  0  0  0  0  0  0  # atno 4302 bound_to 2510
   -3.2524  -16.9676   14.7555 LP  0  0  0  0  0  0  0  0  0  0  0  0  # atno 4306 bound_to 3712
   -3.4139  -16.9379   13.1308 LP  0  0  0  0  0  0  0  0  0  0  0  0  # atno 4307 bound_to 3712
    2.6955  -19.9136    8.1400 LP  0  0  0  0  0  0  0  0  0  0  0  0  # atno 4314 bound_to 3832
    2.7302  -21.1405    9.2170 LP  0  0  0  0  0  0  0  0  0  0  0  0  # atno 4315 bound_to 3832
   -5.0285  -21.9237   11.4000 LP  0  0  0  0  0  0  0  0  0  0  0  0  # atno 4318 bound_to 3762
   -3.9124  -23.0737   11.0866 LP  0  0  0  0  0  0  0  0  0  0  0  0  # atno 4319 bound_to 3762
   -5.4976   -5.2731    8.6585 LP  0  0  0  0  0  0  0  0  0  0  0  0  # atno 4320 bound_to 2467
   -4.2419   -4.7996    7.7280 LP  0  0  0  0  0  0  0  0  0  0  0  0  # atno 4321 bound_to 2467

> <Gold.Score>
     Score     S(PLP)   S(hbond)     S(cho)   S(metal)  DE(clash)   DE(tors)     intcor
     47.04     -41.46       1.98       0.00       0.00       4.05       0.44       4.58

> <Gold.PLP.Fitness>
47.0416

> <Gold.PLP.PLP>
-41.4568

> <Gold.PLP.part.hbond>
-2.0000

> <Gold.PLP.part.metal>
0.0000

> <Gold.PLP.part.buried>
-5.6072

> <Gold.PLP.part.nonpolar>
-34.8421

> <Gold.PLP.part.repulsive>
0.1230

> <Gold.PLP.ligand.clash>
4.0521

> <Gold.PLP.ligand.torsion>
0.4362

> <Gold.PLP.Chemscore.Hbond>
1.9760

> <Gold.PLP.Chemscore.CHOScore>
0.0000

> <Gold.PLP.Chemscore.Metal>
0.0000

> <Gold.Chemscore.Hbonds>
donor molecule, donor type, donor heavy atom, donor atom, acceptor molecule, acceptor atom, score
      P1  H  2456  2461       L1    20  1.00
      P1  H  3712  3721       L1     7  0.98

> <Gold.PLP.Chemscore.Internal.Correction>
4.5812

