#       Name:                EN300-246579_i001
#       Creating user name   fsindt
#       Creation time:       Wed Mar  1 10:42:17 2023


#       File generated by GOLD software.
#

@<TRIPOS>MOLECULE
EN300-246579_i001|acide_1|mol2|7898|dock18
    40    41     1
SMALL
USER_CHARGES


@<TRIPOS>ATOM
      1 C1           1.7308 -18.7214  14.1617 C.3            1 <1>                0.0000
      2 C2           0.3536 -19.3800  14.2645 C.3            1 <1>                0.0000
      3 C3           0.5216 -20.8638  14.5978 C.3            1 <1>                0.0000
      4 C4          -0.4568 -18.6979  15.3683 C.3            1 <1>                0.0000
      5 O5          -0.3434 -19.2444  12.9980 O.3            1 <1>                0.0000
      6 C6          -0.3574 -18.0210  12.4359 C.2            1 <1>                0.0000
      7 O7          -0.1802 -17.0346  13.1230 O.2            1 <1>                0.0000
      8 N8          -0.5679 -17.8905  11.1111 N.am           1 <1>                0.0000
      9 C9          -0.6926 -18.9963  10.1502 C.3            1 <1>                0.0000
     10 C10         -0.8991 -18.3698   8.7550 C.3            1 <1>                0.0000
     11 C11         -0.3142 -16.9428   8.9248 C.3            1 <1>                0.0000
     12 C12         -0.7178 -16.6154  10.3864 C.3            1 <1>                0.0000
     13 C13          0.2215 -15.5605  10.9747 C.3            1 <1>                0.0000
     14 N14          0.0714 -14.3056  10.2340 N.pl3          1 <1>                0.0000
     15 C15          0.6299 -14.0040   9.0459 C.2            1 <1>                0.0000
     16 C16          0.2201 -12.7269   8.7290 C.2            1 <1>                0.0000
     17 N17         -0.5718 -12.2812   9.7211 N.2            1 <1>                0.0000
     18 N18         -0.6855 -13.1920  10.6237 N.2            1 <1>                0.0000
     19 C19          0.5860 -11.9797   7.5155 C.2            1 <1>                0.0000
     20 O20          1.1665 -12.5466   6.5997 O.co2          1 <1>                0.0000
     21 O21          0.3097 -10.7916   7.4222 O.co2          1 <1>               -1.0000
     22 H22          2.3083 -19.2073  13.3754 H              1 <1>                0.0000
     23 H23          1.6112 -17.6643  13.9243 H              1 <1>                0.0000
     24 H24          2.2541 -18.8232  15.1125 H              1 <1>                0.0000
     25 H25          1.0449 -20.9656  15.5486 H              1 <1>                0.0000
     26 H26         -0.4595 -21.3330  14.6710 H              1 <1>                0.0000
     27 H27          1.0991 -21.3498  13.8114 H              1 <1>                0.0000
     28 H28         -0.5765 -17.6408  15.1308 H              1 <1>                0.0000
     29 H29         -1.4380 -19.1671  15.4415 H              1 <1>                0.0000
     30 H30          0.0663 -18.7997  16.3191 H              1 <1>                0.0000
     31 H31          0.2171 -19.5967  10.1560 H              1 <1>                0.0000
     32 H32         -1.5506 -19.6169  10.4086 H              1 <1>                0.0000
     33 H33         -0.3467 -18.9254   7.9972 H              1 <1>                0.0000
     34 H34         -1.9592 -18.3248   8.5056 H              1 <1>                0.0000
     35 H35          0.7695 -16.9481   8.8070 H              1 <1>                0.0000
     36 H36         -0.7779 -16.2449   8.2276 H              1 <1>                0.0000
     37 H37         -1.7506 -16.2693  10.4264 H              1 <1>                0.0000
     38 H38         -0.0280 -15.3958  12.0229 H              1 <1>                0.0000
     39 H39          1.2519 -15.9075  10.8966 H              1 <1>                0.0000
     40 H40          1.2740 -14.6395   8.4562 H              1 <1>                0.0000
@<TRIPOS>BOND
    1    1    2 1     
    2    1   22 1     
    3    1   23 1     
    4    1   24 1     
    5    2    3 1     
    6    2    4 1     
    7    2    5 1     
    8    3   25 1     
    9    3   26 1     
   10    3   27 1     
   11    4   28 1     
   12    4   29 1     
   13    4   30 1     
   14    5    6 1     
   15    6    7 2     
   16    6    8 am    
   17    8    9 1     
   18    8   12 1     
   19    9   10 1     
   20    9   31 1     
   21    9   32 1     
   22   10   11 1     
   23   10   33 1     
   24   10   34 1     
   25   11   12 1     
   26   11   35 1     
   27   11   36 1     
   28   12   13 1     
   29   12   37 1     
   30   13   14 1     
   31   13   38 1     
   32   13   39 1     
   33   14   15 1     
   34   14   18 1     
   35   15   16 2     
   36   15   40 1     
   37   16   17 1     
   38   16   19 1     
   39   17   18 2     
   40   19   20 ar    
   41   19   21 ar    
@<TRIPOS>SUBSTRUCTURE
      1 ****           1
@<TRIPOS>COMMENT
> <Gold.Version>
2022.2.0

> <Gold.Id.Protein>
3pbl|protein|mol2

> <Gold.Protein.RotatedTorsions>
[ 1303 1298 1297 1294 ] final  138.31 input  179.99 | X-H torsion
[ 2461 2456 2455 2452 ] final -121.54 input   30.03 | X-H torsion
[ 2515 2510 2509 2506 ] final   42.88 input  -89.99 | X-H torsion
[ 3721 3712 3711 3710 ] final  164.70 input -179.91 | X-H torsion
[ 3841 3832 3831 3830 ] final  -36.94 input -179.91 | X-H torsion
[ 3767 3762 3761 3758 ] final -132.80 input  -89.99 | X-H torsion
[ 2472 2467 2466 2463 ] final  138.77 input  -89.97 | X-H torsion

> <Gold.Protein.ActiveResidues>
 VAL82   VAL86   LEU89   PHE106  VAL107  ASP110  VAL111  MET112  CYS114  THR115 
 CYS181  SER182  ILE183  PHE188  VAL189  ILE190  SER192  SER193  SER196  TRP342 
 PHE345  PHE346  HIS349  VAL350  TYR365  THR369  GLY372  TYR373 

> <Gold.Protein.RotatedAtoms>
    4.8646   -9.4978    4.9294 H   0  0  0  0  0  0  0  0  0  0  0  0  # atno 1303 bound_to 1298
    0.5926   -9.1842    8.0689 H   0  0  0  0  0  0  0  0  0  0  0  0  # atno 2461 bound_to 2456
   -5.5033   -5.1839    8.4069 H   0  0  0  0  0  0  0  0  0  0  0  0  # atno 2472 bound_to 2467
    2.2474   -7.4095    5.1914 H   0  0  0  0  0  0  0  0  0  0  0  0  # atno 2515 bound_to 2510
   -3.2752  -16.7193   13.3505 H   0  0  0  0  0  0  0  0  0  0  0  0  # atno 3721 bound_to 3712
   -4.6702  -22.0451   11.5995 H   0  0  0  0  0  0  0  0  0  0  0  0  # atno 3767 bound_to 3762
    1.5618  -20.0503    9.2761 H   0  0  0  0  0  0  0  0  0  0  0  0  # atno 3841 bound_to 3832
    3.5159  -10.0822    4.2182 LP  0  0  0  0  0  0  0  0  0  0  0  0  # atno 4297 bound_to 1298
    3.9814   -8.5412    3.9438 LP  0  0  0  0  0  0  0  0  0  0  0  0  # atno 4298 bound_to 1298
    2.1278   -8.6273    8.0484 LP  0  0  0  0  0  0  0  0  0  0  0  0  # atno 4299 bound_to 2456
    1.0171   -7.9968    7.0309 LP  0  0  0  0  0  0  0  0  0  0  0  0  # atno 4300 bound_to 2456
    2.8354   -8.7604    4.4877 LP  0  0  0  0  0  0  0  0  0  0  0  0  # atno 4301 bound_to 2510
    2.2139   -8.8297    5.9962 LP  0  0  0  0  0  0  0  0  0  0  0  0  # atno 4302 bound_to 2510
   -2.6598  -18.1823   13.5926 LP  0  0  0  0  0  0  0  0  0  0  0  0  # atno 4306 bound_to 3712
   -3.0866  -17.2412   14.8571 LP  0  0  0  0  0  0  0  0  0  0  0  0  # atno 4307 bound_to 3712
    2.6855  -19.9059    8.1392 LP  0  0  0  0  0  0  0  0  0  0  0  0  # atno 4314 bound_to 3832
    2.7398  -21.1383    9.2091 LP  0  0  0  0  0  0  0  0  0  0  0  0  # atno 4315 bound_to 3832
   -4.0347  -23.2710   10.7276 LP  0  0  0  0  0  0  0  0  0  0  0  0  # atno 4318 bound_to 3762
   -5.4224  -22.5588   10.2442 LP  0  0  0  0  0  0  0  0  0  0  0  0  # atno 4319 bound_to 3762
   -4.0093   -4.8205    7.8569 LP  0  0  0  0  0  0  0  0  0  0  0  0  # atno 4320 bound_to 2467
   -4.2045   -5.3892    9.3752 LP  0  0  0  0  0  0  0  0  0  0  0  0  # atno 4321 bound_to 2467

> <Gold.Score>
     Score     S(PLP)   S(hbond)     S(cho)   S(metal)  DE(clash)   DE(tors)     intcor
     46.15     -44.63       0.85       0.00       0.00       4.05       0.77       4.56

> <Gold.PLP.Fitness>
46.1454

> <Gold.PLP.PLP>
-44.6292

> <Gold.PLP.part.hbond>
-1.3449

> <Gold.PLP.part.metal>
0.0000

> <Gold.PLP.part.buried>
-6.2313

> <Gold.PLP.part.nonpolar>
-36.7959

> <Gold.PLP.part.repulsive>
0.1704

> <Gold.PLP.ligand.clash>
4.0521

> <Gold.PLP.ligand.torsion>
0.7685

> <Gold.PLP.Chemscore.Hbond>
0.8480

> <Gold.PLP.Chemscore.CHOScore>
0.0000

> <Gold.PLP.Chemscore.Metal>
0.0000

> <Gold.Chemscore.Hbonds>
donor molecule, donor type, donor heavy atom, donor atom, acceptor molecule, acceptor atom, score
      P1  H  2456  2461       L1    21  0.85

> <Gold.PLP.Chemscore.Internal.Correction>
4.5612

