#       Name:                EN300-246579_i001
#       Creating user name   fsindt
#       Creation time:       Wed Mar  1 10:42:05 2023


#       File generated by GOLD software.
#

@<TRIPOS>MOLECULE
EN300-246579_i001|acide_1|mol2|7898|dock10
    40    41     1
SMALL
USER_CHARGES


@<TRIPOS>ATOM
      1 C1           1.8548 -18.5545  14.4215 C.3            1 <1>                0.0000
      2 C2           0.4983 -19.2598  14.4774 C.3            1 <1>                0.0000
      3 C3           0.6991 -20.7197  14.8892 C.3            1 <1>                0.0000
      4 C4          -0.3985 -18.5601  15.5005 C.3            1 <1>                0.0000
      5 O5          -0.1284 -19.2080  13.1686 O.3            1 <1>                0.0000
      6 C6          -0.2178 -17.9998  12.5812 C.2            1 <1>                0.0000
      7 O7          -0.0751 -16.9906  13.2426 O.2            1 <1>                0.0000
      8 N8          -0.4656 -17.9099  11.2594 N.am           1 <1>                0.0000
      9 C9          -0.5563 -19.0419  10.3257 C.3            1 <1>                0.0000
     10 C10         -0.8270 -18.4582   8.9229 C.3            1 <1>                0.0000
     11 C11         -0.3117 -17.0001   9.0479 C.3            1 <1>                0.0000
     12 C12         -0.6971 -16.6607  10.5117 C.3            1 <1>                0.0000
     13 C13          0.2007 -15.5468  11.0542 C.3            1 <1>                0.0000
     14 N14         -0.0748 -14.3023  10.3321 N.pl3          1 <1>                0.0000
     15 C15         -0.6063 -13.1770  10.8475 C.2            1 <1>                0.0000
     16 C16         -0.6854 -12.2679   9.8148 C.2            1 <1>                0.0000
     17 N17         -0.2052 -12.8526   8.7023 N.2            1 <1>                0.0000
     18 N18          0.1700 -14.0535   8.9746 N.2            1 <1>                0.0000
     19 C19         -1.2057 -10.8951   9.9119 C.2            1 <1>                0.0000
     20 O20         -1.7794 -10.5288  10.9286 O.co2          1 <1>                0.0000
     21 O21         -1.0646 -10.1198   8.9761 O.co2          1 <1>               -1.0000
     22 H22          2.4939 -19.0530  13.6927 H              1 <1>                0.0000
     23 H23          1.7118 -17.5145  14.1282 H              1 <1>                0.0000
     24 H24          2.3254 -18.5934  15.4040 H              1 <1>                0.0000
     25 H25          1.1697 -20.7585  15.8717 H              1 <1>                0.0000
     26 H26         -0.2672 -21.2221  14.9290 H              1 <1>                0.0000
     27 H27          1.3382 -21.2182  14.1603 H              1 <1>                0.0000
     28 H28         -0.5417 -17.5201  15.2071 H              1 <1>                0.0000
     29 H29         -1.3650 -19.0626  15.5403 H              1 <1>                0.0000
     30 H30          0.0719 -18.5990  16.4830 H              1 <1>                0.0000
     31 H31          0.3827 -19.5955  10.3219 H              1 <1>                0.0000
     32 H32         -1.3752 -19.6991  10.6181 H              1 <1>                0.0000
     33 H33         -0.2648 -19.0022   8.1638 H              1 <1>                0.0000
     34 H34         -1.8935 -18.4724   8.6986 H              1 <1>                0.0000
     35 H35          0.7678 -16.9534   8.9038 H              1 <1>                0.0000
     36 H36         -0.8266 -16.3424   8.3475 H              1 <1>                0.0000
     37 H37         -1.7451 -16.3663  10.5696 H              1 <1>                0.0000
     38 H38         -0.0000 -15.4029  12.1158 H              1 <1>                0.0000
     39 H39          1.2460 -15.8231  10.9162 H              1 <1>                0.0000
     40 H40         -0.9114 -13.0181  11.8713 H              1 <1>                0.0000
@<TRIPOS>BOND
    1    1    2 1     
    2    1   22 1     
    3    1   23 1     
    4    1   24 1     
    5    2    3 1     
    6    2    4 1     
    7    2    5 1     
    8    3   25 1     
    9    3   26 1     
   10    3   27 1     
   11    4   28 1     
   12    4   29 1     
   13    4   30 1     
   14    5    6 1     
   15    6    7 2     
   16    6    8 am    
   17    8    9 1     
   18    8   12 1     
   19    9   10 1     
   20    9   31 1     
   21    9   32 1     
   22   10   11 1     
   23   10   33 1     
   24   10   34 1     
   25   11   12 1     
   26   11   35 1     
   27   11   36 1     
   28   12   13 1     
   29   12   37 1     
   30   13   14 1     
   31   13   38 1     
   32   13   39 1     
   33   14   15 1     
   34   14   18 1     
   35   15   16 2     
   36   15   40 1     
   37   16   17 1     
   38   16   19 1     
   39   17   18 2     
   40   19   20 ar    
   41   19   21 ar    
@<TRIPOS>SUBSTRUCTURE
      1 ****           1
@<TRIPOS>COMMENT
> <Gold.Version>
2022.2.0

> <Gold.Id.Protein>
3pbl|protein|mol2

> <Gold.Protein.RotatedTorsions>
[ 1303 1298 1297 1294 ] final    1.66 input  179.99 | X-H torsion
[ 2461 2456 2455 2452 ] final -116.20 input   30.03 | X-H torsion
[ 2515 2510 2509 2506 ] final  129.41 input  -89.99 | X-H torsion
[ 3721 3712 3711 3710 ] final  -99.62 input -179.91 | X-H torsion
[ 3841 3832 3831 3830 ] final  -51.79 input -179.91 | X-H torsion
[ 3767 3762 3761 3758 ] final  122.25 input  -89.99 | X-H torsion
[ 2472 2467 2466 2463 ] final  -24.12 input  -89.97 | X-H torsion

> <Gold.Protein.ActiveResidues>
 VAL82   VAL86   LEU89   PHE106  VAL107  ASP110  VAL111  MET112  CYS114  THR115 
 CYS181  SER182  ILE183  PHE188  VAL189  ILE190  SER192  SER193  SER196  TRP342 
 PHE345  PHE346  HIS349  VAL350  TYR365  THR369  GLY372  TYR373 

> <Gold.Protein.RotatedAtoms>
    3.3950   -9.8940    4.0618 H   0  0  0  0  0  0  0  0  0  0  0  0  # atno 1303 bound_to 1298
    0.5357   -9.1477    8.0126 H   0  0  0  0  0  0  0  0  0  0  0  0  # atno 2461 bound_to 2456
   -3.6493   -4.9851    8.4213 H   0  0  0  0  0  0  0  0  0  0  0  0  # atno 2472 bound_to 2467
    2.0631   -8.3170    6.0921 H   0  0  0  0  0  0  0  0  0  0  0  0  # atno 2515 bound_to 2510
   -3.0930  -16.8410   14.6157 H   0  0  0  0  0  0  0  0  0  0  0  0  # atno 3721 bound_to 3712
   -3.9447  -23.1716   10.9348 H   0  0  0  0  0  0  0  0  0  0  0  0  # atno 3767 bound_to 3762
    1.5806  -19.8902    9.1211 H   0  0  0  0  0  0  0  0  0  0  0  0  # atno 3841 bound_to 3832
    4.2106   -8.4795    4.0791 LP  0  0  0  0  0  0  0  0  0  0  0  0  # atno 4297 bound_to 1298
    4.7568   -9.7477    4.9508 LP  0  0  0  0  0  0  0  0  0  0  0  0  # atno 4298 bound_to 1298
    2.1012   -8.6910    8.1028 LP  0  0  0  0  0  0  0  0  0  0  0  0  # atno 4299 bound_to 2456
    1.1006   -7.9695    7.0328 LP  0  0  0  0  0  0  0  0  0  0  0  0  # atno 4300 bound_to 2456
    2.4758   -7.5404    4.7165 LP  0  0  0  0  0  0  0  0  0  0  0  0  # atno 4301 bound_to 2510
    2.7579   -9.1418    4.8663 LP  0  0  0  0  0  0  0  0  0  0  0  0  # atno 4302 bound_to 2510
   -3.3474  -17.0671   13.0467 LP  0  0  0  0  0  0  0  0  0  0  0  0  # atno 4306 bound_to 3712
   -2.6094  -18.2160   13.9423 LP  0  0  0  0  0  0  0  0  0  0  0  0  # atno 4307 bound_to 3712
    2.8653  -20.0716    8.1763 LP  0  0  0  0  0  0  0  0  0  0  0  0  # atno 4314 bound_to 3832
    2.5382  -21.1575    9.3512 LP  0  0  0  0  0  0  0  0  0  0  0  0  # atno 4315 bound_to 3832
   -5.3026  -22.7448   10.1344 LP  0  0  0  0  0  0  0  0  0  0  0  0  # atno 4318 bound_to 3762
   -4.8798  -21.9589   11.5019 LP  0  0  0  0  0  0  0  0  0  0  0  0  # atno 4319 bound_to 3762
   -4.8897   -5.4626    9.3699 LP  0  0  0  0  0  0  0  0  0  0  0  0  # atno 4320 bound_to 2467
   -5.1777   -4.9458    7.8479 LP  0  0  0  0  0  0  0  0  0  0  0  0  # atno 4321 bound_to 2467

> <Gold.Score>
     Score     S(PLP)   S(hbond)     S(cho)   S(metal)  DE(clash)   DE(tors)     intcor
     45.39     -42.66       0.99       0.00       0.00       4.07       0.38       4.58

> <Gold.PLP.Fitness>
45.3891

> <Gold.PLP.PLP>
-42.6590

> <Gold.PLP.part.hbond>
-1.0748

> <Gold.PLP.part.metal>
0.0000

> <Gold.PLP.part.buried>
-5.5946

> <Gold.PLP.part.nonpolar>
-37.4810

> <Gold.PLP.part.repulsive>
0.1849

> <Gold.PLP.ligand.clash>
4.0672

> <Gold.PLP.ligand.torsion>
0.3789

> <Gold.PLP.Chemscore.Hbond>
0.9913

> <Gold.PLP.Chemscore.CHOScore>
0.0000

> <Gold.PLP.Chemscore.Metal>
0.0000

> <Gold.Chemscore.Hbonds>
donor molecule, donor type, donor heavy atom, donor atom, acceptor molecule, acceptor atom, score
      P1  H  2456  2461       L1    21  0.99

> <Gold.PLP.Chemscore.Internal.Correction>
4.5812

