#       Name:                EN300-246579_i001
#       Creating user name   fsindt
#       Creation time:       Wed Mar  1 10:41:55 2023


#       File generated by GOLD software.
#

@<TRIPOS>MOLECULE
EN300-246579_i001|acide_1|mol2|7898|dock2
    40    41     1
SMALL
USER_CHARGES


@<TRIPOS>ATOM
      1 C1          -0.1040 -15.8170  14.7231 C.3            1 <1>                0.0000
      2 C2           0.6065 -16.9387  13.9630 C.3            1 <1>                0.0000
      3 C3           2.0648 -16.5452  13.7190 C.3            1 <1>                0.0000
      4 C4           0.5569 -18.2255  14.7890 C.3            1 <1>                0.0000
      5 O5          -0.0559 -17.1553  12.6892 O.3            1 <1>                0.0000
      6 C6           0.0532 -16.1781  11.7695 C.2            1 <1>                0.0000
      7 O7           0.3839 -15.0590  12.1083 O.2            1 <1>                0.0000
      8 N8          -0.2041 -16.4412  10.4729 N.am           1 <1>                0.0000
      9 C9          -0.5108 -17.7650   9.9117 C.3            1 <1>                0.0000
     10 C10         -0.7067 -17.5841   8.3917 C.3            1 <1>                0.0000
     11 C11          0.0570 -16.2660   8.0974 C.3            1 <1>                0.0000
     12 C12         -0.2312 -15.4482   9.3837 C.3            1 <1>                0.0000
     13 C13          0.8584 -14.3963   9.6013 C.3            1 <1>                0.0000
     14 N14          0.2908 -13.0590   9.4124 N.pl3          1 <1>                0.0000
     15 C15         -0.8115 -12.5643  10.0079 C.2            1 <1>                0.0000
     16 C16         -0.9714 -11.2785   9.5387 C.2            1 <1>                0.0000
     17 N17          0.0273 -11.0190   8.6752 N.2            1 <1>                0.0000
     18 N18          0.7947 -12.0483   8.5823 N.2            1 <1>                0.0000
     19 C19         -2.0484 -10.3500   9.9162 C.2            1 <1>                0.0000
     20 O20         -2.7961 -10.6255  10.8447 O.co2          1 <1>                0.0000
     21 O21         -2.1964  -9.3025   9.3018 O.co2          1 <1>               -1.0000
     22 H22         -0.0686 -14.9002  14.1347 H              1 <1>                0.0000
     23 H23         -1.1429 -16.0973  14.8969 H              1 <1>                0.0000
     24 H24          0.3933 -15.6543  15.6793 H              1 <1>                0.0000
     25 H25          2.5621 -16.3826  14.6752 H              1 <1>                0.0000
     26 H26          2.5710 -17.3443  13.1775 H              1 <1>                0.0000
     27 H27          2.1002 -15.6284  13.1305 H              1 <1>                0.0000
     28 H28         -0.4821 -18.5058  14.9628 H              1 <1>                0.0000
     29 H29          1.0631 -19.0247  14.2475 H              1 <1>                0.0000
     30 H30          1.0542 -18.0630  15.7452 H              1 <1>                0.0000
     31 H31          0.3172 -18.4484  10.1000 H              1 <1>                0.0000
     32 H32         -1.4250 -18.1548  10.3595 H              1 <1>                0.0000
     33 H33         -0.2646 -18.4165   7.8441 H              1 <1>                0.0000
     34 H34         -1.7641 -17.4796   8.1488 H              1 <1>                0.0000
     35 H35          1.1247 -16.4510   7.9791 H              1 <1>                0.0000
     36 H36         -0.3509 -15.7659   7.2189 H              1 <1>                0.0000
     37 H37         -1.2104 -14.9736   9.3201 H              1 <1>                0.0000
     38 H38          1.2515 -14.4845  10.6140 H              1 <1>                0.0000
     39 H39          1.6638 -14.5538   8.8839 H              1 <1>                0.0000
     40 H40         -1.4469 -13.0762  10.7156 H              1 <1>                0.0000
@<TRIPOS>BOND
    1    1    2 1     
    2    1   22 1     
    3    1   23 1     
    4    1   24 1     
    5    2    3 1     
    6    2    4 1     
    7    2    5 1     
    8    3   25 1     
    9    3   26 1     
   10    3   27 1     
   11    4   28 1     
   12    4   29 1     
   13    4   30 1     
   14    5    6 1     
   15    6    7 2     
   16    6    8 am    
   17    8    9 1     
   18    8   12 1     
   19    9   10 1     
   20    9   31 1     
   21    9   32 1     
   22   10   11 1     
   23   10   33 1     
   24   10   34 1     
   25   11   12 1     
   26   11   35 1     
   27   11   36 1     
   28   12   13 1     
   29   12   37 1     
   30   13   14 1     
   31   13   38 1     
   32   13   39 1     
   33   14   15 1     
   34   14   18 1     
   35   15   16 2     
   36   15   40 1     
   37   16   17 1     
   38   16   19 1     
   39   17   18 2     
   40   19   20 ar    
   41   19   21 ar    
@<TRIPOS>SUBSTRUCTURE
      1 ****           1
@<TRIPOS>COMMENT
> <Gold.Version>
2022.2.0

> <Gold.Id.Protein>
3pbl|protein|mol2

> <Gold.Protein.RotatedTorsions>
[ 1303 1298 1297 1294 ] final  -54.00 input  179.99 | X-H torsion
[ 2461 2456 2455 2452 ] final -134.62 input   30.03 | X-H torsion
[ 2515 2510 2509 2506 ] final   48.26 input  -89.99 | X-H torsion
[ 3721 3712 3711 3710 ] final   31.94 input -179.91 | X-H torsion
[ 3841 3832 3831 3830 ] final  -40.96 input -179.91 | X-H torsion
[ 3767 3762 3761 3758 ] final   49.03 input  -89.99 | X-H torsion
[ 2472 2467 2466 2463 ] final  115.02 input  -89.97 | X-H torsion

> <Gold.Protein.ActiveResidues>
 VAL82   VAL86   LEU89   PHE106  VAL107  ASP110  VAL111  MET112  CYS114  THR115 
 CYS181  SER182  ILE183  PHE188  VAL189  ILE190  SER192  SER193  SER196  TRP342 
 PHE345  PHE346  HIS349  VAL350  TYR365  THR369  GLY372  TYR373 

> <Gold.Protein.RotatedAtoms>
    3.4509   -9.0627    3.7781 H   0  0  0  0  0  0  0  0  0  0  0  0  # atno 1303 bound_to 1298
    0.7547   -9.2515    8.1927 H   0  0  0  0  0  0  0  0  0  0  0  0  # atno 2461 bound_to 2456
   -5.3790   -5.0472    8.0657 H   0  0  0  0  0  0  0  0  0  0  0  0  # atno 2472 bound_to 2467
    2.2146   -7.4173    5.2731 H   0  0  0  0  0  0  0  0  0  0  0  0  # atno 2515 bound_to 2510
   -2.4864  -18.0307   13.7715 H   0  0  0  0  0  0  0  0  0  0  0  0  # atno 3721 bound_to 3712
   -4.7220  -23.2171   10.1232 H   0  0  0  0  0  0  0  0  0  0  0  0  # atno 3767 bound_to 3762
    1.5617  -20.0050    9.2356 H   0  0  0  0  0  0  0  0  0  0  0  0  # atno 3841 bound_to 3832
    4.8206   -8.7995    4.6272 LP  0  0  0  0  0  0  0  0  0  0  0  0  # atno 4297 bound_to 1298
    4.0909  -10.2592    4.6865 LP  0  0  0  0  0  0  0  0  0  0  0  0  # atno 4298 bound_to 1298
    2.1604   -8.4716    7.9043 LP  0  0  0  0  0  0  0  0  0  0  0  0  # atno 4299 bound_to 2456
    0.8225   -8.0853    7.0513 LP  0  0  0  0  0  0  0  0  0  0  0  0  # atno 4300 bound_to 2456
    2.8354   -8.6817    4.4474 LP  0  0  0  0  0  0  0  0  0  0  0  0  # atno 4301 bound_to 2510
    2.2467   -8.9006    5.9547 LP  0  0  0  0  0  0  0  0  0  0  0  0  # atno 4302 bound_to 2510
   -3.2168  -17.0248   14.7876 LP  0  0  0  0  0  0  0  0  0  0  0  0  # atno 4306 bound_to 3712
   -3.4403  -16.8848   13.1760 LP  0  0  0  0  0  0  0  0  0  0  0  0  # atno 4307 bound_to 3712
    2.7375  -19.9479    8.1447 LP  0  0  0  0  0  0  0  0  0  0  0  0  # atno 4314 bound_to 3832
    2.6879  -21.1485    9.2504 LP  0  0  0  0  0  0  0  0  0  0  0  0  # atno 4315 bound_to 3832
   -5.3972  -21.9892   10.9617 LP  0  0  0  0  0  0  0  0  0  0  0  0  # atno 4318 bound_to 3762
   -4.0081  -22.6690   11.4859 LP  0  0  0  0  0  0  0  0  0  0  0  0  # atno 4319 bound_to 3762
   -3.7550   -4.8947    8.1404 LP  0  0  0  0  0  0  0  0  0  0  0  0  # atno 4320 bound_to 2467
   -4.5831   -5.4516    9.4329 LP  0  0  0  0  0  0  0  0  0  0  0  0  # atno 4321 bound_to 2467

> <Gold.Score>
     Score     S(PLP)   S(hbond)     S(cho)   S(metal)  DE(clash)   DE(tors)     intcor
     49.70     -48.41       1.00       0.00       0.00       4.05       1.12       4.58

> <Gold.PLP.Fitness>
49.6987

> <Gold.PLP.PLP>
-48.4058

> <Gold.PLP.part.hbond>
-2.0000

> <Gold.PLP.part.metal>
0.0000

> <Gold.PLP.part.buried>
-3.8623

> <Gold.PLP.part.nonpolar>
-43.8172

> <Gold.PLP.part.repulsive>
0.5116

> <Gold.PLP.ligand.clash>
4.0521

> <Gold.PLP.ligand.torsion>
1.1181

> <Gold.PLP.Chemscore.Hbond>
1.0000

> <Gold.PLP.Chemscore.CHOScore>
0.0000

> <Gold.PLP.Chemscore.Metal>
0.0000

> <Gold.Chemscore.Hbonds>
donor molecule, donor type, donor heavy atom, donor atom, acceptor molecule, acceptor atom, score
      P1  H  2456  2461       L1    17  1.00

> <Gold.PLP.Chemscore.Internal.Correction>
4.5812

