#       Name:                EN300-246579_i001
#       Creating user name   fsindt
#       Creation time:       Wed Mar  1 10:42:13 2023


#       File generated by GOLD software.
#

@<TRIPOS>MOLECULE
EN300-246579_i001|acide_1|mol2|7898|dock15
    40    41     1
SMALL
USER_CHARGES


@<TRIPOS>ATOM
      1 C1           0.1860 -21.8064  15.0392 C.3            1 <1>                0.0000
      2 C2           0.1130 -20.3063  14.7477 C.3            1 <1>                0.0000
      3 C3          -0.8530 -19.6420  15.7309 C.3            1 <1>                0.0000
      4 C4           1.5039 -19.6883  14.9030 C.3            1 <1>                0.0000
      5 O5          -0.3598 -20.0995  13.3905 O.3            1 <1>                0.0000
      6 C6          -0.3754 -18.8325  12.9350 C.2            1 <1>                0.0000
      7 O7          -0.1997 -17.9083  13.7040 O.2            1 <1>                0.0000
      8 N8          -0.5859 -18.5895  11.6262 N.am           1 <1>                0.0000
      9 C9          -0.7089 -19.6093  10.5743 C.3            1 <1>                0.0000
     10 C10         -0.9161 -18.8662   9.2377 C.3            1 <1>                0.0000
     11 C11         -0.3332 -17.4581   9.5290 C.3            1 <1>                0.0000
     12 C12         -0.7375 -17.2574  11.0131 C.3            1 <1>                0.0000
     13 C13          0.2002 -16.2553  11.6896 C.3            1 <1>                0.0000
     14 N14          0.1396 -14.9746  10.9811 N.pl3          1 <1>                0.0000
     15 C15          0.7852 -14.6569   9.8424 C.2            1 <1>                0.0000
     16 C16          0.4381 -13.3579   9.5401 C.2            1 <1>                0.0000
     17 N17         -0.4037 -12.9154  10.4918 N.2            1 <1>                0.0000
     18 N18         -0.6059 -13.8483  11.3555 N.2            1 <1>                0.0000
     19 C19          0.9074 -12.5877   8.3776 C.2            1 <1>                0.0000
     20 O20          0.8255 -11.3669   8.3792 O.co2          1 <1>                0.0000
     21 O21          1.3795 -13.1679   7.4095 O.co2          1 <1>               -1.0000
     22 H22         -0.8049 -22.2468  14.9286 H              1 <1>                0.0000
     23 H23          0.8741 -22.2796  14.3388 H              1 <1>                0.0000
     24 H24          0.5408 -21.9617  16.0581 H              1 <1>                0.0000
     25 H25         -0.4981 -19.7973  16.7498 H              1 <1>                0.0000
     26 H26         -0.9050 -18.5733  15.5232 H              1 <1>                0.0000
     27 H27         -1.8439 -20.0824  15.6203 H              1 <1>                0.0000
     28 H28          2.1920 -20.1614  14.2025 H              1 <1>                0.0000
     29 H29          1.4519 -18.6194  14.6953 H              1 <1>                0.0000
     30 H30          1.8588 -19.8434  15.9219 H              1 <1>                0.0000
     31 H31          0.2016 -20.2068  10.5289 H              1 <1>                0.0000
     32 H32         -1.5660 -20.2510  10.7784 H              1 <1>                0.0000
     33 H33         -0.3628 -19.3542   8.4353 H              1 <1>                0.0000
     34 H34         -1.9762 -18.8015   8.9927 H              1 <1>                0.0000
     35 H35          0.7505 -17.4518   9.4114 H              1 <1>                0.0000
     36 H36         -0.7979 -16.7038   8.8938 H              1 <1>                0.0000
     37 H37         -1.7709 -16.9175  11.0823 H              1 <1>                0.0000
     38 H38         -0.1071 -16.1123  12.7256 H              1 <1>                0.0000
     39 H39          1.2207 -16.6375  11.6628 H              1 <1>                0.0000
     40 H40          1.4467 -15.2960   9.2762 H              1 <1>                0.0000
@<TRIPOS>BOND
    1    1    2 1     
    2    1   22 1     
    3    1   23 1     
    4    1   24 1     
    5    2    3 1     
    6    2    4 1     
    7    2    5 1     
    8    3   25 1     
    9    3   26 1     
   10    3   27 1     
   11    4   28 1     
   12    4   29 1     
   13    4   30 1     
   14    5    6 1     
   15    6    7 2     
   16    6    8 am    
   17    8    9 1     
   18    8   12 1     
   19    9   10 1     
   20    9   31 1     
   21    9   32 1     
   22   10   11 1     
   23   10   33 1     
   24   10   34 1     
   25   11   12 1     
   26   11   35 1     
   27   11   36 1     
   28   12   13 1     
   29   12   37 1     
   30   13   14 1     
   31   13   38 1     
   32   13   39 1     
   33   14   15 1     
   34   14   18 1     
   35   15   16 2     
   36   15   40 1     
   37   16   17 1     
   38   16   19 1     
   39   17   18 2     
   40   19   20 ar    
   41   19   21 ar    
@<TRIPOS>SUBSTRUCTURE
      1 ****           1
@<TRIPOS>COMMENT
> <Gold.Version>
2022.2.0

> <Gold.Id.Protein>
3pbl|protein|mol2

> <Gold.Protein.RotatedTorsions>
[ 1303 1298 1297 1294 ] final -103.94 input  179.99 | X-H torsion
[ 2461 2456 2455 2452 ] final -140.91 input   30.03 | X-H torsion
[ 2515 2510 2509 2506 ] final  118.43 input  -89.99 | X-H torsion
[ 3721 3712 3711 3710 ] final   11.09 input -179.91 | X-H torsion
[ 3841 3832 3831 3830 ] final   50.40 input -179.91 | X-H torsion
[ 3767 3762 3761 3758 ] final -150.98 input  -89.99 | X-H torsion
[ 2472 2467 2466 2463 ] final    4.86 input  -89.97 | X-H torsion

> <Gold.Protein.ActiveResidues>
 VAL82   VAL86   LEU89   PHE106  VAL107  ASP110  VAL111  MET112  CYS114  THR115 
 CYS181  SER182  ILE183  PHE188  VAL189  ILE190  SER192  SER193  SER196  TRP342 
 PHE345  PHE346  HIS349  VAL350  TYR365  THR369  GLY372  TYR373 

> <Gold.Protein.RotatedAtoms>
    4.0120   -8.5286    3.9608 H   0  0  0  0  0  0  0  0  0  0  0  0  # atno 1303 bound_to 1298
    0.8424   -9.2720    8.2438 H   0  0  0  0  0  0  0  0  0  0  0  0  # atno 2461 bound_to 2456
   -3.8454   -4.8589    8.0113 H   0  0  0  0  0  0  0  0  0  0  0  0  # atno 2472 bound_to 2467
    2.0389   -8.1413    6.0598 H   0  0  0  0  0  0  0  0  0  0  0  0  # atno 2515 bound_to 2510
   -2.4715  -18.0081   14.0839 H   0  0  0  0  0  0  0  0  0  0  0  0  # atno 3721 bound_to 3712
   -4.4220  -22.2024   11.6496 H   0  0  0  0  0  0  0  0  0  0  0  0  # atno 3767 bound_to 3762
    2.3396  -20.9109    9.5650 H   0  0  0  0  0  0  0  0  0  0  0  0  # atno 3841 bound_to 3832
    4.8539   -9.5330    4.9349 LP  0  0  0  0  0  0  0  0  0  0  0  0  # atno 4297 bound_to 1298
    3.4963  -10.0600    4.1960 LP  0  0  0  0  0  0  0  0  0  0  0  0  # atno 4298 bound_to 1298
    2.1592   -8.3986    7.8309 LP  0  0  0  0  0  0  0  0  0  0  0  0  # atno 4299 bound_to 2456
    0.7361   -8.1378    7.0736 LP  0  0  0  0  0  0  0  0  0  0  0  0  # atno 4300 bound_to 2456
    2.5514   -7.6455    4.5910 LP  0  0  0  0  0  0  0  0  0  0  0  0  # atno 4301 bound_to 2510
    2.7066   -9.2124    5.0241 LP  0  0  0  0  0  0  0  0  0  0  0  0  # atno 4302 bound_to 2510
   -3.3729  -16.7820   14.5958 LP  0  0  0  0  0  0  0  0  0  0  0  0  # atno 4306 bound_to 3712
   -3.3013  -17.1536   13.0072 LP  0  0  0  0  0  0  0  0  0  0  0  0  # atno 4307 bound_to 3712
    1.5220  -19.7910    8.7568 LP  0  0  0  0  0  0  0  0  0  0  0  0  # atno 4314 bound_to 3832
    3.0047  -20.2590    8.2578 LP  0  0  0  0  0  0  0  0  0  0  0  0  # atno 4315 bound_to 3832
   -4.2039  -23.3312   10.4898 LP  0  0  0  0  0  0  0  0  0  0  0  0  # atno 4318 bound_to 3762
   -5.5014  -22.3413   10.4320 LP  0  0  0  0  0  0  0  0  0  0  0  0  # atno 4319 bound_to 3762
   -4.4226   -5.4319    9.4273 LP  0  0  0  0  0  0  0  0  0  0  0  0  # atno 4320 bound_to 2467
   -5.4489   -5.1027    8.2005 LP  0  0  0  0  0  0  0  0  0  0  0  0  # atno 4321 bound_to 2467

> <Gold.Score>
     Score     S(PLP)   S(hbond)     S(cho)   S(metal)  DE(clash)   DE(tors)     intcor
     47.18     -41.98       1.13       1.00       0.00       4.55       0.60       4.58

> <Gold.PLP.Fitness>
47.1837

> <Gold.PLP.PLP>
-41.9763

> <Gold.PLP.part.hbond>
-1.7722

> <Gold.PLP.part.metal>
0.0000

> <Gold.PLP.part.buried>
-5.2350

> <Gold.PLP.part.nonpolar>
-35.3366

> <Gold.PLP.part.repulsive>
0.1397

> <Gold.PLP.ligand.clash>
4.5508

> <Gold.PLP.ligand.torsion>
0.6044

> <Gold.PLP.Chemscore.Hbond>
1.1287

> <Gold.PLP.Chemscore.CHOScore>
0.9999

> <Gold.PLP.Chemscore.Metal>
0.0000

> <Gold.Chemscore.Hbonds>
donor molecule, donor type, donor heavy atom, donor atom, acceptor molecule, acceptor atom, score
      P1  H  2456  2461       L1    20  1.00
      P1  H  3712  3721       L1     7  0.13
      L1  C    15    40       P1  1227  1.00

> <Gold.PLP.Chemscore.Internal.Correction>
4.5812

