#       Name:                EN300-246579_i001
#       Creating user name   fsindt
#       Creation time:       Wed Mar  1 10:42:19 2023


#       File generated by GOLD software.
#

@<TRIPOS>MOLECULE
EN300-246579_i001|acide_1|mol2|7898|dock19
    40    41     1
SMALL
USER_CHARGES


@<TRIPOS>ATOM
      1 C1          -0.8913  -9.8197  11.2009 C.3            1 <1>                0.0000
      2 C2          -1.9789 -10.4236  10.3103 C.3            1 <1>                0.0000
      3 C3          -3.2446 -10.6566  11.1378 C.3            1 <1>                0.0000
      4 C4          -2.2901  -9.4618   9.1620 C.3            1 <1>                0.0000
      5 O5          -1.5145 -11.6887   9.7697 O.3            1 <1>                0.0000
      6 C6          -1.0626 -12.6009  10.6508 C.2            1 <1>                0.0000
      7 O7          -1.2963 -12.4688  11.8359 O.2            1 <1>                0.0000
      8 N8          -0.3512 -13.6608  10.2184 N.am           1 <1>                0.0000
      9 C9          -0.0850 -13.9980   8.8123 C.3            1 <1>                0.0000
     10 C10          0.7420 -15.3010   8.8023 C.3            1 <1>                0.0000
     11 C11          0.4140 -15.9313  10.1816 C.3            1 <1>                0.0000
     12 C12          0.2946 -14.6702  11.0770 C.3            1 <1>                0.0000
     13 C13         -0.5814 -14.9640  12.2966 C.3            1 <1>                0.0000
     14 N14          0.0553 -15.9965  13.1179 N.pl3          1 <1>                0.0000
     15 C15         -0.0183 -17.3284  12.9309 C.2            1 <1>                0.0000
     16 C16          0.7276 -17.9104  13.9329 C.2            1 <1>                0.0000
     17 N17          1.2354 -16.9304  14.7023 N.2            1 <1>                0.0000
     18 N18          0.8623 -15.7865  14.2446 N.2            1 <1>                0.0000
     19 C19          0.9329 -19.3542  14.1281 C.2            1 <1>                0.0000
     20 O20          1.6410 -19.7533  15.0425 O.co2          1 <1>                0.0000
     21 O21          0.3955 -20.1556  13.3760 O.co2          1 <1>               -1.0000
     22 H22         -0.6695 -10.5048  12.0191 H              1 <1>                0.0000
     23 H23          0.0104  -9.6537  10.6114 H              1 <1>                0.0000
     24 H24         -1.2399  -8.8700  11.6068 H              1 <1>                0.0000
     25 H25         -3.5932  -9.7068  11.5437 H              1 <1>                0.0000
     26 H26         -4.0194 -11.0868  10.5034 H              1 <1>                0.0000
     27 H27         -3.0228 -11.3418  11.9560 H              1 <1>                0.0000
     28 H28         -1.3884  -9.2959   8.5725 H              1 <1>                0.0000
     29 H29         -3.0650  -9.8920   8.5275 H              1 <1>                0.0000
     30 H30         -2.6388  -8.5121   9.5678 H              1 <1>                0.0000
     31 H31         -1.0257 -14.1519   8.2836 H              1 <1>                0.0000
     32 H32          0.4815 -13.1958   8.3395 H              1 <1>                0.0000
     33 H33          0.4200 -15.9559   7.9926 H              1 <1>                0.0000
     34 H34          1.8066 -15.0815   8.7221 H              1 <1>                0.0000
     35 H35         -0.5272 -16.4802  10.1466 H              1 <1>                0.0000
     36 H36          1.2267 -16.5738  10.5208 H              1 <1>                0.0000
     37 H37          1.2825 -14.3330  11.3910 H              1 <1>                0.0000
     38 H38         -0.7017 -14.0545  12.8851 H              1 <1>                0.0000
     39 H39         -1.5590 -15.3146  11.9657 H              1 <1>                0.0000
     40 H40         -0.5575 -17.8408  12.1479 H              1 <1>                0.0000
@<TRIPOS>BOND
    1    1    2 1     
    2    1   22 1     
    3    1   23 1     
    4    1   24 1     
    5    2    3 1     
    6    2    4 1     
    7    2    5 1     
    8    3   25 1     
    9    3   26 1     
   10    3   27 1     
   11    4   28 1     
   12    4   29 1     
   13    4   30 1     
   14    5    6 1     
   15    6    7 2     
   16    6    8 am    
   17    8    9 1     
   18    8   12 1     
   19    9   10 1     
   20    9   31 1     
   21    9   32 1     
   22   10   11 1     
   23   10   33 1     
   24   10   34 1     
   25   11   12 1     
   26   11   35 1     
   27   11   36 1     
   28   12   13 1     
   29   12   37 1     
   30   13   14 1     
   31   13   38 1     
   32   13   39 1     
   33   14   15 1     
   34   14   18 1     
   35   15   16 2     
   36   15   40 1     
   37   16   17 1     
   38   16   19 1     
   39   17   18 2     
   40   19   20 ar    
   41   19   21 ar    
@<TRIPOS>SUBSTRUCTURE
      1 ****           1
@<TRIPOS>COMMENT
> <Gold.Version>
2022.2.0

> <Gold.Id.Protein>
3pbl|protein|mol2

> <Gold.Protein.RotatedTorsions>
[ 1303 1298 1297 1294 ] final   43.73 input  179.99 | X-H torsion
[ 2461 2456 2455 2452 ] final -146.23 input   30.03 | X-H torsion
[ 2515 2510 2509 2506 ] final   53.04 input  -89.99 | X-H torsion
[ 3721 3712 3711 3710 ] final  166.57 input -179.91 | X-H torsion
[ 3841 3832 3831 3830 ] final -141.68 input -179.91 | X-H torsion
[ 3767 3762 3761 3758 ] final  170.21 input  -89.99 | X-H torsion
[ 2472 2467 2466 2463 ] final  -92.28 input  -89.97 | X-H torsion

> <Gold.Protein.ActiveResidues>
 VAL82   VAL86   LEU89   PHE106  VAL107  ASP110  VAL111  MET112  CYS114  THR115 
 CYS181  SER182  ILE183  PHE188  VAL189  ILE190  SER192  SER193  SER196  TRP342 
 PHE345  PHE346  HIS349  VAL350  TYR365  THR369  GLY372  TYR373 

> <Gold.Protein.RotatedAtoms>
    3.7932  -10.2504    4.4769 H   0  0  0  0  0  0  0  0  0  0  0  0  # atno 1303 bound_to 1298
    0.9203   -9.2831    8.2821 H   0  0  0  0  0  0  0  0  0  0  0  0  # atno 2461 bound_to 2456
   -4.0746   -5.3541    9.3154 H   0  0  0  0  0  0  0  0  0  0  0  0  # atno 2472 bound_to 2467
    2.1871   -7.4311    5.3455 H   0  0  0  0  0  0  0  0  0  0  0  0  # atno 2515 bound_to 2510
   -3.2824  -16.7033   13.3726 H   0  0  0  0  0  0  0  0  0  0  0  0  # atno 3721 bound_to 3712
   -4.0158  -22.6538   11.4955 H   0  0  0  0  0  0  0  0  0  0  0  0  # atno 3767 bound_to 3762
    2.5193  -19.6920    8.3624 H   0  0  0  0  0  0  0  0  0  0  0  0  # atno 3841 bound_to 3832
    3.6607   -8.7666    3.8083 LP  0  0  0  0  0  0  0  0  0  0  0  0  # atno 4297 bound_to 1298
    4.9084   -9.1040    4.8063 LP  0  0  0  0  0  0  0  0  0  0  0  0  # atno 4298 bound_to 1298
    2.1495   -8.3388    7.7678 LP  0  0  0  0  0  0  0  0  0  0  0  0  # atno 4299 bound_to 2456
    0.6679   -8.1865    7.0984 LP  0  0  0  0  0  0  0  0  0  0  0  0  # atno 4300 bound_to 2456
    2.8325   -8.6090    4.4173 LP  0  0  0  0  0  0  0  0  0  0  0  0  # atno 4301 bound_to 2510
    2.2773   -8.9595    5.9124 LP  0  0  0  0  0  0  0  0  0  0  0  0  # atno 4302 bound_to 2510
   -2.6672  -18.1740   13.5634 LP  0  0  0  0  0  0  0  0  0  0  0  0  # atno 4306 bound_to 3712
   -3.0709  -17.2680   14.8607 LP  0  0  0  0  0  0  0  0  0  0  0  0  # atno 4307 bound_to 3712
    2.8830  -21.0848    9.0725 LP  0  0  0  0  0  0  0  0  0  0  0  0  # atno 4314 bound_to 3832
    1.4361  -20.3733    9.3313 LP  0  0  0  0  0  0  0  0  0  0  0  0  # atno 4315 bound_to 3832
   -4.7058  -23.2255   10.1302 LP  0  0  0  0  0  0  0  0  0  0  0  0  # atno 4318 bound_to 3762
   -5.4055  -21.9958   10.9456 LP  0  0  0  0  0  0  0  0  0  0  0  0  # atno 4319 bound_to 3762
   -5.5095   -5.2337    8.5454 LP  0  0  0  0  0  0  0  0  0  0  0  0  # atno 4320 bound_to 2467
   -4.1328   -4.8058    7.7784 LP  0  0  0  0  0  0  0  0  0  0  0  0  # atno 4321 bound_to 2467

> <Gold.Score>
     Score     S(PLP)   S(hbond)     S(cho)   S(metal)  DE(clash)   DE(tors)     intcor
     49.88     -47.51       1.00       0.00       0.00       4.05       0.57       4.56

> <Gold.PLP.Fitness>
49.8808

> <Gold.PLP.PLP>
-47.5064

> <Gold.PLP.part.hbond>
-1.7928

> <Gold.PLP.part.metal>
0.0000

> <Gold.PLP.part.buried>
-1.6529

> <Gold.PLP.part.nonpolar>
-44.9226

> <Gold.PLP.part.repulsive>
0.2137

> <Gold.PLP.ligand.clash>
4.0521

> <Gold.PLP.ligand.torsion>
0.5674

> <Gold.PLP.Chemscore.Hbond>
1.0000

> <Gold.PLP.Chemscore.CHOScore>
0.0000

> <Gold.PLP.Chemscore.Metal>
0.0000

> <Gold.Chemscore.Hbonds>
donor molecule, donor type, donor heavy atom, donor atom, acceptor molecule, acceptor atom, score
      P1  H  2305  2313       L1    18  1.00

> <Gold.PLP.Chemscore.Internal.Correction>
4.5612

