#       Name:                EN300-246579_i001
#       Creating user name   fsindt
#       Creation time:       Wed Mar  1 10:42:09 2023


#       File generated by GOLD software.
#

@<TRIPOS>MOLECULE
EN300-246579_i001|acide_1|mol2|7898|dock13
    40    41     1
SMALL
USER_CHARGES


@<TRIPOS>ATOM
      1 C1          -2.2363  -9.4075   9.2980 C.3            1 <1>                0.0000
      2 C2          -1.8385 -10.6308  10.1262 C.3            1 <1>                0.0000
      3 C3          -1.1222 -10.1741  11.3988 C.3            1 <1>                0.0000
      4 C4          -3.0929 -11.4216  10.5028 C.3            1 <1>                0.0000
      5 O5          -0.9500 -11.4746   9.3472 O.3            1 <1>                0.0000
      6 C6          -0.6336 -12.6749   9.8687 C.2            1 <1>                0.0000
      7 O7          -0.7965 -12.8840  11.0546 O.2            1 <1>                0.0000
      8 N8          -0.1363 -13.6444   9.0755 N.am           1 <1>                0.0000
      9 C9           0.0142 -13.5636   7.6153 C.3            1 <1>                0.0000
     10 C10          0.5979 -14.9107   7.1396 C.3            1 <1>                0.0000
     11 C11          0.2152 -15.8804   8.2888 C.3            1 <1>                0.0000
     12 C12          0.3529 -14.9590   9.5292 C.3            1 <1>                0.0000
     13 C13         -0.5155 -15.4779  10.6771 C.3            1 <1>                0.0000
     14 N14          0.3445 -15.9697  11.7563 N.pl3          1 <1>                0.0000
     15 C15          0.0095 -16.8681  12.7023 C.2            1 <1>                0.0000
     16 C16          1.1188 -17.0312  13.5036 C.2            1 <1>                0.0000
     17 N17          2.0972 -16.2362  13.0336 N.2            1 <1>                0.0000
     18 N18          1.6747 -15.5995  11.9977 N.2            1 <1>                0.0000
     19 C19          1.2162 -17.9205  14.6716 C.2            1 <1>                0.0000
     20 O20          0.2447 -18.5752  15.0247 O.co2          1 <1>                0.0000
     21 O21          2.2685 -18.0055  15.2897 O.co2          1 <1>               -1.0000
     22 H22         -1.3427  -8.8440   9.0296 H              1 <1>                0.0000
     23 H23         -2.7466  -9.7329   8.3914 H              1 <1>                0.0000
     24 H24         -2.9033  -8.7740   9.8828 H              1 <1>                0.0000
     25 H25         -1.7892  -9.5406  11.9836 H              1 <1>                0.0000
     26 H26         -0.8388 -11.0456  11.9889 H              1 <1>                0.0000
     27 H27         -0.2286  -9.6106  11.1305 H              1 <1>                0.0000
     28 H28         -3.6031 -11.7470   9.5962 H              1 <1>                0.0000
     29 H29         -2.8094 -12.2932  11.0930 H              1 <1>                0.0000
     30 H30         -3.7598 -10.7882  11.0877 H              1 <1>                0.0000
     31 H31         -0.9577 -13.3962   7.1511 H              1 <1>                0.0000
     32 H32          0.6953 -12.7527   7.3570 H              1 <1>                0.0000
     33 H33          0.1360 -15.2218   6.2026 H              1 <1>                0.0000
     34 H34          1.6809 -14.8461   7.0342 H              1 <1>                0.0000
     35 H35         -0.8085 -16.2370   8.1746 H              1 <1>                0.0000
     36 H36          0.9141 -16.7151   8.3448 H              1 <1>                0.0000
     37 H37          1.3957 -14.8949   9.8404 H              1 <1>                0.0000
     38 H38         -1.1429 -14.6694  11.0522 H              1 <1>                0.0000
     39 H39         -1.1466 -16.2902  10.3166 H              1 <1>                0.0000
     40 H40         -0.9436 -17.3643  12.8117 H              1 <1>                0.0000
@<TRIPOS>BOND
    1    1    2 1     
    2    1   22 1     
    3    1   23 1     
    4    1   24 1     
    5    2    3 1     
    6    2    4 1     
    7    2    5 1     
    8    3   25 1     
    9    3   26 1     
   10    3   27 1     
   11    4   28 1     
   12    4   29 1     
   13    4   30 1     
   14    5    6 1     
   15    6    7 2     
   16    6    8 am    
   17    8    9 1     
   18    8   12 1     
   19    9   10 1     
   20    9   31 1     
   21    9   32 1     
   22   10   11 1     
   23   10   33 1     
   24   10   34 1     
   25   11   12 1     
   26   11   35 1     
   27   11   36 1     
   28   12   13 1     
   29   12   37 1     
   30   13   14 1     
   31   13   38 1     
   32   13   39 1     
   33   14   15 1     
   34   14   18 1     
   35   15   16 2     
   36   15   40 1     
   37   16   17 1     
   38   16   19 1     
   39   17   18 2     
   40   19   20 ar    
   41   19   21 ar    
@<TRIPOS>SUBSTRUCTURE
      1 ****           1
@<TRIPOS>COMMENT
> <Gold.Version>
2022.2.0

> <Gold.Id.Protein>
3pbl|protein|mol2

> <Gold.Protein.RotatedTorsions>
[ 1303 1298 1297 1294 ] final  -97.83 input  179.99 | X-H torsion
[ 2461 2456 2455 2452 ] final  -96.63 input   30.03 | X-H torsion
[ 2515 2510 2509 2506 ] final  -49.94 input  -89.99 | X-H torsion
[ 3721 3712 3711 3710 ] final -124.06 input -179.91 | X-H torsion
[ 3841 3832 3831 3830 ] final  144.59 input -179.91 | X-H torsion
[ 3767 3762 3761 3758 ] final   96.74 input  -89.99 | X-H torsion
[ 2472 2467 2466 2463 ] final   89.41 input  -89.97 | X-H torsion

> <Gold.Protein.ActiveResidues>
 VAL82   VAL86   LEU89   PHE106  VAL107  ASP110  VAL111  MET112  CYS114  THR115 
 CYS181  SER182  ILE183  PHE188  VAL189  ILE190  SER192  SER193  SER196  TRP342 
 PHE345  PHE346  HIS349  VAL350  TYR365  THR369  GLY372  TYR373 

> <Gold.Protein.RotatedAtoms>
    3.9292   -8.5658    3.9177 H   0  0  0  0  0  0  0  0  0  0  0  0  # atno 1303 bound_to 1298
    0.3832   -8.9767    7.7885 H   0  0  0  0  0  0  0  0  0  0  0  0  # atno 2461 bound_to 2456
   -5.0932   -4.9166    7.7904 H   0  0  0  0  0  0  0  0  0  0  0  0  # atno 2472 bound_to 2467
    2.7997   -8.3386    4.3572 H   0  0  0  0  0  0  0  0  0  0  0  0  # atno 2515 bound_to 2510
   -3.2380  -16.6284   14.3545 H   0  0  0  0  0  0  0  0  0  0  0  0  # atno 3721 bound_to 3712
   -4.1243  -23.3137   10.5871 H   0  0  0  0  0  0  0  0  0  0  0  0  # atno 3767 bound_to 3762
    3.1317  -20.4689    8.6788 H   0  0  0  0  0  0  0  0  0  0  0  0  # atno 3841 bound_to 3832
    4.8814   -9.4380    4.9172 LP  0  0  0  0  0  0  0  0  0  0  0  0  # atno 4297 bound_to 1298
    3.5516  -10.1178    4.2569 LP  0  0  0  0  0  0  0  0  0  0  0  0  # atno 4298 bound_to 1298
    1.9426   -8.9138    8.2699 LP  0  0  0  0  0  0  0  0  0  0  0  0  # atno 4299 bound_to 2456
    1.4117   -7.9178    7.0897 LP  0  0  0  0  0  0  0  0  0  0  0  0  # atno 4300 bound_to 2456
    2.3931   -9.1311    5.7256 LP  0  0  0  0  0  0  0  0  0  0  0  0  # atno 4301 bound_to 2510
    2.1038   -7.5294    5.5929 LP  0  0  0  0  0  0  0  0  0  0  0  0  # atno 4302 bound_to 2510
   -3.1570  -17.4133   12.9563 LP  0  0  0  0  0  0  0  0  0  0  0  0  # atno 4306 bound_to 3712
   -2.6323  -18.1152   14.3342 LP  0  0  0  0  0  0  0  0  0  0  0  0  # atno 4307 bound_to 3712
    1.8529  -20.9018    9.5466 LP  0  0  0  0  0  0  0  0  0  0  0  0  # atno 4314 bound_to 3832
    1.7588  -19.6588    8.4918 LP  0  0  0  0  0  0  0  0  0  0  0  0  # atno 4315 bound_to 3832
   -5.4772  -22.4316   10.3457 LP  0  0  0  0  0  0  0  0  0  0  0  0  # atno 4318 bound_to 3762
   -4.5257  -22.1300   11.6381 LP  0  0  0  0  0  0  0  0  0  0  0  0  # atno 4319 bound_to 3762
   -3.6366   -5.0189    8.5213 LP  0  0  0  0  0  0  0  0  0  0  0  0  # atno 4320 bound_to 2467
   -4.9872   -5.4580    9.3273 LP  0  0  0  0  0  0  0  0  0  0  0  0  # atno 4321 bound_to 2467

> <Gold.Score>
     Score     S(PLP)   S(hbond)     S(cho)   S(metal)  DE(clash)   DE(tors)     intcor
     50.72     -51.28       0.00       0.52       0.00       4.05       1.33       4.58

> <Gold.PLP.Fitness>
50.7237

> <Gold.PLP.PLP>
-51.2808

> <Gold.PLP.part.hbond>
0.0000

> <Gold.PLP.part.metal>
0.0000

> <Gold.PLP.part.buried>
-5.4384

> <Gold.PLP.part.nonpolar>
-47.5785

> <Gold.PLP.part.repulsive>
1.3051

> <Gold.PLP.ligand.clash>
4.0521

> <Gold.PLP.ligand.torsion>
1.3259

> <Gold.PLP.Chemscore.Hbond>
0.0000

> <Gold.PLP.Chemscore.CHOScore>
0.5219

> <Gold.PLP.Chemscore.Metal>
0.0000

> <Gold.Chemscore.Hbonds>
donor molecule, donor type, donor heavy atom, donor atom, acceptor molecule, acceptor atom, score
      L1  C    15    40       P1  3712  0.52

> <Gold.PLP.Chemscore.Internal.Correction>
4.5812

