#       Name:                EN300-246579_i001
#       Creating user name   fsindt
#       Creation time:       Wed Mar  1 10:42:11 2023


#       File generated by GOLD software.
#

@<TRIPOS>MOLECULE
EN300-246579_i001|acide_1|mol2|7898|dock14
    40    41     1
SMALL
USER_CHARGES


@<TRIPOS>ATOM
      1 C1          -0.0986 -17.9990  15.1705 C.3            1 <1>                0.0000
      2 C2           0.6222 -18.8023  14.0861 C.3            1 <1>                0.0000
      3 C3           1.9928 -18.1784  13.8155 C.3            1 <1>                0.0000
      4 C4           0.8033 -20.2467  14.5570 C.3            1 <1>                0.0000
      5 O5          -0.1662 -18.7858  12.8670 O.3            1 <1>                0.0000
      6 C6          -0.2086 -17.6274  12.1821 C.2            1 <1>                0.0000
      7 O7           0.0243 -16.5779  12.7484 O.2            1 <1>                0.0000
      8 N8          -0.5092 -17.6320  10.8683 N.am           1 <1>                0.0000
      9 C9          -0.7097 -18.8296  10.0393 C.3            1 <1>                0.0000
     10 C10         -1.0070 -18.3484   8.6034 C.3            1 <1>                0.0000
     11 C11         -0.3994 -16.9209   8.5826 C.3            1 <1>                0.0000
     12 C12         -0.6980 -16.4370  10.0259 C.3            1 <1>                0.0000
     13 C13          0.2888 -15.3416  10.4351 C.3            1 <1>                0.0000
     14 N14          0.6903 -14.5787   9.2507 N.pl3          1 <1>                0.0000
     15 C15          0.3102 -13.3249   8.9377 C.2            1 <1>                0.0000
     16 C16          0.9248 -13.0114   7.7448 C.2            1 <1>                0.0000
     17 N17          1.6595 -14.0705   7.3594 N.2            1 <1>                0.0000
     18 N18          1.5480 -15.0119   8.2303 N.2            1 <1>                0.0000
     19 C19          0.7988 -11.7384   7.0178 C.2            1 <1>                0.0000
     20 O20          0.2046 -10.7986   7.5283 O.co2          1 <1>                0.0000
     21 O21          1.2883 -11.6197   5.9029 O.co2          1 <1>               -1.0000
     22 H22         -0.2276 -16.9700  14.8352 H              1 <1>                0.0000
     23 H23         -1.0750 -18.4435  15.3633 H              1 <1>                0.0000
     24 H24          0.4932 -18.0113  16.0858 H              1 <1>                0.0000
     25 H25          2.5847 -18.1908  14.7308 H              1 <1>                0.0000
     26 H26          2.5064 -18.7507  13.0430 H              1 <1>                0.0000
     27 H27          1.8638 -17.1493  13.4802 H              1 <1>                0.0000
     28 H28         -0.1731 -20.6912  14.7497 H              1 <1>                0.0000
     29 H29          1.3169 -20.8190  13.7844 H              1 <1>                0.0000
     30 H30          1.3953 -20.2591  15.4721 H              1 <1>                0.0000
     31 H31          0.1930 -19.4405  10.0461 H              1 <1>                0.0000
     32 H32         -1.5530 -19.4064  10.4190 H              1 <1>                0.0000
     33 H33         -0.5132 -18.9884   7.8722 H              1 <1>                0.0000
     34 H34         -2.0814 -18.3129   8.4233 H              1 <1>                0.0000
     35 H35          0.6734 -16.9555   8.3926 H              1 <1>                0.0000
     36 H36         -0.9044 -16.2921   7.8492 H              1 <1>                0.0000
     37 H37         -1.7226 -16.0724  10.0995 H              1 <1>                0.0000
     38 H38         -0.1869 -14.6739  11.1534 H              1 <1>                0.0000
     39 H39          1.1688 -15.7967  10.8896 H              1 <1>                0.0000
     40 H40         -0.3486 -12.6888   9.5104 H              1 <1>                0.0000
@<TRIPOS>BOND
    1    1    2 1     
    2    1   22 1     
    3    1   23 1     
    4    1   24 1     
    5    2    3 1     
    6    2    4 1     
    7    2    5 1     
    8    3   25 1     
    9    3   26 1     
   10    3   27 1     
   11    4   28 1     
   12    4   29 1     
   13    4   30 1     
   14    5    6 1     
   15    6    7 2     
   16    6    8 am    
   17    8    9 1     
   18    8   12 1     
   19    9   10 1     
   20    9   31 1     
   21    9   32 1     
   22   10   11 1     
   23   10   33 1     
   24   10   34 1     
   25   11   12 1     
   26   11   35 1     
   27   11   36 1     
   28   12   13 1     
   29   12   37 1     
   30   13   14 1     
   31   13   38 1     
   32   13   39 1     
   33   14   15 1     
   34   14   18 1     
   35   15   16 2     
   36   15   40 1     
   37   16   17 1     
   38   16   19 1     
   39   17   18 2     
   40   19   20 ar    
   41   19   21 ar    
@<TRIPOS>SUBSTRUCTURE
      1 ****           1
@<TRIPOS>COMMENT
> <Gold.Version>
2022.2.0

> <Gold.Id.Protein>
3pbl|protein|mol2

> <Gold.Protein.RotatedTorsions>
[ 1303 1298 1297 1294 ] final  -95.30 input  179.99 | X-H torsion
[ 2461 2456 2455 2452 ] final -120.79 input   30.03 | X-H torsion
[ 2515 2510 2509 2506 ] final   -8.60 input  -89.99 | X-H torsion
[ 3721 3712 3711 3710 ] final  -48.75 input -179.91 | X-H torsion
[ 3841 3832 3831 3830 ] final -133.51 input -179.91 | X-H torsion
[ 3767 3762 3761 3758 ] final  -54.49 input  -89.99 | X-H torsion
[ 2472 2467 2466 2463 ] final -130.15 input  -89.97 | X-H torsion

> <Gold.Protein.ActiveResidues>
 VAL82   VAL86   LEU89   PHE106  VAL107  ASP110  VAL111  MET112  CYS114  THR115 
 CYS181  SER182  ILE183  PHE188  VAL189  ILE190  SER192  SER193  SER196  TRP342 
 PHE345  PHE346  HIS349  VAL350  TYR365  THR369  GLY372  TYR373 

> <Gold.Protein.RotatedAtoms>
    3.8954   -8.5840    3.9013 H   0  0  0  0  0  0  0  0  0  0  0  0  # atno 1303 bound_to 1298
    0.5843   -9.1794    8.0612 H   0  0  0  0  0  0  0  0  0  0  0  0  # atno 2461 bound_to 2456
   -4.6673   -5.4589    9.4253 H   0  0  0  0  0  0  0  0  0  0  0  0  # atno 2472 bound_to 2467
    2.5978   -7.7265    4.5230 H   0  0  0  0  0  0  0  0  0  0  0  0  # atno 2515 bound_to 2510
   -2.7198  -17.4764   14.7182 H   0  0  0  0  0  0  0  0  0  0  0  0  # atno 3721 bound_to 3712
   -5.4857  -22.1045   10.7340 H   0  0  0  0  0  0  0  0  0  0  0  0  # atno 3767 bound_to 3762
    2.4086  -19.6443    8.3882 H   0  0  0  0  0  0  0  0  0  0  0  0  # atno 3841 bound_to 3832
    4.8903   -9.3983    4.9080 LP  0  0  0  0  0  0  0  0  0  0  0  0  # atno 4297 bound_to 1298
    3.5765  -10.1394    4.2825 LP  0  0  0  0  0  0  0  0  0  0  0  0  # atno 4298 bound_to 1298
    2.1245   -8.6363    8.0563 LP  0  0  0  0  0  0  0  0  0  0  0  0  # atno 4299 bound_to 2456
    1.0288   -7.9927    7.0308 LP  0  0  0  0  0  0  0  0  0  0  0  0  # atno 4300 bound_to 2456
    2.6683   -9.2408    5.1294 LP  0  0  0  0  0  0  0  0  0  0  0  0  # atno 4301 bound_to 2510
    2.0306   -8.0321    6.0232 LP  0  0  0  0  0  0  0  0  0  0  0  0  # atno 4302 bound_to 2510
   -3.5646  -16.5897   13.6800 LP  0  0  0  0  0  0  0  0  0  0  0  0  # atno 4306 bound_to 3712
   -2.8231  -17.9598   13.1906 LP  0  0  0  0  0  0  0  0  0  0  0  0  # atno 4307 bound_to 3712
    2.9627  -21.0315    8.9754 LP  0  0  0  0  0  0  0  0  0  0  0  0  # atno 4314 bound_to 3832
    1.4844  -20.4817    9.3985 LP  0  0  0  0  0  0  0  0  0  0  0  0  # atno 4315 bound_to 3832
   -4.1475  -22.4660   11.5973 LP  0  0  0  0  0  0  0  0  0  0  0  0  # atno 4318 bound_to 3762
   -4.4945  -23.3044   10.2397 LP  0  0  0  0  0  0  0  0  0  0  0  0  # atno 4319 bound_to 3762
   -5.3328   -5.0180    8.0008 LP  0  0  0  0  0  0  0  0  0  0  0  0  # atno 4320 bound_to 2467
   -3.7169   -4.9167    8.2132 LP  0  0  0  0  0  0  0  0  0  0  0  0  # atno 4321 bound_to 2467

> <Gold.Score>
     Score     S(PLP)   S(hbond)     S(cho)   S(metal)  DE(clash)   DE(tors)     intcor
     46.78     -45.47       0.94       0.00       0.00       4.06       1.02       4.58

> <Gold.PLP.Fitness>
46.7849

> <Gold.PLP.PLP>
-45.4732

> <Gold.PLP.part.hbond>
-1.0000

> <Gold.PLP.part.metal>
0.0000

> <Gold.PLP.part.buried>
-7.6980

> <Gold.PLP.part.nonpolar>
-38.5379

> <Gold.PLP.part.repulsive>
1.2405

> <Gold.PLP.ligand.clash>
4.0644

> <Gold.PLP.ligand.torsion>
1.0186

> <Gold.PLP.Chemscore.Hbond>
0.9440

> <Gold.PLP.Chemscore.CHOScore>
0.0000

> <Gold.PLP.Chemscore.Metal>
0.0000

> <Gold.Chemscore.Hbonds>
donor molecule, donor type, donor heavy atom, donor atom, acceptor molecule, acceptor atom, score
      P1  H  2456  2461       L1    20  0.94

> <Gold.PLP.Chemscore.Internal.Correction>
4.5812

