#       Name:                EN300-246579_i001
#       Creating user name   fsindt
#       Creation time:       Wed Mar  1 10:42:06 2023


#       File generated by GOLD software.
#

@<TRIPOS>MOLECULE
EN300-246579_i001|acide_1|mol2|7898|dock11
    40    41     1
SMALL
USER_CHARGES


@<TRIPOS>ATOM
      1 C1          -2.0635 -10.9586  12.0841 C.3            1 <1>                0.0000
      2 C2          -1.4796 -10.7822  10.6810 C.3            1 <1>                0.0000
      3 C3          -2.5909 -10.9447   9.6419 C.3            1 <1>                0.0000
      4 C4          -0.8648  -9.3868  10.5562 C.3            1 <1>                0.0000
      5 O5          -0.4543 -11.7849  10.4539 O.3            1 <1>                0.0000
      6 C6          -0.0900 -12.0084   9.1771 C.2            1 <1>                0.0000
      7 O7          -0.1507 -11.1095   8.3618 O.2            1 <1>                0.0000
      8 N8           0.3423 -13.2290   8.8034 N.am           1 <1>                0.0000
      9 C9           0.6712 -13.6382   7.4302 C.3            1 <1>                0.0000
     10 C10          1.0940 -15.1215   7.4829 C.3            1 <1>                0.0000
     11 C11          0.4378 -15.6234   8.7962 C.3            1 <1>                0.0000
     12 C12          0.5698 -14.3731   9.7049 C.3            1 <1>                0.0000
     13 C13         -0.4944 -14.3988  10.8040 C.3            1 <1>                0.0000
     14 N14          0.0344 -15.0948  11.9795 N.pl3          1 <1>                0.0000
     15 C15          0.8282 -16.1830  11.9774 C.2            1 <1>                0.0000
     16 C16          1.0780 -16.4930  13.2968 C.2            1 <1>                0.0000
     17 N17          0.4372 -15.5959  14.0680 N.2            1 <1>                0.0000
     18 N18         -0.1844 -14.7517  13.3209 N.2            1 <1>                0.0000
     19 C19          1.9025 -17.6122  13.7789 C.2            1 <1>                0.0000
     20 O20          2.1908 -17.6929  14.9652 O.co2          1 <1>                0.0000
     21 O21          2.2998 -18.4619  12.9936 O.co2          1 <1>               -1.0000
     22 H22         -2.5016 -11.9527  12.1730 H              1 <1>                0.0000
     23 H23         -1.2719 -10.8428  12.8243 H              1 <1>                0.0000
     24 H24         -2.8333 -10.2059  12.2546 H              1 <1>                0.0000
     25 H25         -3.3606 -10.1919   9.8124 H              1 <1>                0.0000
     26 H26         -2.1749 -10.8190   8.6423 H              1 <1>                0.0000
     27 H27         -3.0289 -11.9388   9.7309 H              1 <1>                0.0000
     28 H28         -0.0731  -9.2710  11.2964 H              1 <1>                0.0000
     29 H29         -0.4488  -9.2611   9.5565 H              1 <1>                0.0000
     30 H30         -1.6345  -8.6340  10.7266 H              1 <1>                0.0000
     31 H31         -0.2036 -13.5247   6.7899 H              1 <1>                0.0000
     32 H32          1.4931 -13.0318   7.0494 H              1 <1>                0.0000
     33 H33          0.7016 -15.6651   6.6234 H              1 <1>                0.0000
     34 H34          2.1790 -15.2116   7.5350 H              1 <1>                0.0000
     35 H35         -0.6081 -15.8849   8.6353 H              1 <1>                0.0000
     36 H36          0.9901 -16.4663   9.2116 H              1 <1>                0.0000
     37 H37          1.5670 -14.3257  10.1425 H              1 <1>                0.0000
     38 H38         -0.7608 -13.3774  11.0757 H              1 <1>                0.0000
     39 H39         -1.3796 -14.9207  10.4404 H              1 <1>                0.0000
     40 H40          1.1972 -16.7104  11.1101 H              1 <1>                0.0000
@<TRIPOS>BOND
    1    1    2 1     
    2    1   22 1     
    3    1   23 1     
    4    1   24 1     
    5    2    3 1     
    6    2    4 1     
    7    2    5 1     
    8    3   25 1     
    9    3   26 1     
   10    3   27 1     
   11    4   28 1     
   12    4   29 1     
   13    4   30 1     
   14    5    6 1     
   15    6    7 2     
   16    6    8 am    
   17    8    9 1     
   18    8   12 1     
   19    9   10 1     
   20    9   31 1     
   21    9   32 1     
   22   10   11 1     
   23   10   33 1     
   24   10   34 1     
   25   11   12 1     
   26   11   35 1     
   27   11   36 1     
   28   12   13 1     
   29   12   37 1     
   30   13   14 1     
   31   13   38 1     
   32   13   39 1     
   33   14   15 1     
   34   14   18 1     
   35   15   16 2     
   36   15   40 1     
   37   16   17 1     
   38   16   19 1     
   39   17   18 2     
   40   19   20 ar    
   41   19   21 ar    
@<TRIPOS>SUBSTRUCTURE
      1 ****           1
@<TRIPOS>COMMENT
> <Gold.Version>
2022.2.0

> <Gold.Id.Protein>
3pbl|protein|mol2

> <Gold.Protein.RotatedTorsions>
[ 1303 1298 1297 1294 ] final -124.61 input  179.99 | X-H torsion
[ 2461 2456 2455 2452 ] final -126.57 input   30.03 | X-H torsion
[ 2515 2510 2509 2506 ] final  144.59 input  -89.99 | X-H torsion
[ 3721 3712 3711 3710 ] final   75.64 input -179.91 | X-H torsion
[ 3841 3832 3831 3830 ] final -175.32 input -179.91 | X-H torsion
[ 3767 3762 3761 3758 ] final   64.12 input  -89.99 | X-H torsion
[ 2472 2467 2466 2463 ] final   36.12 input  -89.97 | X-H torsion

> <Gold.Protein.ActiveResidues>
 VAL82   VAL86   LEU89   PHE106  VAL107  ASP110  VAL111  MET112  CYS114  THR115 
 CYS181  SER182  ILE183  PHE188  VAL189  ILE190  SER192  SER193  SER196  TRP342 
 PHE345  PHE346  HIS349  VAL350  TYR365  THR369  GLY372  TYR373 

> <Gold.Protein.RotatedAtoms>
    4.2956   -8.4757    4.1373 H   0  0  0  0  0  0  0  0  0  0  0  0  # atno 1303 bound_to 1298
    0.6514   -9.2139    8.1191 H   0  0  0  0  0  0  0  0  0  0  0  0  # atno 2461 bound_to 2456
   -4.2584   -4.7999    7.7214 H   0  0  0  0  0  0  0  0  0  0  0  0  # atno 2472 bound_to 2467
    2.1187   -8.5597    6.0845 H   0  0  0  0  0  0  0  0  0  0  0  0  # atno 2515 bound_to 2510
   -2.6841  -17.7720   13.2150 H   0  0  0  0  0  0  0  0  0  0  0  0  # atno 3721 bound_to 3712
   -4.5127  -23.2989   10.2274 H   0  0  0  0  0  0  0  0  0  0  0  0  # atno 3767 bound_to 3762
    2.9153  -19.9974    8.3906 H   0  0  0  0  0  0  0  0  0  0  0  0  # atno 3841 bound_to 3832
    4.7015   -9.8348    4.9462 LP  0  0  0  0  0  0  0  0  0  0  0  0  # atno 4297 bound_to 1298
    3.3650   -9.8112    4.0082 LP  0  0  0  0  0  0  0  0  0  0  0  0  # atno 4298 bound_to 1298
    2.1459   -8.5671    7.9946 LP  0  0  0  0  0  0  0  0  0  0  0  0  # atno 4299 bound_to 2456
    0.9403   -8.0274    7.0346 LP  0  0  0  0  0  0  0  0  0  0  0  0  # atno 4300 bound_to 2456
    2.3692   -7.4433    4.9197 LP  0  0  0  0  0  0  0  0  0  0  0  0  # atno 4301 bound_to 2510
    2.8090   -8.9961    4.6707 LP  0  0  0  0  0  0  0  0  0  0  0  0  # atno 4302 bound_to 2510
   -2.8614  -17.6422   14.8055 LP  0  0  0  0  0  0  0  0  0  0  0  0  # atno 4306 bound_to 3712
   -3.5675  -16.5660   13.8006 LP  0  0  0  0  0  0  0  0  0  0  0  0  # atno 4307 bound_to 3712
    2.4433  -21.1499    9.4031 LP  0  0  0  0  0  0  0  0  0  0  0  0  # atno 4314 bound_to 3832
    1.4184  -19.9553    8.9681 LP  0  0  0  0  0  0  0  0  0  0  0  0  # atno 4315 bound_to 3832
   -5.4809  -22.0936   10.7533 LP  0  0  0  0  0  0  0  0  0  0  0  0  # atno 4318 bound_to 3762
   -4.1338  -22.4828   11.5902 LP  0  0  0  0  0  0  0  0  0  0  0  0  # atno 4319 bound_to 3762
   -3.9639   -5.3149    9.2427 LP  0  0  0  0  0  0  0  0  0  0  0  0  # atno 4320 bound_to 2467
   -5.4945   -5.2787    8.6749 LP  0  0  0  0  0  0  0  0  0  0  0  0  # atno 4321 bound_to 2467

> <Gold.Score>
     Score     S(PLP)   S(hbond)     S(cho)   S(metal)  DE(clash)   DE(tors)     intcor
     57.61     -50.66       1.98       1.00       0.00       4.01       1.28       4.58

> <Gold.PLP.Fitness>
57.6125

> <Gold.PLP.PLP>
-50.6635

> <Gold.PLP.part.hbond>
-2.0000

> <Gold.PLP.part.metal>
0.0000

> <Gold.PLP.part.buried>
-3.3713

> <Gold.PLP.part.nonpolar>
-46.7411

> <Gold.PLP.part.repulsive>
0.3152

> <Gold.PLP.ligand.clash>
4.0067

> <Gold.PLP.ligand.torsion>
1.2752

> <Gold.PLP.Chemscore.Hbond>
1.9750

> <Gold.PLP.Chemscore.CHOScore>
1.0000

> <Gold.PLP.Chemscore.Metal>
0.0000

> <Gold.Chemscore.Hbonds>
donor molecule, donor type, donor heavy atom, donor atom, acceptor molecule, acceptor atom, score
      P1  H  2456  2461       L1     7  1.00
      P1  H  2305  2313       L1    17  0.98
      L1  C    15    40       P1  1227  1.00

> <Gold.PLP.Chemscore.Internal.Correction>
4.5812

