#       Name:                EN300-246579_i001
#       Creating user name   fsindt
#       Creation time:       Wed Mar  1 10:42:14 2023


#       File generated by GOLD software.
#

@<TRIPOS>MOLECULE
EN300-246579_i001|acide_1|mol2|7898|dock16
    40    41     1
SMALL
USER_CHARGES


@<TRIPOS>ATOM
      1 C1          -0.7279  -9.1779  10.4419 C.3            1 <1>                0.0000
      2 C2          -1.3701 -10.5280  10.7671 C.3            1 <1>                0.0000
      3 C3          -1.8244 -10.5381  12.2281 C.3            1 <1>                0.0000
      4 C4          -2.5786 -10.7505   9.8557 C.3            1 <1>                0.0000
      5 O5          -0.4014 -11.5885  10.5542 O.3            1 <1>                0.0000
      6 C6          -0.1405 -11.9309   9.2785 C.2            1 <1>                0.0000
      7 O7          -0.2284 -11.1001   8.3962 O.2            1 <1>                0.0000
      8 N8           0.2184 -13.1953   8.9801 N.am           1 <1>                0.0000
      9 C9           0.4303 -13.7291   7.6267 C.3            1 <1>                0.0000
     10 C10          0.8016 -15.2197   7.7750 C.3            1 <1>                0.0000
     11 C11          0.2260 -15.5841   9.1690 C.3            1 <1>                0.0000
     12 C12          0.4700 -14.2703   9.9570 C.3            1 <1>                0.0000
     13 C13         -0.5107 -14.1609  11.1264 C.3            1 <1>                0.0000
     14 N14         -0.1998 -15.1893  12.1222 N.pl3          1 <1>                0.0000
     15 C15         -0.4822 -16.5033  12.0329 C.2            1 <1>                0.0000
     16 C16         -0.0116 -17.0885  13.1884 C.2            1 <1>                0.0000
     17 N17          0.5425 -16.1281  13.9505 N.2            1 <1>                0.0000
     18 N18          0.4535 -14.9945  13.3469 N.2            1 <1>                0.0000
     19 C19         -0.1001 -18.5169  13.5301 C.2            1 <1>                0.0000
     20 O20         -1.0049 -19.2007  13.0710 O.co2          1 <1>                0.0000
     21 O21          0.7310 -19.0208  14.2731 O.co2          1 <1>               -1.0000
     22 H22          0.1330  -9.0193  11.0913 H              1 <1>                0.0000
     23 H23         -0.4043  -9.1708   9.4011 H              1 <1>                0.0000
     24 H24         -1.4550  -8.3818  10.6018 H              1 <1>                0.0000
     25 H25         -2.5516  -9.7419  12.3879 H              1 <1>                0.0000
     26 H26         -2.2820 -11.4998  12.4597 H              1 <1>                0.0000
     27 H27         -0.9634 -10.3794  12.8774 H              1 <1>                0.0000
     28 H28         -2.2550 -10.7435   8.8148 H              1 <1>                0.0000
     29 H29         -3.0362 -11.7124  10.0873 H              1 <1>                0.0000
     30 H30         -3.3059  -9.9545  10.0155 H              1 <1>                0.0000
     31 H31         -0.4846 -13.6314   7.0422 H              1 <1>                0.0000
     32 H32          1.2434 -13.1913   7.1391 H              1 <1>                0.0000
     33 H33          0.3275 -15.8147   6.9944 H              1 <1>                0.0000
     34 H34          1.8835 -15.3511   7.7581 H              1 <1>                0.0000
     35 H35         -0.8377 -15.8134   9.1048 H              1 <1>                0.0000
     36 H36          0.7765 -16.4129   9.6144 H              1 <1>                0.0000
     37 H37          1.4978 -14.2295  10.3177 H              1 <1>                0.0000
     38 H38         -0.4233 -13.1749  11.5828 H              1 <1>                0.0000
     39 H39         -1.5280 -14.3037  10.7619 H              1 <1>                0.0000
     40 H40         -0.9810 -17.0016  11.2147 H              1 <1>                0.0000
@<TRIPOS>BOND
    1    1    2 1     
    2    1   22 1     
    3    1   23 1     
    4    1   24 1     
    5    2    3 1     
    6    2    4 1     
    7    2    5 1     
    8    3   25 1     
    9    3   26 1     
   10    3   27 1     
   11    4   28 1     
   12    4   29 1     
   13    4   30 1     
   14    5    6 1     
   15    6    7 2     
   16    6    8 am    
   17    8    9 1     
   18    8   12 1     
   19    9   10 1     
   20    9   31 1     
   21    9   32 1     
   22   10   11 1     
   23   10   33 1     
   24   10   34 1     
   25   11   12 1     
   26   11   35 1     
   27   11   36 1     
   28   12   13 1     
   29   12   37 1     
   30   13   14 1     
   31   13   38 1     
   32   13   39 1     
   33   14   15 1     
   34   14   18 1     
   35   15   16 2     
   36   15   40 1     
   37   16   17 1     
   38   16   19 1     
   39   17   18 2     
   40   19   20 ar    
   41   19   21 ar    
@<TRIPOS>SUBSTRUCTURE
      1 ****           1
@<TRIPOS>COMMENT
> <Gold.Version>
2022.2.0

> <Gold.Id.Protein>
3pbl|protein|mol2

> <Gold.Protein.RotatedTorsions>
[ 1303 1298 1297 1294 ] final  -91.67 input  179.99 | X-H torsion
[ 2461 2456 2455 2452 ] final -128.08 input   30.03 | X-H torsion
[ 2515 2510 2509 2506 ] final  -68.19 input  -89.99 | X-H torsion
[ 3721 3712 3711 3710 ] final   45.78 input -179.91 | X-H torsion
[ 3841 3832 3831 3830 ] final  -27.99 input -179.91 | X-H torsion
[ 3767 3762 3761 3758 ] final  104.68 input  -89.99 | X-H torsion
[ 2472 2467 2466 2463 ] final  101.40 input  -89.97 | X-H torsion

> <Gold.Protein.ActiveResidues>
 VAL82   VAL86   LEU89   PHE106  VAL107  ASP110  VAL111  MET112  CYS114  THR115 
 CYS181  SER182  ILE183  PHE188  VAL189  ILE190  SER192  SER193  SER196  TRP342 
 PHE345  PHE346  HIS349  VAL350  TYR365  THR369  GLY372  TYR373 

> <Gold.Protein.RotatedAtoms>
    3.8479   -8.6126    3.8793 H   0  0  0  0  0  0  0  0  0  0  0  0  # atno 1303 bound_to 1298
    0.6699   -9.2218    8.1335 H   0  0  0  0  0  0  0  0  0  0  0  0  # atno 2461 bound_to 2456
   -5.2438   -4.9739    7.9035 H   0  0  0  0  0  0  0  0  0  0  0  0  # atno 2472 bound_to 2467
    2.8335   -8.6277    4.4248 H   0  0  0  0  0  0  0  0  0  0  0  0  # atno 2515 bound_to 2510
   -2.5269  -17.9912   13.5706 H   0  0  0  0  0  0  0  0  0  0  0  0  # atno 3721 bound_to 3712
   -4.0540  -23.2831   10.6928 H   0  0  0  0  0  0  0  0  0  0  0  0  # atno 3767 bound_to 3762
    1.5758  -20.1546    9.3608 H   0  0  0  0  0  0  0  0  0  0  0  0  # atno 3841 bound_to 3832
    4.9005   -9.3414    4.8929 LP  0  0  0  0  0  0  0  0  0  0  0  0  # atno 4297 bound_to 1298
    3.6139  -10.1676    4.3195 LP  0  0  0  0  0  0  0  0  0  0  0  0  # atno 4298 bound_to 1298
    2.1500   -8.5491    7.9781 LP  0  0  0  0  0  0  0  0  0  0  0  0  # atno 4299 bound_to 2456
    0.9177   -8.0374    7.0367 LP  0  0  0  0  0  0  0  0  0  0  0  0  # atno 4300 bound_to 2456
    2.2693   -8.9447    5.9238 LP  0  0  0  0  0  0  0  0  0  0  0  0  # atno 4301 bound_to 2510
    2.1937   -7.4266    5.3270 LP  0  0  0  0  0  0  0  0  0  0  0  0  # atno 4302 bound_to 2510
   -3.1024  -17.2144   14.8524 LP  0  0  0  0  0  0  0  0  0  0  0  0  # atno 4306 bound_to 3712
   -3.5080  -16.7408   13.3432 LP  0  0  0  0  0  0  0  0  0  0  0  0  # atno 4307 bound_to 3712
    2.5625  -19.8211    8.1395 LP  0  0  0  0  0  0  0  0  0  0  0  0  # atno 4314 bound_to 3832
    2.8466  -21.1026    9.1110 LP  0  0  0  0  0  0  0  0  0  0  0  0  # atno 4315 bound_to 3832
   -5.4378  -22.5279   10.2668 LP  0  0  0  0  0  0  0  0  0  0  0  0  # atno 4318 bound_to 3762
   -4.6353  -22.0644   11.6114 LP  0  0  0  0  0  0  0  0  0  0  0  0  # atno 4319 bound_to 3762
   -3.6697   -4.9564    8.3376 LP  0  0  0  0  0  0  0  0  0  0  0  0  # atno 4320 bound_to 2467
   -4.8035   -5.4632    9.3979 LP  0  0  0  0  0  0  0  0  0  0  0  0  # atno 4321 bound_to 2467

> <Gold.Score>
     Score     S(PLP)   S(hbond)     S(cho)   S(metal)  DE(clash)   DE(tors)     intcor
     50.23     -46.12       1.91       0.00       0.00       4.01       1.11       4.58

> <Gold.PLP.Fitness>
50.2256

> <Gold.PLP.PLP>
-46.1209

> <Gold.PLP.part.hbond>
-2.0000

> <Gold.PLP.part.metal>
0.0000

> <Gold.PLP.part.buried>
-3.7340

> <Gold.PLP.part.nonpolar>
-42.0944

> <Gold.PLP.part.repulsive>
0.0878

> <Gold.PLP.ligand.clash>
4.0067

> <Gold.PLP.ligand.torsion>
1.1068

> <Gold.PLP.Chemscore.Hbond>
1.9146

> <Gold.PLP.Chemscore.CHOScore>
0.0000

> <Gold.PLP.Chemscore.Metal>
0.0000

> <Gold.Chemscore.Hbonds>
donor molecule, donor type, donor heavy atom, donor atom, acceptor molecule, acceptor atom, score
      P1  H  2456  2461       L1     7  1.00
      P1  H  2305  2313       L1    17  0.01
      P1  H  3712  3721       L1    20  0.90

> <Gold.PLP.Chemscore.Internal.Correction>
4.5812

