#       Name:                EN300-246579_i001
#       Creating user name   fsindt
#       Creation time:       Wed Mar  1 10:41:56 2023


#       File generated by GOLD software.
#

@<TRIPOS>MOLECULE
EN300-246579_i001|acide_1|mol2|7898|dock3
    40    41     1
SMALL
USER_CHARGES


@<TRIPOS>ATOM
      1 C1          -0.6923  -9.2953  10.4949 C.3            1 <1>                0.0000
      2 C2          -1.2282 -10.7216  10.6338 C.3            1 <1>                0.0000
      3 C3          -1.6120 -10.9825  12.0918 C.3            1 <1>                0.0000
      4 C4          -2.4607 -10.8923   9.7436 C.3            1 <1>                0.0000
      5 O5          -0.2027 -11.6657  10.2270 O.3            1 <1>                0.0000
      6 C6           0.0165 -11.7980   8.9052 C.2            1 <1>                0.0000
      7 O7          -0.1706 -10.8559   8.1610 O.2            1 <1>                0.0000
      8 N8           0.4437 -12.9754   8.4075 N.am           1 <1>                0.0000
      9 C9           0.6229 -13.2888   6.9823 C.3            1 <1>                0.0000
     10 C10          1.0999 -14.7538   6.8918 C.3            1 <1>                0.0000
     11 C11          0.6202 -15.3591   8.2374 C.3            1 <1>                0.0000
     12 C12          0.8149 -14.1602   9.2023 C.3            1 <1>                0.0000
     13 C13         -0.1113 -14.2950  10.4128 C.3            1 <1>                0.0000
     14 N14          0.5321 -15.1309  11.4293 N.pl3          1 <1>                0.0000
     15 C15         -0.0881 -15.8875  12.3553 C.2            1 <1>                0.0000
     16 C16          0.9017 -16.4979  13.0949 C.2            1 <1>                0.0000
     17 N17          2.0929 -16.1042  12.6089 N.2            1 <1>                0.0000
     18 N18          1.9103 -15.3007  11.6199 N.2            1 <1>                0.0000
     19 C19          0.6920 -17.4203  14.2218 C.2            1 <1>                0.0000
     20 O20         -0.4437 -17.6873  14.5906 O.co2          1 <1>                0.0000
     21 O21          1.6531 -17.9203  14.7900 O.co2          1 <1>               -1.0000
     22 H22          0.1857  -9.1736  11.1292 H              1 <1>                0.0000
     23 H23         -0.4189  -9.1094   9.4563 H              1 <1>                0.0000
     24 H24         -1.4621  -8.5866  10.8003 H              1 <1>                0.0000
     25 H25         -2.3819 -10.2738  12.3972 H              1 <1>                0.0000
     26 H26         -1.9938 -11.9986  12.1907 H              1 <1>                0.0000
     27 H27         -0.7340 -10.8608  12.7260 H              1 <1>                0.0000
     28 H28         -2.1872 -10.7065   8.7049 H              1 <1>                0.0000
     29 H29         -2.8425 -11.9085   9.8425 H              1 <1>                0.0000
     30 H30         -3.2306 -10.1837  10.0490 H              1 <1>                0.0000
     31 H31         -0.3245 -13.1742   6.4556 H              1 <1>                0.0000
     32 H32          1.3729 -12.6274   6.5487 H              1 <1>                0.0000
     33 H33          0.6282 -15.2616   6.0504 H              1 <1>                0.0000
     34 H34          2.1859 -14.8015   6.8128 H              1 <1>                0.0000
     35 H35         -0.4278 -15.6540   8.1818 H              1 <1>                0.0000
     36 H36          1.2462 -16.2014   8.5321 H              1 <1>                0.0000
     37 H37          1.8544 -14.0972   9.5243 H              1 <1>                0.0000
     38 H38         -0.3122 -13.3076  10.8283 H              1 <1>                0.0000
     39 H39         -1.0490 -14.7566  10.1031 H              1 <1>                0.0000
     40 H40         -1.1541 -15.9948  12.4917 H              1 <1>                0.0000
@<TRIPOS>BOND
    1    1    2 1     
    2    1   22 1     
    3    1   23 1     
    4    1   24 1     
    5    2    3 1     
    6    2    4 1     
    7    2    5 1     
    8    3   25 1     
    9    3   26 1     
   10    3   27 1     
   11    4   28 1     
   12    4   29 1     
   13    4   30 1     
   14    5    6 1     
   15    6    7 2     
   16    6    8 am    
   17    8    9 1     
   18    8   12 1     
   19    9   10 1     
   20    9   31 1     
   21    9   32 1     
   22   10   11 1     
   23   10   33 1     
   24   10   34 1     
   25   11   12 1     
   26   11   35 1     
   27   11   36 1     
   28   12   13 1     
   29   12   37 1     
   30   13   14 1     
   31   13   38 1     
   32   13   39 1     
   33   14   15 1     
   34   14   18 1     
   35   15   16 2     
   36   15   40 1     
   37   16   17 1     
   38   16   19 1     
   39   17   18 2     
   40   19   20 ar    
   41   19   21 ar    
@<TRIPOS>SUBSTRUCTURE
      1 ****           1
@<TRIPOS>COMMENT
> <Gold.Version>
2022.2.0

> <Gold.Id.Protein>
3pbl|protein|mol2

> <Gold.Protein.RotatedTorsions>
[ 1303 1298 1297 1294 ] final  162.76 input  179.99 | X-H torsion
[ 2461 2456 2455 2452 ] final -138.01 input   30.03 | X-H torsion
[ 2515 2510 2509 2506 ] final   92.73 input  -89.99 | X-H torsion
[ 3721 3712 3711 3710 ] final   -2.41 input -179.91 | X-H torsion
[ 3841 3832 3831 3830 ] final   22.40 input -179.91 | X-H torsion
[ 3767 3762 3761 3758 ] final   92.88 input  -89.99 | X-H torsion
[ 2472 2467 2466 2463 ] final   20.60 input  -89.97 | X-H torsion

> <Gold.Protein.ActiveResidues>
 VAL82   VAL86   LEU89   PHE106  VAL107  ASP110  VAL111  MET112  CYS114  THR115 
 CYS181  SER182  ILE183  PHE188  VAL189  ILE190  SER192  SER193  SER196  TRP342 
 PHE345  PHE346  HIS349  VAL350  TYR365  THR369  GLY372  TYR373 

> <Gold.Protein.RotatedAtoms>
    4.9091   -9.1186    4.8131 H   0  0  0  0  0  0  0  0  0  0  0  0  # atno 1303 bound_to 1298
    0.8012   -9.2635    8.2210 H   0  0  0  0  0  0  0  0  0  0  0  0  # atno 2461 bound_to 2456
   -4.0335   -4.8175    7.8391 H   0  0  0  0  0  0  0  0  0  0  0  0  # atno 2472 bound_to 2467
    2.0390   -7.7681    5.8688 H   0  0  0  0  0  0  0  0  0  0  0  0  # atno 2515 bound_to 2510
   -2.4923  -17.9421   14.2753 H   0  0  0  0  0  0  0  0  0  0  0  0  # atno 3721 bound_to 3712
   -4.1627  -23.3239   10.5374 H   0  0  0  0  0  0  0  0  0  0  0  0  # atno 3767 bound_to 3762
    1.9715  -20.7192    9.6213 H   0  0  0  0  0  0  0  0  0  0  0  0  # atno 3841 bound_to 3832
    3.7812  -10.2473    4.4667 LP  0  0  0  0  0  0  0  0  0  0  0  0  # atno 4297 bound_to 1298
    3.6716   -8.7555    3.8116 LP  0  0  0  0  0  0  0  0  0  0  0  0  # atno 4298 bound_to 1298
    2.1611   -8.4320    7.8650 LP  0  0  0  0  0  0  0  0  0  0  0  0  # atno 4299 bound_to 2456
    0.7753   -8.1128    7.0623 LP  0  0  0  0  0  0  0  0  0  0  0  0  # atno 4300 bound_to 2456
    2.7069   -7.9818    4.3944 LP  0  0  0  0  0  0  0  0  0  0  0  0  # atno 4301 bound_to 2510
    2.5510   -9.2495    5.4118 LP  0  0  0  0  0  0  0  0  0  0  0  0  # atno 4302 bound_to 2510
   -3.4551  -16.6656   14.4217 LP  0  0  0  0  0  0  0  0  0  0  0  0  # atno 4306 bound_to 3712
   -3.1951  -17.3463   12.9603 LP  0  0  0  0  0  0  0  0  0  0  0  0  # atno 4307 bound_to 3712
    1.8248  -19.6445    8.4382 LP  0  0  0  0  0  0  0  0  0  0  0  0  # atno 4314 bound_to 3832
    3.1272  -20.6269    8.5114 LP  0  0  0  0  0  0  0  0  0  0  0  0  # atno 4315 bound_to 3832
   -5.4911  -22.3859   10.3878 LP  0  0  0  0  0  0  0  0  0  0  0  0  # atno 4318 bound_to 3762
   -4.4734  -22.1655   11.6458 LP  0  0  0  0  0  0  0  0  0  0  0  0  # atno 4319 bound_to 3762
   -4.1769   -5.3823    9.3646 LP  0  0  0  0  0  0  0  0  0  0  0  0  # atno 4320 bound_to 2467
   -5.5064   -5.1936    8.4353 LP  0  0  0  0  0  0  0  0  0  0  0  0  # atno 4321 bound_to 2467

> <Gold.Score>
     Score     S(PLP)   S(hbond)     S(cho)   S(metal)  DE(clash)   DE(tors)     intcor
     60.44     -56.43       1.93       0.00       0.00       4.01       1.18       4.58

> <Gold.PLP.Fitness>
60.4355

> <Gold.PLP.PLP>
-56.4295

> <Gold.PLP.part.hbond>
-2.0000

> <Gold.PLP.part.metal>
0.0000

> <Gold.PLP.part.buried>
-7.3959

> <Gold.PLP.part.nonpolar>
-48.7843

> <Gold.PLP.part.repulsive>
0.6053

> <Gold.PLP.ligand.clash>
4.0067

> <Gold.PLP.ligand.torsion>
1.1763

> <Gold.PLP.Chemscore.Hbond>
1.9280

> <Gold.PLP.Chemscore.CHOScore>
0.0000

> <Gold.PLP.Chemscore.Metal>
0.0000

> <Gold.Chemscore.Hbonds>
donor molecule, donor type, donor heavy atom, donor atom, acceptor molecule, acceptor atom, score
      P1  H  2456  2461       L1     7  1.00
      P1  H  3712  3721       L1    20  0.93

> <Gold.PLP.Chemscore.Internal.Correction>
4.5812

