#       Name:                EN300-246579_i001
#       Creating user name   fsindt
#       Creation time:       Wed Mar  1 10:42:04 2023


#       File generated by GOLD software.
#

@<TRIPOS>MOLECULE
EN300-246579_i001|acide_1|mol2|7898|dock9
    40    41     1
SMALL
USER_CHARGES


@<TRIPOS>ATOM
      1 C1           2.3026 -18.4151  13.1359 C.3            1 <1>                0.0000
      2 C2           1.2195 -17.4833  13.6831 C.3            1 <1>                0.0000
      3 C3           0.4976 -18.1677  14.8456 C.3            1 <1>                0.0000
      4 C4           1.8639 -16.1861  14.1757 C.3            1 <1>                0.0000
      5 O5           0.2650 -17.1807  12.6316 O.3            1 <1>                0.0000
      6 C6          -0.2238 -18.2218  11.9316 C.2            1 <1>                0.0000
      7 O7          -0.3353 -19.3103  12.4599 O.2            1 <1>                0.0000
      8 N8          -0.5896 -18.0565  10.6450 N.am           1 <1>                0.0000
      9 C9          -1.0386 -19.1230   9.7381 C.3            1 <1>                0.0000
     10 C10         -1.3231 -18.4704   8.3688 C.3            1 <1>                0.0000
     11 C11         -0.4788 -17.1698   8.4216 C.3            1 <1>                0.0000
     12 C12         -0.6121 -16.7754   9.9159 C.3            1 <1>                0.0000
     13 C13          0.5701 -15.9036  10.3441 C.3            1 <1>                0.0000
     14 N14          0.4254 -14.5658   9.7652 N.pl3          1 <1>                0.0000
     15 C15          0.8745 -14.1598   8.5619 C.2            1 <1>                0.0000
     16 C16          0.5179 -12.8349   8.4329 C.2            1 <1>                0.0000
     17 N17         -0.1348 -12.4647   9.5496 N.2            1 <1>                0.0000
     18 N18         -0.2123 -13.4658  10.3552 N.2            1 <1>                0.0000
     19 C19          0.8024 -11.9738   7.2743 C.2            1 <1>                0.0000
     20 O20          0.4492 -10.8024   7.2815 O.co2          1 <1>                0.0000
     21 O21          1.3920 -12.4290   6.3039 O.co2          1 <1>               -1.0000
     22 H22          1.8436 -19.3393  12.7850 H              1 <1>                0.0000
     23 H23          2.8169 -17.9275  12.3078 H              1 <1>                0.0000
     24 H24          3.0192 -18.6423  13.9253 H              1 <1>                0.0000
     25 H25          1.2142 -18.3948  15.6350 H              1 <1>                0.0000
     26 H26         -0.2740 -17.5038  15.2355 H              1 <1>                0.0000
     27 H27          0.0385 -19.0919  14.4947 H              1 <1>                0.0000
     28 H28          2.3781 -15.6985  13.3475 H              1 <1>                0.0000
     29 H29          1.0922 -15.5222  14.5656 H              1 <1>                0.0000
     30 H30          2.5804 -16.4132  14.9651 H              1 <1>                0.0000
     31 H31         -0.2566 -19.8753   9.6348 H              1 <1>                0.0000
     32 H32         -1.9480 -19.5815  10.1263 H              1 <1>                0.0000
     33 H33         -0.9873 -19.1156   7.5569 H              1 <1>                0.0000
     34 H34         -2.3830 -18.2382   8.2651 H              1 <1>                0.0000
     35 H35          0.5601 -17.3673   8.1574 H              1 <1>                0.0000
     36 H36         -0.9048 -16.4010   7.7768 H              1 <1>                0.0000
     37 H37         -1.5525 -16.2515  10.0877 H              1 <1>                0.0000
     38 H38          0.5914 -15.8287  11.4313 H              1 <1>                0.0000
     39 H39          1.4989 -16.3530   9.9927 H              1 <1>                0.0000
     40 H40          1.4104 -14.7568   7.8387 H              1 <1>                0.0000
@<TRIPOS>BOND
    1    1    2 1     
    2    1   22 1     
    3    1   23 1     
    4    1   24 1     
    5    2    3 1     
    6    2    4 1     
    7    2    5 1     
    8    3   25 1     
    9    3   26 1     
   10    3   27 1     
   11    4   28 1     
   12    4   29 1     
   13    4   30 1     
   14    5    6 1     
   15    6    7 2     
   16    6    8 am    
   17    8    9 1     
   18    8   12 1     
   19    9   10 1     
   20    9   31 1     
   21    9   32 1     
   22   10   11 1     
   23   10   33 1     
   24   10   34 1     
   25   11   12 1     
   26   11   35 1     
   27   11   36 1     
   28   12   13 1     
   29   12   37 1     
   30   13   14 1     
   31   13   38 1     
   32   13   39 1     
   33   14   15 1     
   34   14   18 1     
   35   15   16 2     
   36   15   40 1     
   37   16   17 1     
   38   16   19 1     
   39   17   18 2     
   40   19   20 ar    
   41   19   21 ar    
@<TRIPOS>SUBSTRUCTURE
      1 ****           1
@<TRIPOS>COMMENT
> <Gold.Version>
2022.2.0

> <Gold.Id.Protein>
3pbl|protein|mol2

> <Gold.Protein.RotatedTorsions>
[ 1303 1298 1297 1294 ] final  -43.44 input  179.99 | X-H torsion
[ 2461 2456 2455 2452 ] final -131.01 input   30.03 | X-H torsion
[ 2515 2510 2509 2506 ] final  171.42 input  -89.99 | X-H torsion
[ 3721 3712 3711 3710 ] final  -50.18 input -179.91 | X-H torsion
[ 3841 3832 3831 3830 ] final  -29.14 input -179.91 | X-H torsion
[ 3767 3762 3761 3758 ] final  -47.65 input  -89.99 | X-H torsion
[ 2472 2467 2466 2463 ] final  100.04 input  -89.97 | X-H torsion

> <Gold.Protein.ActiveResidues>
 VAL82   VAL86   LEU89   PHE106  VAL107  ASP110  VAL111  MET112  CYS114  THR115 
 CYS181  SER182  ILE183  PHE188  VAL189  ILE190  SER192  SER193  SER196  TRP342 
 PHE345  PHE346  HIS349  VAL350  TYR365  THR369  GLY372  TYR373 

> <Gold.Protein.RotatedAtoms>
    3.3851   -9.2223    3.7943 H   0  0  0  0  0  0  0  0  0  0  0  0  # atno 1303 bound_to 1298
    0.7070   -9.2361    8.1607 H   0  0  0  0  0  0  0  0  0  0  0  0  # atno 2461 bound_to 2456
   -5.2281   -4.9670    7.8892 H   0  0  0  0  0  0  0  0  0  0  0  0  # atno 2472 bound_to 2467
    2.2670   -8.9397    5.9271 H   0  0  0  0  0  0  0  0  0  0  0  0  # atno 2515 bound_to 2510
   -2.7296  -17.4582   14.7244 H   0  0  0  0  0  0  0  0  0  0  0  0  # atno 3721 bound_to 3712
   -5.5040  -22.1659   10.6415 H   0  0  0  0  0  0  0  0  0  0  0  0  # atno 3767 bound_to 3762
    1.5729  -20.1410    9.3504 H   0  0  0  0  0  0  0  0  0  0  0  0  # atno 3841 bound_to 3832
    4.7411   -8.6827    4.5266 LP  0  0  0  0  0  0  0  0  0  0  0  0  # atno 4297 bound_to 1298
    4.2362  -10.2164    4.7709 LP  0  0  0  0  0  0  0  0  0  0  0  0  # atno 4298 bound_to 1298
    2.1561   -8.5143    7.9454 LP  0  0  0  0  0  0  0  0  0  0  0  0  # atno 4299 bound_to 2456
    0.8745   -8.0580    7.0422 LP  0  0  0  0  0  0  0  0  0  0  0  0  # atno 4300 bound_to 2456
    2.1960   -7.4253    5.3210 LP  0  0  0  0  0  0  0  0  0  0  0  0  # atno 4301 bound_to 2510
    2.8338   -8.6338    4.4268 LP  0  0  0  0  0  0  0  0  0  0  0  0  # atno 4302 bound_to 2510
   -3.5631  -16.5958   13.6570 LP  0  0  0  0  0  0  0  0  0  0  0  0  # atno 4306 bound_to 3712
   -2.8131  -17.9746   13.2065 LP  0  0  0  0  0  0  0  0  0  0  0  0  # atno 4307 bound_to 3712
    2.5787  -19.8312    8.1385 LP  0  0  0  0  0  0  0  0  0  0  0  0  # atno 4314 bound_to 3832
    2.8337  -21.1082    9.1240 LP  0  0  0  0  0  0  0  0  0  0  0  0  # atno 4315 bound_to 3832
   -4.2197  -22.3846   11.6261 LP  0  0  0  0  0  0  0  0  0  0  0  0  # atno 4318 bound_to 3762
   -4.4039  -23.3244   10.3035 LP  0  0  0  0  0  0  0  0  0  0  0  0  # atno 4319 bound_to 3762
   -3.6640   -4.9631    8.3581 LP  0  0  0  0  0  0  0  0  0  0  0  0  # atno 4320 bound_to 2467
   -4.8250   -5.4634    9.3917 LP  0  0  0  0  0  0  0  0  0  0  0  0  # atno 4321 bound_to 2467

> <Gold.Score>
     Score     S(PLP)   S(hbond)     S(cho)   S(metal)  DE(clash)   DE(tors)     intcor
     48.58     -47.72       0.70       0.00       0.00       4.01       0.91       4.58

> <Gold.PLP.Fitness>
48.5823

> <Gold.PLP.PLP>
-47.7177

> <Gold.PLP.part.hbond>
-1.0000

> <Gold.PLP.part.metal>
0.0000

> <Gold.PLP.part.buried>
-4.3919

> <Gold.PLP.part.nonpolar>
-44.1582

> <Gold.PLP.part.repulsive>
0.2061

> <Gold.PLP.ligand.clash>
4.0067

> <Gold.PLP.ligand.torsion>
0.9109

> <Gold.PLP.Chemscore.Hbond>
0.7040

> <Gold.PLP.Chemscore.CHOScore>
0.0000

> <Gold.PLP.Chemscore.Metal>
0.0000

> <Gold.Chemscore.Hbonds>
donor molecule, donor type, donor heavy atom, donor atom, acceptor molecule, acceptor atom, score
      P1  H  2456  2461       L1    20  0.70

> <Gold.PLP.Chemscore.Internal.Correction>
4.5812

