#       Name:                EN300-246579_i001
#       Creating user name   fsindt
#       Creation time:       Wed Mar  1 10:42:21 2023


#       File generated by GOLD software.
#

@<TRIPOS>MOLECULE
EN300-246579_i001|acide_1|mol2|7898|dock20
    40    41     1
SMALL
USER_CHARGES


@<TRIPOS>ATOM
      1 C1           0.0158 -22.8517  13.8819 C.3            1 <1>                0.0000
      2 C2          -0.4880 -21.5525  13.2502 C.3            1 <1>                0.0000
      3 C3           0.0006 -21.4660  11.8029 C.3            1 <1>                0.0000
      4 C4          -2.0177 -21.5336  13.2740 C.3            1 <1>                0.0000
      5 O5           0.0218 -20.4195  14.0016 O.3            1 <1>                0.0000
      6 C6          -0.0446 -19.2127  13.4084 C.2            1 <1>                0.0000
      7 O7          -0.9337 -18.9738  12.6153 O.2            1 <1>                0.0000
      8 N8           0.8749 -18.2697  13.6942 N.am           1 <1>                0.0000
      9 C9           1.9365 -18.3865  14.7046 C.3            1 <1>                0.0000
     10 C10          2.7253 -17.0601  14.6958 C.3            1 <1>                0.0000
     11 C11          1.7137 -16.0583  14.0790 C.3            1 <1>                0.0000
     12 C12          0.9869 -16.9530  13.0409 C.3            1 <1>                0.0000
     13 C13         -0.4048 -16.3941  12.7378 C.3            1 <1>                0.0000
     14 N14         -0.2965 -15.3305  11.7363 N.pl3          1 <1>                0.0000
     15 C15          0.2016 -15.4499  10.4905 C.2            1 <1>                0.0000
     16 C16          0.1077 -14.2055   9.9059 C.2            1 <1>                0.0000
     17 N17         -0.4404 -13.3618  10.7992 N.2            1 <1>                0.0000
     18 N18         -0.6970 -13.9960  11.8895 N.2            1 <1>                0.0000
     19 C19          0.5337 -13.8591   8.5409 C.2            1 <1>                0.0000
     20 O20          0.4983 -12.6950   8.1659 O.co2          1 <1>                0.0000
     21 O21          0.9234 -14.7351   7.7809 O.co2          1 <1>               -1.0000
     22 H22          1.1055 -22.8653  13.8649 H              1 <1>                0.0000
     23 H23         -0.3323 -22.9133  14.9129 H              1 <1>                0.0000
     24 H24         -0.3669 -23.7023  13.3178 H              1 <1>                0.0000
     25 H25         -0.3822 -22.3166  11.2388 H              1 <1>                0.0000
     26 H26         -0.3583 -20.5405  11.3529 H              1 <1>                0.0000
     27 H27          1.0904 -21.4796  11.7859 H              1 <1>                0.0000
     28 H28         -2.3658 -21.5951  14.3051 H              1 <1>                0.0000
     29 H29         -2.3767 -20.6079  12.8240 H              1 <1>                0.0000
     30 H30         -2.4005 -22.3840  12.7099 H              1 <1>                0.0000
     31 H31          1.4957 -18.5491  15.6882 H              1 <1>                0.0000
     32 H32          2.5996 -19.2138  14.4518 H              1 <1>                0.0000
     33 H33          2.9922 -16.7634  15.7101 H              1 <1>                0.0000
     34 H34          3.6143 -17.1443  14.0709 H              1 <1>                0.0000
     35 H35          1.0203 -15.6882  14.8343 H              1 <1>                0.0000
     36 H36          2.2305 -15.2337  13.5879 H              1 <1>                0.0000
     37 H37          1.5746 -17.0263  12.1257 H              1 <1>                0.0000
     38 H38         -1.0409 -17.1915  12.3537 H              1 <1>                0.0000
     39 H39         -0.8408 -15.9898  13.6514 H              1 <1>                0.0000
     40 H40          0.5979 -16.3468  10.0376 H              1 <1>                0.0000
@<TRIPOS>BOND
    1    1    2 1     
    2    1   22 1     
    3    1   23 1     
    4    1   24 1     
    5    2    3 1     
    6    2    4 1     
    7    2    5 1     
    8    3   25 1     
    9    3   26 1     
   10    3   27 1     
   11    4   28 1     
   12    4   29 1     
   13    4   30 1     
   14    5    6 1     
   15    6    7 2     
   16    6    8 am    
   17    8    9 1     
   18    8   12 1     
   19    9   10 1     
   20    9   31 1     
   21    9   32 1     
   22   10   11 1     
   23   10   33 1     
   24   10   34 1     
   25   11   12 1     
   26   11   35 1     
   27   11   36 1     
   28   12   13 1     
   29   12   37 1     
   30   13   14 1     
   31   13   38 1     
   32   13   39 1     
   33   14   15 1     
   34   14   18 1     
   35   15   16 2     
   36   15   40 1     
   37   16   17 1     
   38   16   19 1     
   39   17   18 2     
   40   19   20 ar    
   41   19   21 ar    
@<TRIPOS>SUBSTRUCTURE
      1 ****           1
@<TRIPOS>COMMENT
> <Gold.Version>
2022.2.0

> <Gold.Id.Protein>
3pbl|protein|mol2

> <Gold.Protein.RotatedTorsions>
[ 1303 1298 1297 1294 ] final   46.98 input  179.99 | X-H torsion
[ 2461 2456 2455 2452 ] final -133.87 input   30.03 | X-H torsion
[ 2515 2510 2509 2506 ] final    9.79 input  -89.99 | X-H torsion
[ 3721 3712 3711 3710 ] final   52.13 input -179.91 | X-H torsion
[ 3841 3832 3831 3830 ] final   -6.53 input -179.91 | X-H torsion
[ 3767 3762 3761 3758 ] final -130.71 input  -89.99 | X-H torsion
[ 2472 2467 2466 2463 ] final -111.28 input  -89.97 | X-H torsion

> <Gold.Protein.ActiveResidues>
 VAL82   VAL86   LEU89   PHE106  VAL107  ASP110  VAL111  MET112  CYS114  THR115 
 CYS181  SER182  ILE183  PHE188  VAL189  ILE190  SER192  SER193  SER196  TRP342 
 PHE345  PHE346  HIS349  VAL350  TYR365  THR369  GLY372  TYR373 

> <Gold.Protein.RotatedAtoms>
    3.8345  -10.2600    4.5093 H   0  0  0  0  0  0  0  0  0  0  0  0  # atno 1303 bound_to 1298
    0.7446   -9.2485    8.1862 H   0  0  0  0  0  0  0  0  0  0  0  0  # atno 2461 bound_to 2456
   -4.3606   -5.4224    9.4177 H   0  0  0  0  0  0  0  0  0  0  0  0  # atno 2472 bound_to 2467
    2.4732   -7.5374    4.7216 H   0  0  0  0  0  0  0  0  0  0  0  0  # atno 2515 bound_to 2510
   -2.5530  -17.9591   13.4841 H   0  0  0  0  0  0  0  0  0  0  0  0  # atno 3721 bound_to 3712
   -4.6993  -22.0305   11.5889 H   0  0  0  0  0  0  0  0  0  0  0  0  # atno 3767 bound_to 3762
    1.6844  -20.4110    9.5231 H   0  0  0  0  0  0  0  0  0  0  0  0  # atno 3841 bound_to 3832
    3.6250   -8.8050    3.7984 LP  0  0  0  0  0  0  0  0  0  0  0  0  # atno 4297 bound_to 1298
    4.9028   -9.0559    4.7838 LP  0  0  0  0  0  0  0  0  0  0  0  0  # atno 4298 bound_to 1298
    2.1598   -8.4804    7.9128 LP  0  0  0  0  0  0  0  0  0  0  0  0  # atno 4299 bound_to 2456
    0.8332   -8.0794    7.0492 LP  0  0  0  0  0  0  0  0  0  0  0  0  # atno 4300 bound_to 2456
    2.7595   -9.1388    4.8610 LP  0  0  0  0  0  0  0  0  0  0  0  0  # atno 4301 bound_to 2510
    2.0639   -8.3233    6.0929 LP  0  0  0  0  0  0  0  0  0  0  0  0  # atno 4302 bound_to 2510
   -3.0492  -17.3053   14.8640 LP  0  0  0  0  0  0  0  0  0  0  0  0  # atno 4306 bound_to 3712
   -3.5310  -16.6869   13.4315 LP  0  0  0  0  0  0  0  0  0  0  0  0  # atno 4307 bound_to 3712
    2.2434  -19.6782    8.2091 LP  0  0  0  0  0  0  0  0  0  0  0  0  # atno 4314 bound_to 3832
    3.0403  -20.9493    8.8539 LP  0  0  0  0  0  0  0  0  0  0  0  0  # atno 4315 bound_to 3832
   -4.0194  -23.2598   10.7562 LP  0  0  0  0  0  0  0  0  0  0  0  0  # atno 4318 bound_to 3762
   -5.4086  -22.5845   10.2263 LP  0  0  0  0  0  0  0  0  0  0  0  0  # atno 4319 bound_to 3762
   -5.4693   -5.1251    8.2564 LP  0  0  0  0  0  0  0  0  0  0  0  0  # atno 4320 bound_to 2467
   -3.8870   -4.8460    7.9652 LP  0  0  0  0  0  0  0  0  0  0  0  0  # atno 4321 bound_to 2467

> <Gold.Score>
     Score     S(PLP)   S(hbond)     S(cho)   S(metal)  DE(clash)   DE(tors)     intcor
     49.35     -44.42       1.00       1.00       0.00       4.05       0.78       4.54

> <Gold.PLP.Fitness>
49.3507

> <Gold.PLP.PLP>
-44.4194

> <Gold.PLP.part.hbond>
-1.0000

> <Gold.PLP.part.metal>
0.0000

> <Gold.PLP.part.buried>
-7.3428

> <Gold.PLP.part.nonpolar>
-37.3735

> <Gold.PLP.part.repulsive>
0.2370

> <Gold.PLP.ligand.clash>
4.0521

> <Gold.PLP.ligand.torsion>
0.7772

> <Gold.PLP.Chemscore.Hbond>
1.0000

> <Gold.PLP.Chemscore.CHOScore>
1.0000

> <Gold.PLP.Chemscore.Metal>
0.0000

> <Gold.Chemscore.Hbonds>
donor molecule, donor type, donor heavy atom, donor atom, acceptor molecule, acceptor atom, score
      P1  H  3712  3721       L1     7  1.00
      L1  C    15    40       P1  1227  1.00

> <Gold.PLP.Chemscore.Internal.Correction>
4.5378

