#       Name:                EN300-246579_i001
#       Creating user name   fsindt
#       Creation time:       Wed Mar  1 10:41:59 2023


#       File generated by GOLD software.
#

@<TRIPOS>MOLECULE
EN300-246579_i001|acide_1|mol2|7898|dock5
    40    41     1
SMALL
USER_CHARGES


@<TRIPOS>ATOM
      1 C1           0.2401 -22.5505  13.7793 C.3            1 <1>                0.0000
      2 C2          -0.0079 -21.3573  12.8544 C.3            1 <1>                0.0000
      3 C3           0.0348 -21.8237  11.3978 C.3            1 <1>                0.0000
      4 C4          -1.3811 -20.7545  13.1569 C.3            1 <1>                0.0000
      5 O5           1.0195 -20.3546  13.0718 O.3            1 <1>                0.0000
      6 C6           0.8390 -19.1570  12.4837 C.2            1 <1>                0.0000
      7 O7           0.2284 -19.0806  11.4359 O.2            1 <1>                0.0000
      8 N8           1.3356 -18.0430  13.0571 N.am           1 <1>                0.0000
      9 C9           2.0001 -17.9768  14.3669 C.3            1 <1>                0.0000
     10 C10          2.3745 -16.5006  14.6166 C.3            1 <1>                0.0000
     11 C11          1.3963 -15.7324  13.6890 C.3            1 <1>                0.0000
     12 C12          1.3082 -16.6902  12.4720 C.3            1 <1>                0.0000
     13 C13         -0.0025 -16.4693  11.7143 C.3            1 <1>                0.0000
     14 N14         -0.0014 -15.1321  11.1160 N.pl3          1 <1>                0.0000
     15 C15          0.6623 -14.7498  10.0080 C.2            1 <1>                0.0000
     16 C16          0.3765 -13.4154   9.8162 C.2            1 <1>                0.0000
     17 N17         -0.4474 -13.0161  10.8020 N.2            1 <1>                0.0000
     18 N18         -0.6956 -14.0079  11.5841 N.2            1 <1>                0.0000
     19 C19          0.8851 -12.5727   8.7226 C.2            1 <1>                0.0000
     20 O20          0.7903 -11.3549   8.7939 O.co2          1 <1>                0.0000
     21 O21          1.4028 -13.0896   7.7421 O.co2          1 <1>               -1.0000
     22 H22          1.2184 -22.9801  13.5639 H              1 <1>                0.0000
     23 H23          0.2098 -22.2183  14.8170 H              1 <1>                0.0000
     24 H24         -0.5311 -23.3033  13.6162 H              1 <1>                0.0000
     25 H25         -0.7366 -22.5764  11.2346 H              1 <1>                0.0000
     26 H26         -0.1420 -20.9737  10.7388 H              1 <1>                0.0000
     27 H27          1.0130 -22.2533  11.1823 H              1 <1>                0.0000
     28 H28         -1.4115 -20.4222  14.1946 H              1 <1>                0.0000
     29 H29         -1.5579 -19.9043  12.4978 H              1 <1>                0.0000
     30 H30         -2.1525 -21.5071  12.9936 H              1 <1>                0.0000
     31 H31          1.3205 -18.3236  15.1453 H              1 <1>                0.0000
     32 H32          2.9005 -18.5910  14.3573 H              1 <1>                0.0000
     33 H33          2.2081 -16.2317  15.6598 H              1 <1>                0.0000
     34 H34          3.4084 -16.3109  14.3285 H              1 <1>                0.0000
     35 H35          0.4232 -15.6084  14.1642 H              1 <1>                0.0000
     36 H36          1.8118 -14.7681  13.3960 H              1 <1>                0.0000
     37 H37          2.1604 -16.5405  11.8089 H              1 <1>                0.0000
     38 H38         -0.0988 -17.2187  10.9287 H              1 <1>                0.0000
     39 H39         -0.8409 -16.5575  12.4053 H              1 <1>                0.0000
     40 H40          1.2957 -15.3690   9.3899 H              1 <1>                0.0000
@<TRIPOS>BOND
    1    1    2 1     
    2    1   22 1     
    3    1   23 1     
    4    1   24 1     
    5    2    3 1     
    6    2    4 1     
    7    2    5 1     
    8    3   25 1     
    9    3   26 1     
   10    3   27 1     
   11    4   28 1     
   12    4   29 1     
   13    4   30 1     
   14    5    6 1     
   15    6    7 2     
   16    6    8 am    
   17    8    9 1     
   18    8   12 1     
   19    9   10 1     
   20    9   31 1     
   21    9   32 1     
   22   10   11 1     
   23   10   33 1     
   24   10   34 1     
   25   11   12 1     
   26   11   35 1     
   27   11   36 1     
   28   12   13 1     
   29   12   37 1     
   30   13   14 1     
   31   13   38 1     
   32   13   39 1     
   33   14   15 1     
   34   14   18 1     
   35   15   16 2     
   36   15   40 1     
   37   16   17 1     
   38   16   19 1     
   39   17   18 2     
   40   19   20 ar    
   41   19   21 ar    
@<TRIPOS>SUBSTRUCTURE
      1 ****           1
@<TRIPOS>COMMENT
> <Gold.Version>
2022.2.0

> <Gold.Id.Protein>
3pbl|protein|mol2

> <Gold.Protein.RotatedTorsions>
[ 1303 1298 1297 1294 ] final   -9.29 input  179.99 | X-H torsion
[ 2461 2456 2455 2452 ] final -150.78 input   30.03 | X-H torsion
[ 2515 2510 2509 2506 ] final  134.72 input  -89.99 | X-H torsion
[ 3721 3712 3711 3710 ] final -129.40 input -179.91 | X-H torsion
[ 3841 3832 3831 3830 ] final   22.52 input -179.91 | X-H torsion
[ 3767 3762 3761 3758 ] final   33.26 input  -89.99 | X-H torsion
[ 2472 2467 2466 2463 ] final -154.20 input  -89.97 | X-H torsion

> <Gold.Protein.ActiveResidues>
 VAL82   VAL86   LEU89   PHE106  VAL107  ASP110  VAL111  MET112  CYS114  THR115 
 CYS181  SER182  ILE183  PHE188  VAL189  ILE190  SER192  SER193  SER196  TRP342 
 PHE345  PHE346  HIS349  VAL350  TYR365  THR369  GLY372  TYR373 

> <Gold.Protein.RotatedAtoms>
    3.3483   -9.7454    3.9717 H   0  0  0  0  0  0  0  0  0  0  0  0  # atno 1303 bound_to 1298
    0.9892   -9.2879    8.3110 H   0  0  0  0  0  0  0  0  0  0  0  0  # atno 2461 bound_to 2456
   -5.0393   -5.4543    9.2990 H   0  0  0  0  0  0  0  0  0  0  0  0  # atno 2472 bound_to 2467
    2.0798   -8.4026    6.0964 H   0  0  0  0  0  0  0  0  0  0  0  0  # atno 2515 bound_to 2510
   -3.2625  -16.5966   14.2846 H   0  0  0  0  0  0  0  0  0  0  0  0  # atno 3721 bound_to 3712
   -4.9396  -23.0881   10.0686 H   0  0  0  0  0  0  0  0  0  0  0  0  # atno 3767 bound_to 3762
    1.9729  -20.7202    9.6214 H   0  0  0  0  0  0  0  0  0  0  0  0  # atno 3841 bound_to 3832
    4.3583   -8.4797    4.1818 LP  0  0  0  0  0  0  0  0  0  0  0  0  # atno 4297 bound_to 1298
    4.6558   -9.8960    4.9382 LP  0  0  0  0  0  0  0  0  0  0  0  0  # atno 4298 bound_to 1298
    2.1351   -8.2893    7.7134 LP  0  0  0  0  0  0  0  0  0  0  0  0  # atno 4299 bound_to 2456
    0.6133   -8.2311    7.1239 LP  0  0  0  0  0  0  0  0  0  0  0  0  # atno 4300 bound_to 2456
    2.4385   -7.4997    4.7842 LP  0  0  0  0  0  0  0  0  0  0  0  0  # atno 4301 bound_to 2510
    2.7786   -9.0968    4.7943 LP  0  0  0  0  0  0  0  0  0  0  0  0  # atno 4302 bound_to 2510
   -3.1125  -17.4905   12.9593 LP  0  0  0  0  0  0  0  0  0  0  0  0  # atno 4306 bound_to 3712
   -2.6486  -18.0747   14.4120 LP  0  0  0  0  0  0  0  0  0  0  0  0  # atno 4307 bound_to 3712
    1.8233  -19.6448    8.4394 LP  0  0  0  0  0  0  0  0  0  0  0  0  # atno 4314 bound_to 3832
    3.1271  -20.6255    8.5101 LP  0  0  0  0  0  0  0  0  0  0  0  0  # atno 4315 bound_to 3832
   -5.2593  -21.9270   11.1715 LP  0  0  0  0  0  0  0  0  0  0  0  0  # atno 4318 bound_to 3762
   -3.9286  -22.8601   11.3307 LP  0  0  0  0  0  0  0  0  0  0  0  0  # atno 4319 bound_to 3762
   -5.0432   -4.9004    7.7629 LP  0  0  0  0  0  0  0  0  0  0  0  0  # atno 4320 bound_to 2467
   -3.6346   -5.0389    8.5774 LP  0  0  0  0  0  0  0  0  0  0  0  0  # atno 4321 bound_to 2467

> <Gold.Score>
     Score     S(PLP)   S(hbond)     S(cho)   S(metal)  DE(clash)   DE(tors)     intcor
     49.40     -44.69       0.93       0.99       0.00       4.05       0.78       4.58

> <Gold.PLP.Fitness>
49.3972

> <Gold.PLP.PLP>
-44.6914

> <Gold.PLP.part.hbond>
-0.9261

> <Gold.PLP.part.metal>
0.0000

> <Gold.PLP.part.buried>
-6.5945

> <Gold.PLP.part.nonpolar>
-39.4005

> <Gold.PLP.part.repulsive>
0.2492

> <Gold.PLP.ligand.clash>
4.0521

> <Gold.PLP.ligand.torsion>
0.7831

> <Gold.PLP.Chemscore.Hbond>
0.9263

> <Gold.PLP.Chemscore.CHOScore>
0.9881

> <Gold.PLP.Chemscore.Metal>
0.0000

> <Gold.Chemscore.Hbonds>
donor molecule, donor type, donor heavy atom, donor atom, acceptor molecule, acceptor atom, score
      P1  H  2456  2461       L1    20  0.93
      L1  C    15    40       P1  1227  0.99

> <Gold.PLP.Chemscore.Internal.Correction>
4.5812

