#       Name:                plp ligand
#       Creating user name   fsindt
#       Creation time:       Wed Mar  1 10:41:52 2023


#       File generated by GOLD software.
#

@<TRIPOS>MOLECULE
plp ligand
    40    41     1
SMALL
USER_CHARGES


@<TRIPOS>ATOM
      1 C1          -3.0269   2.1657  -1.0954 NONPOLAR       1 <1>                0.0000
      2 C2          -3.3665   1.2061   0.0468 NONPOLAR       1 <1>                0.0000
      3 C3          -3.0039   1.8559   1.3837 NONPOLAR       1 <1>                0.0000
      4 C4          -4.8638   0.8928   0.0215 NONPOLAR       1 <1>                0.0000
      5 O5          -2.6118  -0.0239  -0.1139 ACCEPTOR       1 <1>                0.0000
      6 C6          -1.2693   0.0782  -0.1136 NONPOLAR       1 <1>                0.0000
      7 O7          -0.7427   1.1654   0.0174 ACCEPTOR       1 <1>                0.0000
      8 N8          -0.5095  -1.0255  -0.2585 NONPOLAR       1 <1>                0.0000
      9 C9          -1.0085  -2.4070  -0.3219 NONPOLAR       1 <1>                0.0000
     10 C10          0.2190  -3.3314  -0.4650 NONPOLAR       1 <1>                0.0000
     11 C11          1.3759  -2.4618   0.0942 NONPOLAR       1 <1>                0.0000
     12 C12          0.9590  -1.0470  -0.3863 NONPOLAR       1 <1>                0.0000
     13 C13          1.5825   0.0250   0.5099 NONPOLAR       1 <1>                0.0000
     14 N14          3.0423  -0.0410   0.4070 NONPOLAR       1 <1>                0.0000
     15 C15          3.8663   0.9592   0.0395 NONPOLAR       1 <1>                0.0000
     16 C16          5.1472   0.4527   0.0830 NONPOLAR       1 <1>                0.0000
     17 N17          5.0777  -0.8333   0.4723 ACCEPTOR       1 <1>                0.0000
     18 N18          3.8484  -1.1552   0.6780 ACCEPTOR       1 <1>                0.0000
     19 C19          6.3782   1.1906  -0.2409 NONPOLAR       1 <1>                0.0000
     20 O20          6.3159   2.3629  -0.5856 ACCEPTOR       1 <1>                0.0000
     21 O21          7.4640   0.6320  -0.1655 ACCEPTOR       1 <1>               -1.0000
     22 H22         -1.9602   2.3890  -1.0774                1 <1>                0.0000
     23 H23         -3.2852   1.7028  -2.0478                1 <1>                0.0000
     24 H24         -3.5934   3.0891  -0.9748                1 <1>                0.0000
     25 H25         -3.5705   2.7793   1.5043                1 <1>                0.0000
     26 H26         -3.2459   1.1723   2.1974                1 <1>                0.0000
     27 H27         -1.9372   2.0792   1.4017                1 <1>                0.0000
     28 H28         -5.1221   0.4298  -0.9309                1 <1>                0.0000
     29 H29         -5.1058   0.2091   0.8353                1 <1>                0.0000
     30 H30         -5.4304   1.8161   0.1422                1 <1>                0.0000
     31 H31         -1.5494  -2.6481   0.5932                1 <1>                0.0000
     32 H32         -1.6641  -2.5252  -1.1846                1 <1>                0.0000
     33 H33          0.0928  -4.2351   0.1313                1 <1>                0.0000
     34 H34          0.3946  -3.5800  -1.5116                1 <1>                0.0000
     35 H35          1.4128  -2.5134   1.1824                1 <1>                0.0000
     36 H36          2.3310  -2.7550  -0.3418                1 <1>                0.0000
     37 H37          1.2571  -0.8955  -1.4238                1 <1>                0.0000
     38 H38          1.2399   1.0094   0.1911                1 <1>                0.0000
     39 H39          1.2830  -0.1467   1.5438                1 <1>                0.0000
     40 H40          3.5789   1.9632  -0.2360                1 <1>                0.0000
@<TRIPOS>BOND
    1    1    2 1     
    2    1   22 1     
    3    1   23 1     
    4    1   24 1     
    5    2    3 1     
    6    2    4 1     
    7    2    5 1     
    8    3   25 1     
    9    3   26 1     
   10    3   27 1     
   11    4   28 1     
   12    4   29 1     
   13    4   30 1     
   14    5    6 1     
   15    6    7 2     
   16    6    8 am    
   17    8    9 1     
   18    8   12 1     
   19    9   10 1     
   20    9   31 1     
   21    9   32 1     
   22   10   11 1     
   23   10   33 1     
   24   10   34 1     
   25   11   12 1     
   26   11   35 1     
   27   11   36 1     
   28   12   13 1     
   29   12   37 1     
   30   13   14 1     
   31   13   38 1     
   32   13   39 1     
   33   14   15 1     
   34   14   18 1     
   35   15   16 2     
   36   15   40 1     
   37   16   17 1     
   38   16   19 1     
   39   17   18 2     
   40   19   20 ar    
   41   19   21 ar    
@<TRIPOS>SUBSTRUCTURE
      1 ****           1
@<TRIPOS>SET
DONOR_HYDROGENS      STATIC     ATOMS    <user>   **** ""
0
ATOM$RED        STATIC     ATOMS    COLORGROUP SYSTEM
0
