#       Name:                EN300-6738580_i001
#       Creating user name   aseyller
#       Creation time:       Fri Apr 21 13:28:24 2023


#       File generated by GOLD software.
#

@<TRIPOS>MOLECULE
EN300-6738580_i001|amine_1|mol2|388|dock11
    27    28     1
SMALL
USER_CHARGES


@<TRIPOS>ATOM
      1 N1          24.3137  35.6653  41.8916 N.4            1 <1>                1.0000
      2 C2          24.9880  36.9700  41.9248 C.3            1 <1>                0.0000
      3 C3          26.1001  36.9867  40.9079 C.ar           1 <1>                0.0000
      4 C4          27.3941  36.6904  41.2976 C.ar           1 <1>                0.0000
      5 C5          28.4167  36.7035  40.3715 C.ar           1 <1>                0.0000
      6 C6          28.1435  37.0163  39.0394 C.ar           1 <1>                0.0000
      7 C7          29.2002  37.0312  38.0729 C.1            1 <1>                0.0000
      8 C8          30.0663  37.0433  37.2807 C.1            1 <1>                0.0000
      9 C9          31.1526  37.0586  36.2873 C.3            1 <1>                0.0000
     10 C10         30.8627  37.7097  34.9334 C.3            1 <1>                0.0000
     11 C11         31.7742  38.4130  35.9410 C.3            1 <1>                0.0000
     12 C12         26.8362  37.3143  38.6529 C.ar           1 <1>                0.0000
     13 C13         25.8218  37.2926  39.5878 C.ar           1 <1>                0.0000
     14 H14         24.2701  37.7561  41.6911 H              1 <1>                0.0000
     15 H15         25.4020  37.1398  42.9187 H              1 <1>                0.0000
     16 H16         27.6043  36.4487  42.3290 H              1 <1>                0.0000
     17 H17         29.4265  36.4723  40.6770 H              1 <1>                0.0000
     18 H18         31.8111  36.1901  36.2974 H              1 <1>                0.0000
     19 H19         31.3308  37.2697  34.0528 H              1 <1>                0.0000
     20 H20         29.8676  38.1266  34.7783 H              1 <1>                0.0000
     21 H21         31.3788  39.2928  36.4487 H              1 <1>                0.0000
     22 H22         32.8420  38.4359  35.7233 H              1 <1>                0.0000
     23 H23         26.6184  37.5575  37.6234 H              1 <1>                0.0000
     24 H24         24.8094  37.5226  39.2899 H              1 <1>                0.0000
     25 H25         23.5354  35.7052  41.2508 H              1 <1>                0.0000
     26 H26         24.9650  34.9578  41.5860 H              1 <1>                0.0000
     27 H27         23.9778  35.4368  42.8151 H              1 <1>                0.0000
@<TRIPOS>BOND
    1    1    2 1     
    2    1   25 1     
    3    1   26 1     
    4    1   27 1     
    5    2    3 1     
    6    2   14 1     
    7    2   15 1     
    8    3    4 ar    
    9    3   13 ar    
   10    4    5 ar    
   11    4   16 1     
   12    5    6 ar    
   13    5   17 1     
   14    6    7 1     
   15    6   12 ar    
   16    7    8 3     
   17    8    9 1     
   18    9   10 1     
   19    9   11 1     
   20    9   18 1     
   21   10   11 1     
   22   10   19 1     
   23   10   20 1     
   24   11   21 1     
   25   11   22 1     
   26   12   13 ar    
   27   12   23 1     
   28   13   24 1     
@<TRIPOS>SUBSTRUCTURE
      1 ****           1
@<TRIPOS>SET
DONOR_HYDROGENS      STATIC     ATOMS    <user>   **** ""
3 25 26 27
ATOM$RED        STATIC     ATOMS    COLORGROUP SYSTEM
3 25 26 27
@<TRIPOS>COMMENT
> <Gold.Version>
2022.2.0

> <Gold.Id.Protein>
1qkm|1qkm_protein|mol2

> <Gold.Protein.RotatedTorsions>
[  496  491  490  487 ] final  -60.68 input  -89.99 | X-H torsion

> <Gold.Protein.ActiveResidues>
 MET295  LEU298  THR299  LEU301  ALA302  GLU305  TRP335  MET336  LEU339  MET340 
 GLY342  LEU343  ARG346  PHE356  ILE373  ILE376  PHE377  LEU380  LYS471  GLY472 
 MET473  HIS475  LEU476  LEU477  ASN478  MET479  VAL484  VAL487 

> <Gold.Protein.RotatedAtoms>
   36.5023   34.7329   41.4749 H   0  0  0  0  0  0  0  0  0  0  0  0  # atno 496  bound_to 491 

> <Gold.Score>
     Score     S(PLP)   S(hbond)     S(cho)   S(metal)  DE(clash)   DE(tors)     intcor
     51.37     -43.06       3.00       0.00       0.00       0.00       0.34       0.00

> <Gold.PLP.Fitness>
51.3739

> <Gold.PLP.PLP>
-43.0602

> <Gold.PLP.part.hbond>
-3.0000

> <Gold.PLP.part.metal>
0.0000

> <Gold.PLP.part.buried>
2.8707

> <Gold.PLP.part.nonpolar>
-44.2561

> <Gold.PLP.part.repulsive>
1.5187

> <Gold.PLP.ligand.clash>
0.0000

> <Gold.PLP.ligand.torsion>
0.3433

> <Gold.PLP.Chemscore.Hbond>
3.0000

> <Gold.PLP.Chemscore.CHOScore>
0.0000

> <Gold.PLP.Chemscore.Metal>
0.0000

> <Gold.Chemscore.Hbonds>
donor molecule, donor type, donor heavy atom, donor atom, acceptor molecule, acceptor atom, score
      L1  H     1    25       P1  1131  1.00
      L1  H     1    27       P1   583  2.00

> <Gold.PLP.Chemscore.Internal.Correction>
0.0003

