#       Name:                EN300-6738580_i001
#       Creating user name   aseyller
#       Creation time:       Fri Apr 21 13:28:28 2023


#       File generated by GOLD software.
#

@<TRIPOS>MOLECULE
EN300-6738580_i001|amine_1|mol2|388|dock17
    27    28     1
SMALL
USER_CHARGES


@<TRIPOS>ATOM
      1 N1          26.5771  36.5801  42.2085 N.4            1 <1>                1.0000
      2 C2          25.9365  36.5723  40.8865 C.3            1 <1>                0.0000
      3 C3          26.9936  36.6543  39.8157 C.ar           1 <1>                0.0000
      4 C4          26.7303  37.3316  38.6384 C.ar           1 <1>                0.0000
      5 C5          27.6940  37.4108  37.6542 C.ar           1 <1>                0.0000
      6 C6          28.9363  36.8058  37.8482 C.ar           1 <1>                0.0000
      7 C7          29.9412  36.8846  36.8309 C.1            1 <1>                0.0000
      8 C8          30.7649  36.9490  35.9970 C.1            1 <1>                0.0000
      9 C9          31.7978  37.0300  34.9513 C.3            1 <1>                0.0000
     10 C10         33.2564  36.8719  35.3854 C.3            1 <1>                0.0000
     11 C11         32.5622  35.7487  34.6126 C.3            1 <1>                0.0000
     12 C12         29.1955  36.1241  39.0378 C.ar           1 <1>                0.0000
     13 C13         28.2251  36.0568  40.0163 C.ar           1 <1>                0.0000
     14 H14         25.3663  35.6515  40.7645 H              1 <1>                0.0000
     15 H15         25.2670  37.4282  40.8023 H              1 <1>                0.0000
     16 H16         25.7683  37.7992  38.4894 H              1 <1>                0.0000
     17 H17         27.4871  37.9395  36.7354 H              1 <1>                0.0000
     18 H18         31.5876  37.7215  34.1354 H              1 <1>                0.0000
     19 H19         34.0059  37.4592  34.8548 H              1 <1>                0.0000
     20 H20         33.4512  36.7081  36.4452 H              1 <1>                0.0000
     21 H21         32.3002  34.8457  35.1642 H              1 <1>                0.0000
     22 H22         32.8549  35.5969  33.5737 H              1 <1>                0.0000
     23 H23         30.1550  35.6535  39.1938 H              1 <1>                0.0000
     24 H24         28.4246  35.5298  40.9377 H              1 <1>                0.0000
     25 H25         26.2690  35.7772  42.7363 H              1 <1>                0.0000
     26 H26         27.5793  36.5447  42.0968 H              1 <1>                0.0000
     27 H27         26.3231  37.4236  42.7003 H              1 <1>                0.0000
@<TRIPOS>BOND
    1    1    2 1     
    2    1   25 1     
    3    1   26 1     
    4    1   27 1     
    5    2    3 1     
    6    2   14 1     
    7    2   15 1     
    8    3    4 ar    
    9    3   13 ar    
   10    4    5 ar    
   11    4   16 1     
   12    5    6 ar    
   13    5   17 1     
   14    6    7 1     
   15    6   12 ar    
   16    7    8 3     
   17    8    9 1     
   18    9   10 1     
   19    9   11 1     
   20    9   18 1     
   21   10   11 1     
   22   10   19 1     
   23   10   20 1     
   24   11   21 1     
   25   11   22 1     
   26   12   13 ar    
   27   12   23 1     
   28   13   24 1     
@<TRIPOS>SUBSTRUCTURE
      1 ****           1
@<TRIPOS>SET
DONOR_HYDROGENS      STATIC     ATOMS    <user>   **** ""
3 25 26 27
ATOM$RED        STATIC     ATOMS    COLORGROUP SYSTEM
3 25 26 27
@<TRIPOS>COMMENT
> <Gold.Version>
2022.2.0

> <Gold.Id.Protein>
1qkm|1qkm_protein|mol2

> <Gold.Protein.RotatedTorsions>
[  496  491  490  487 ] final  124.25 input  -89.99 | X-H torsion

> <Gold.Protein.ActiveResidues>
 MET295  LEU298  THR299  LEU301  ALA302  GLU305  TRP335  MET336  LEU339  MET340 
 GLY342  LEU343  ARG346  PHE356  ILE373  ILE376  PHE377  LEU380  LYS471  GLY472 
 MET473  HIS475  LEU476  LEU477  ASN478  MET479  VAL484  VAL487 

> <Gold.Protein.RotatedAtoms>
   37.1126   32.9518   41.5571 H   0  0  0  0  0  0  0  0  0  0  0  0  # atno 496  bound_to 491 

> <Gold.Score>
     Score     S(PLP)   S(hbond)     S(cho)   S(metal)  DE(clash)   DE(tors)     intcor
     46.65     -41.37       2.00       0.00       0.00       0.00       0.36       0.00

> <Gold.PLP.Fitness>
46.6523

> <Gold.PLP.PLP>
-41.3748

> <Gold.PLP.part.hbond>
-1.0000

> <Gold.PLP.part.metal>
0.0000

> <Gold.PLP.part.buried>
-0.1197

> <Gold.PLP.part.nonpolar>
-42.5663

> <Gold.PLP.part.repulsive>
0.0688

> <Gold.PLP.ligand.clash>
0.0000

> <Gold.PLP.ligand.torsion>
0.3613

> <Gold.PLP.Chemscore.Hbond>
2.0000

> <Gold.PLP.Chemscore.CHOScore>
0.0000

> <Gold.PLP.Chemscore.Metal>
0.0000

> <Gold.Chemscore.Hbonds>
donor molecule, donor type, donor heavy atom, donor atom, acceptor molecule, acceptor atom, score
      L1  H     1    25       P1   582  2.00

> <Gold.PLP.Chemscore.Internal.Correction>
0.0001

