#       Name:                EN300-6738580_i001
#       Creating user name   aseyller
#       Creation time:       Fri Apr 21 13:28:26 2023


#       File generated by GOLD software.
#

@<TRIPOS>MOLECULE
EN300-6738580_i001|amine_1|mol2|388|dock13
    27    28     1
SMALL
USER_CHARGES


@<TRIPOS>ATOM
      1 N1          33.2196  36.9122  33.9998 N.4            1 <1>                1.0000
      2 C2          32.6951  38.1204  34.6503 C.3            1 <1>                0.0000
      3 C3          31.7115  37.7271  35.7221 C.ar           1 <1>                0.0000
      4 C4          30.3879  38.1164  35.6186 C.ar           1 <1>                0.0000
      5 C5          29.4822  37.7591  36.5962 C.ar           1 <1>                0.0000
      6 C6          29.9038  37.0035  37.6910 C.ar           1 <1>                0.0000
      7 C7          28.9688  36.6290  38.7089 C.1            1 <1>                0.0000
      8 C8          28.2023  36.3219  39.5434 C.1            1 <1>                0.0000
      9 C9          27.2412  35.9369  40.5898 C.3            1 <1>                0.0000
     10 C10         26.6762  37.0502  41.4742 C.3            1 <1>                0.0000
     11 C11         25.7898  36.3891  40.4168 C.3            1 <1>                0.0000
     12 C12         31.2401  36.6142  37.7894 C.ar           1 <1>                0.0000
     13 C13         32.1347  36.9735  36.8023 C.ar           1 <1>                0.0000
     14 H14         33.5175  38.6778  35.0986 H              1 <1>                0.0000
     15 H15         32.1949  38.7439  33.9093 H              1 <1>                0.0000
     16 H16         30.0631  38.7014  34.7709 H              1 <1>                0.0000
     17 H17         28.4493  38.0639  36.5144 H              1 <1>                0.0000
     18 H18         27.4141  34.9653  41.0525 H              1 <1>                0.0000
     19 H19         26.4771  36.8109  42.5189 H              1 <1>                0.0000
     20 H20         27.0163  38.0676  41.2814 H              1 <1>                0.0000
     21 H21         25.5466  36.9718  39.5283 H              1 <1>                0.0000
     22 H22         25.0075  35.7150  40.7658 H              1 <1>                0.0000
     23 H23         31.5726  36.0296  38.6345 H              1 <1>                0.0000
     24 H24         33.1692  36.6724  36.8771 H              1 <1>                0.0000
     25 H25         32.5119  36.5208  33.3965 H              1 <1>                0.0000
     26 H26         34.0332  37.1510  33.4528 H              1 <1>                0.0000
     27 H27         33.4741  36.2351  34.7031 H              1 <1>                0.0000
@<TRIPOS>BOND
    1    1    2 1     
    2    1   25 1     
    3    1   26 1     
    4    1   27 1     
    5    2    3 1     
    6    2   14 1     
    7    2   15 1     
    8    3    4 ar    
    9    3   13 ar    
   10    4    5 ar    
   11    4   16 1     
   12    5    6 ar    
   13    5   17 1     
   14    6    7 1     
   15    6   12 ar    
   16    7    8 3     
   17    8    9 1     
   18    9   10 1     
   19    9   11 1     
   20    9   18 1     
   21   10   11 1     
   22   10   19 1     
   23   10   20 1     
   24   11   21 1     
   25   11   22 1     
   26   12   13 ar    
   27   12   23 1     
   28   13   24 1     
@<TRIPOS>SUBSTRUCTURE
      1 ****           1
@<TRIPOS>SET
DONOR_HYDROGENS      STATIC     ATOMS    <user>   **** ""
3 25 26 27
ATOM$RED        STATIC     ATOMS    COLORGROUP SYSTEM
3 25 26 27
@<TRIPOS>COMMENT
> <Gold.Version>
2022.2.0

> <Gold.Id.Protein>
1qkm|1qkm_protein|mol2

> <Gold.Protein.RotatedTorsions>
[  496  491  490  487 ] final -117.17 input  -89.99 | X-H torsion

> <Gold.Protein.ActiveResidues>
 MET295  LEU298  THR299  LEU301  ALA302  GLU305  TRP335  MET336  LEU339  MET340 
 GLY342  LEU343  ARG346  PHE356  ILE373  ILE376  PHE377  LEU380  LYS471  GLY472 
 MET473  HIS475  LEU476  LEU477  ASN478  MET479  VAL484  VAL487 

> <Gold.Protein.RotatedAtoms>
   37.0024   34.3916   40.8189 H   0  0  0  0  0  0  0  0  0  0  0  0  # atno 496  bound_to 491 

> <Gold.Score>
     Score     S(PLP)   S(hbond)     S(cho)   S(metal)  DE(clash)   DE(tors)     intcor
     48.81     -43.07       1.92       0.00       0.00       0.00       0.01       0.00

> <Gold.PLP.Fitness>
48.8130

> <Gold.PLP.PLP>
-43.0749

> <Gold.PLP.part.hbond>
-2.0000

> <Gold.PLP.part.metal>
0.0000

> <Gold.PLP.part.buried>
-3.2517

> <Gold.PLP.part.nonpolar>
-39.1910

> <Gold.PLP.part.repulsive>
0.0985

> <Gold.PLP.ligand.clash>
0.0000

> <Gold.PLP.ligand.torsion>
0.0073

> <Gold.PLP.Chemscore.Hbond>
1.9175

> <Gold.PLP.Chemscore.CHOScore>
0.0000

> <Gold.PLP.Chemscore.Metal>
0.0000

> <Gold.Chemscore.Hbonds>
donor molecule, donor type, donor heavy atom, donor atom, acceptor molecule, acceptor atom, score
      L1  H     1    25       P1  3187  0.94
      L1  H     1    26       P1  3229  0.98

> <Gold.PLP.Chemscore.Internal.Correction>
0.0001

