#       Name:                EN300-6738580_i001
#       Creating user name   aseyller
#       Creation time:       Fri Apr 21 13:28:27 2023


#       File generated by GOLD software.
#

@<TRIPOS>MOLECULE
EN300-6738580_i001|amine_1|mol2|388|dock15
    27    28     1
SMALL
USER_CHARGES


@<TRIPOS>ATOM
      1 N1          25.0244  35.5374  41.4970 N.4            1 <1>                1.0000
      2 C2          25.7953  36.7502  41.8021 C.3            1 <1>                0.0000
      3 C3          27.0216  36.7991  40.9277 C.ar           1 <1>                0.0000
      4 C4          26.8922  36.7011  39.5537 C.ar           1 <1>                0.0000
      5 C5          28.0110  36.7456  38.7475 C.ar           1 <1>                0.0000
      6 C6          29.2750  36.8898  39.3207 C.ar           1 <1>                0.0000
      7 C7          30.4402  36.9373  38.4896 C.1            1 <1>                0.0000
      8 C8          31.3954  36.9761  37.8083 C.1            1 <1>                0.0000
      9 C9          32.5932  37.0248  36.9540 C.3            1 <1>                0.0000
     10 C10         32.4077  36.7481  35.4608 C.3            1 <1>                0.0000
     11 C11         32.6952  38.1705  35.9451 C.3            1 <1>                0.0000
     12 C12         29.3986  36.9880  40.7071 C.ar           1 <1>                0.0000
     13 C13         28.2715  36.9474  41.5018 C.ar           1 <1>                0.0000
     14 H14         25.1792  37.6293  41.6134 H              1 <1>                0.0000
     15 H15         26.0963  36.7354  42.8495 H              1 <1>                0.0000
     16 H16         25.9134  36.5892  39.1114 H              1 <1>                0.0000
     17 H17         27.9086  36.6687  37.6751 H              1 <1>                0.0000
     18 H18         33.5166  36.6796  37.4190 H              1 <1>                0.0000
     19 H19         33.2092  36.2210  34.9432 H              1 <1>                0.0000
     20 H20         31.3987  36.5298  35.1109 H              1 <1>                0.0000
     21 H21         31.8754  38.8882  35.9139 H              1 <1>                0.0000
     22 H22         33.6859  38.5794  35.7462 H              1 <1>                0.0000
     23 H23         30.3742  37.0995  41.1568 H              1 <1>                0.0000
     24 H24         28.3658  37.0237  42.5750 H              1 <1>                0.0000
     25 H25         25.1673  34.8556  42.2268 H              1 <1>                0.0000
     26 H26         24.0438  35.7679  41.4393 H              1 <1>                0.0000
     27 H27         25.3326  35.1560  40.6152 H              1 <1>                0.0000
@<TRIPOS>BOND
    1    1    2 1     
    2    1   25 1     
    3    1   26 1     
    4    1   27 1     
    5    2    3 1     
    6    2   14 1     
    7    2   15 1     
    8    3    4 ar    
    9    3   13 ar    
   10    4    5 ar    
   11    4   16 1     
   12    5    6 ar    
   13    5   17 1     
   14    6    7 1     
   15    6   12 ar    
   16    7    8 3     
   17    8    9 1     
   18    9   10 1     
   19    9   11 1     
   20    9   18 1     
   21   10   11 1     
   22   10   19 1     
   23   10   20 1     
   24   11   21 1     
   25   11   22 1     
   26   12   13 ar    
   27   12   23 1     
   28   13   24 1     
@<TRIPOS>SUBSTRUCTURE
      1 ****           1
@<TRIPOS>SET
DONOR_HYDROGENS      STATIC     ATOMS    <user>   **** ""
3 25 26 27
ATOM$RED        STATIC     ATOMS    COLORGROUP SYSTEM
3 25 26 27
@<TRIPOS>COMMENT
> <Gold.Version>
2022.2.0

> <Gold.Id.Protein>
1qkm|1qkm_protein|mol2

> <Gold.Protein.RotatedTorsions>
[  496  491  490  487 ] final  -87.83 input  -89.99 | X-H torsion

> <Gold.Protein.ActiveResidues>
 MET295  LEU298  THR299  LEU301  ALA302  GLU305  TRP335  MET336  LEU339  MET340 
 GLY342  LEU343  ARG346  PHE356  ILE373  ILE376  PHE377  LEU380  LYS471  GLY472 
 MET473  HIS475  LEU476  LEU477  ASN478  MET479  VAL484  VAL487 

> <Gold.Protein.RotatedAtoms>
   36.7373   34.6670   41.1055 H   0  0  0  0  0  0  0  0  0  0  0  0  # atno 496  bound_to 491 

> <Gold.Score>
     Score     S(PLP)   S(hbond)     S(cho)   S(metal)  DE(clash)   DE(tors)     intcor
     49.50     -43.16       2.14       0.00       0.00       0.00       0.04       0.00

> <Gold.PLP.Fitness>
49.4959

> <Gold.PLP.PLP>
-43.1626

> <Gold.PLP.part.hbond>
-1.9947

> <Gold.PLP.part.metal>
0.0000

> <Gold.PLP.part.buried>
1.0293

> <Gold.PLP.part.nonpolar>
-41.8993

> <Gold.PLP.part.repulsive>
0.1159

> <Gold.PLP.ligand.clash>
0.0000

> <Gold.PLP.ligand.torsion>
0.0362

> <Gold.PLP.Chemscore.Hbond>
2.1352

> <Gold.PLP.Chemscore.CHOScore>
0.0000

> <Gold.PLP.Chemscore.Metal>
0.0000

> <Gold.Chemscore.Hbonds>
donor molecule, donor type, donor heavy atom, donor atom, acceptor molecule, acceptor atom, score
      L1  H     1    25       P1   582  1.79
      L1  H     1    26       P1  1131  0.34

> <Gold.PLP.Chemscore.Internal.Correction>
0.0001

