#       Name:                EN300-6738580_i001
#       Creating user name   aseyller
#       Creation time:       Fri Apr 21 13:28:21 2023


#       File generated by GOLD software.
#

@<TRIPOS>MOLECULE
EN300-6738580_i001|amine_1|mol2|388|dock7
    27    28     1
SMALL
USER_CHARGES


@<TRIPOS>ATOM
      1 N1          33.2217  36.8493  34.0008 N.4            1 <1>                1.0000
      2 C2          33.5901  36.5079  35.3814 C.3            1 <1>                0.0000
      3 C3          32.3462  36.4292  36.2283 C.ar           1 <1>                0.0000
      4 C4          31.2192  37.1449  35.8651 C.ar           1 <1>                0.0000
      5 C5          30.0770  37.0769  36.6359 C.ar           1 <1>                0.0000
      6 C6          30.0600  36.2840  37.7841 C.ar           1 <1>                0.0000
      7 C7          28.8775  36.2086  38.5884 C.1            1 <1>                0.0000
      8 C8          27.9082  36.1467  39.2476 C.1            1 <1>                0.0000
      9 C9          26.6927  36.0692  40.0744 C.3            1 <1>                0.0000
     10 C10         26.6335  36.9452  41.3273 C.3            1 <1>                0.0000
     11 C11         25.7809  37.2973  40.1067 C.3            1 <1>                0.0000
     12 C12         31.2000  35.5648  38.1449 C.ar           1 <1>                0.0000
     13 C13         32.3341  35.6373  37.3626 C.ar           1 <1>                0.0000
     14 H14         34.0997  35.5444  35.3937 H              1 <1>                0.0000
     15 H15         34.2535  37.2750  35.7806 H              1 <1>                0.0000
     16 H16         31.2338  37.7583  34.9764 H              1 <1>                0.0000
     17 H17         29.1980  37.6363  36.3515 H              1 <1>                0.0000
     18 H18         26.2188  35.0888  40.1228 H              1 <1>                0.0000
     19 H19         26.1203  36.5413  42.2000 H              1 <1>                0.0000
     20 H20         27.4946  37.5789  41.5395 H              1 <1>                0.0000
     21 H21         26.0810  38.1627  39.5159 H              1 <1>                0.0000
     22 H22         24.7068  37.1251  40.1764 H              1 <1>                0.0000
     23 H23         31.1932  34.9496  39.0327 H              1 <1>                0.0000
     24 H24         33.2170  35.0807  37.6406 H              1 <1>                0.0000
     25 H25         32.8928  36.0220  33.5260 H              1 <1>                0.0000
     26 H26         32.4906  37.5448  34.0101 H              1 <1>                0.0000
     27 H27         34.0284  37.2158  33.5183 H              1 <1>                0.0000
@<TRIPOS>BOND
    1    1    2 1     
    2    1   25 1     
    3    1   26 1     
    4    1   27 1     
    5    2    3 1     
    6    2   14 1     
    7    2   15 1     
    8    3    4 ar    
    9    3   13 ar    
   10    4    5 ar    
   11    4   16 1     
   12    5    6 ar    
   13    5   17 1     
   14    6    7 1     
   15    6   12 ar    
   16    7    8 3     
   17    8    9 1     
   18    9   10 1     
   19    9   11 1     
   20    9   18 1     
   21   10   11 1     
   22   10   19 1     
   23   10   20 1     
   24   11   21 1     
   25   11   22 1     
   26   12   13 ar    
   27   12   23 1     
   28   13   24 1     
@<TRIPOS>SUBSTRUCTURE
      1 ****           1
@<TRIPOS>SET
DONOR_HYDROGENS      STATIC     ATOMS    <user>   **** ""
3 25 26 27
ATOM$RED        STATIC     ATOMS    COLORGROUP SYSTEM
3 25 26 27
@<TRIPOS>COMMENT
> <Gold.Version>
2022.2.0

> <Gold.Id.Protein>
1qkm|1qkm_protein|mol2

> <Gold.Protein.RotatedTorsions>
[  496  491  490  487 ] final -166.87 input  -89.99 | X-H torsion

> <Gold.Protein.ActiveResidues>
 MET295  LEU298  THR299  LEU301  ALA302  GLU305  TRP335  MET336  LEU339  MET340 
 GLY342  LEU343  ARG346  PHE356  ILE373  ILE376  PHE377  LEU380  LYS471  GLY472 
 MET473  HIS475  LEU476  LEU477  ASN478  MET479  VAL484  VAL487 

> <Gold.Protein.RotatedAtoms>
   37.2969   33.6568   40.7780 H   0  0  0  0  0  0  0  0  0  0  0  0  # atno 496  bound_to 491 

> <Gold.Score>
     Score     S(PLP)   S(hbond)     S(cho)   S(metal)  DE(clash)   DE(tors)     intcor
     50.75     -45.46       2.00       0.00       0.00       0.00       0.36       0.00

> <Gold.PLP.Fitness>
50.7496

> <Gold.PLP.PLP>
-45.4625

> <Gold.PLP.part.hbond>
-2.0000

> <Gold.PLP.part.metal>
0.0000

> <Gold.PLP.part.buried>
-3.6682

> <Gold.PLP.part.nonpolar>
-40.4151

> <Gold.PLP.part.repulsive>
0.1013

> <Gold.PLP.ligand.clash>
0.0000

> <Gold.PLP.ligand.torsion>
0.3566

> <Gold.PLP.Chemscore.Hbond>
2.0000

> <Gold.PLP.Chemscore.CHOScore>
0.0000

> <Gold.PLP.Chemscore.Metal>
0.0000

> <Gold.Chemscore.Hbonds>
donor molecule, donor type, donor heavy atom, donor atom, acceptor molecule, acceptor atom, score
      L1  H     1    25       P1  3187  1.00
      L1  H     1    27       P1  3229  1.00

> <Gold.PLP.Chemscore.Internal.Correction>
0.0003

