#       Name:                EN300-6738580_i001
#       Creating user name   aseyller
#       Creation time:       Fri Apr 21 13:28:23 2023


#       File generated by GOLD software.
#

@<TRIPOS>MOLECULE
EN300-6738580_i001|amine_1|mol2|388|dock10
    27    28     1
SMALL
USER_CHARGES


@<TRIPOS>ATOM
      1 N1          25.8424  35.7965  41.2291 N.4            1 <1>                1.0000
      2 C2          27.0045  36.6531  41.5007 C.3            1 <1>                0.0000
      3 C3          27.8625  36.7424  40.2651 C.ar           1 <1>                0.0000
      4 C4          27.2987  37.1268  39.0615 C.ar           1 <1>                0.0000
      5 C5          28.0787  37.2110  37.9266 C.ar           1 <1>                0.0000
      6 C6          29.4390  36.9075  37.9945 C.ar           1 <1>                0.0000
      7 C7          30.2544  36.9934  36.8204 C.1            1 <1>                0.0000
      8 C8          30.9228  37.0637  35.8580 C.1            1 <1>                0.0000
      9 C9          31.7610  37.1520  34.6511 C.3            1 <1>                0.0000
     10 C10         32.6956  38.3569  34.5266 C.3            1 <1>                0.0000
     11 C11         33.2703  36.9706  34.8244 C.3            1 <1>                0.0000
     12 C12         30.0014  36.5204  39.2114 C.ar           1 <1>                0.0000
     13 C13         29.2115  36.4452  40.3401 C.ar           1 <1>                0.0000
     14 H14         26.6637  37.6502  41.7794 H              1 <1>                0.0000
     15 H15         27.5871  36.2268  42.3174 H              1 <1>                0.0000
     16 H16         26.2457  37.3611  39.0102 H              1 <1>                0.0000
     17 H17         27.6373  37.5108  36.9876 H              1 <1>                0.0000
     18 H18         31.3095  36.7686  33.7361 H              1 <1>                0.0000
     19 H19         32.8593  38.7660  33.5297 H              1 <1>                0.0000
     20 H20         32.6898  39.0843  35.3384 H              1 <1>                0.0000
     21 H21         33.6426  36.7859  35.8321 H              1 <1>                0.0000
     22 H22         33.8121  36.4677  34.0233 H              1 <1>                0.0000
     23 H23         31.0535  36.2839  39.2704 H              1 <1>                0.0000
     24 H24         29.6456  36.1462  41.2828 H              1 <1>                0.0000
     25 H25         25.0660  36.3676  40.9306 H              1 <1>                0.0000
     26 H26         26.0737  35.1366  40.5016 H              1 <1>                0.0000
     27 H27         25.5894  35.2969  42.0683 H              1 <1>                0.0000
@<TRIPOS>BOND
    1    1    2 1     
    2    1   25 1     
    3    1   26 1     
    4    1   27 1     
    5    2    3 1     
    6    2   14 1     
    7    2   15 1     
    8    3    4 ar    
    9    3   13 ar    
   10    4    5 ar    
   11    4   16 1     
   12    5    6 ar    
   13    5   17 1     
   14    6    7 1     
   15    6   12 ar    
   16    7    8 3     
   17    8    9 1     
   18    9   10 1     
   19    9   11 1     
   20    9   18 1     
   21   10   11 1     
   22   10   19 1     
   23   10   20 1     
   24   11   21 1     
   25   11   22 1     
   26   12   13 ar    
   27   12   23 1     
   28   13   24 1     
@<TRIPOS>SUBSTRUCTURE
      1 ****           1
@<TRIPOS>SET
DONOR_HYDROGENS      STATIC     ATOMS    <user>   **** ""
3 25 26 27
ATOM$RED        STATIC     ATOMS    COLORGROUP SYSTEM
3 25 26 27
@<TRIPOS>COMMENT
> <Gold.Version>
2022.2.0

> <Gold.Id.Protein>
1qkm|1qkm_protein|mol2

> <Gold.Protein.RotatedTorsions>
[  496  491  490  487 ] final  121.37 input  -89.99 | X-H torsion

> <Gold.Protein.ActiveResidues>
 MET295  LEU298  THR299  LEU301  ALA302  GLU305  TRP335  MET336  LEU339  MET340 
 GLY342  LEU343  ARG346  PHE356  ILE373  ILE376  PHE377  LEU380  LYS471  GLY472 
 MET473  HIS475  LEU476  LEU477  ASN478  MET479  VAL484  VAL487 

> <Gold.Protein.RotatedAtoms>
   37.0911   32.9455   41.5989 H   0  0  0  0  0  0  0  0  0  0  0  0  # atno 496  bound_to 491 

> <Gold.Score>
     Score     S(PLP)   S(hbond)     S(cho)   S(metal)  DE(clash)   DE(tors)     intcor
     48.82     -42.90       2.00       0.00       0.00       0.00       0.04       0.00

> <Gold.PLP.Fitness>
48.8162

> <Gold.PLP.PLP>
-42.9029

> <Gold.PLP.part.hbond>
-1.0000

> <Gold.PLP.part.metal>
0.0000

> <Gold.PLP.part.buried>
-1.8433

> <Gold.PLP.part.nonpolar>
-40.9033

> <Gold.PLP.part.repulsive>
0.0667

> <Gold.PLP.ligand.clash>
0.0000

> <Gold.PLP.ligand.torsion>
0.0435

> <Gold.PLP.Chemscore.Hbond>
2.0000

> <Gold.PLP.Chemscore.CHOScore>
0.0000

> <Gold.PLP.Chemscore.Metal>
0.0000

> <Gold.Chemscore.Hbonds>
donor molecule, donor type, donor heavy atom, donor atom, acceptor molecule, acceptor atom, score
      L1  H     1    27       P1   582  2.00

> <Gold.PLP.Chemscore.Internal.Correction>
0.0003

