#       Name:                EN300-6738580_i001
#       Creating user name   aseyller
#       Creation time:       Fri Apr 21 13:28:17 2023


#       File generated by GOLD software.
#

@<TRIPOS>MOLECULE
EN300-6738580_i001|amine_1|mol2|388|dock1
    27    28     1
SMALL
USER_CHARGES


@<TRIPOS>ATOM
      1 N1          24.5509  35.8352  41.8007 N.4            1 <1>                1.0000
      2 C2          25.3205  37.0516  41.5073 C.3            1 <1>                0.0000
      3 C3          26.5989  36.6792  40.8017 C.ar           1 <1>                0.0000
      4 C4          27.7811  36.5977  41.5157 C.ar           1 <1>                0.0000
      5 C5          28.9549  36.2568  40.8758 C.ar           1 <1>                0.0000
      6 C6          28.9479  35.9940  39.5054 C.ar           1 <1>                0.0000
      7 C7          30.1626  35.6392  38.8351 C.1            1 <1>                0.0000
      8 C8          31.1584  35.3483  38.2855 C.1            1 <1>                0.0000
      9 C9          32.4070  34.9835  37.5965 C.3            1 <1>                0.0000
     10 C10         32.5641  35.4226  36.1394 C.3            1 <1>                0.0000
     11 C11         33.3727  36.1150  37.2383 C.3            1 <1>                0.0000
     12 C12         27.7522  36.0781  38.7910 C.ar           1 <1>                0.0000
     13 C13         26.5843  36.4149  39.4439 C.ar           1 <1>                0.0000
     14 H14         24.7311  37.7093  40.8685 H              1 <1>                0.0000
     15 H15         25.5563  37.5658  42.4390 H              1 <1>                0.0000
     16 H16         27.7852  36.8016  42.5763 H              1 <1>                0.0000
     17 H17         29.8772  36.1938  41.4342 H              1 <1>                0.0000
     18 H18         32.8389  34.0245  37.8826 H              1 <1>                0.0000
     19 H19         33.0997  34.7526  35.4668 H              1 <1>                0.0000
     20 H20         31.7428  35.9815  35.6908 H              1 <1>                0.0000
     21 H21         33.0833  37.1294  37.5127 H              1 <1>                0.0000
     22 H22         34.4402  35.9005  37.2887 H              1 <1>                0.0000
     23 H23         27.7404  35.8762  37.7301 H              1 <1>                0.0000
     24 H24         25.6581  36.4799  38.8922 H              1 <1>                0.0000
     25 H25         25.1518  35.1551  42.2417 H              1 <1>                0.0000
     26 H26         23.7875  36.0615  42.4205 H              1 <1>                0.0000
     27 H27         24.1847  35.4536  40.9416 H              1 <1>                0.0000
@<TRIPOS>BOND
    1    1    2 1     
    2    1   25 1     
    3    1   26 1     
    4    1   27 1     
    5    2    3 1     
    6    2   14 1     
    7    2   15 1     
    8    3    4 ar    
    9    3   13 ar    
   10    4    5 ar    
   11    4   16 1     
   12    5    6 ar    
   13    5   17 1     
   14    6    7 1     
   15    6   12 ar    
   16    7    8 3     
   17    8    9 1     
   18    9   10 1     
   19    9   11 1     
   20    9   18 1     
   21   10   11 1     
   22   10   19 1     
   23   10   20 1     
   24   11   21 1     
   25   11   22 1     
   26   12   13 ar    
   27   12   23 1     
   28   13   24 1     
@<TRIPOS>SUBSTRUCTURE
      1 ****           1
@<TRIPOS>SET
DONOR_HYDROGENS      STATIC     ATOMS    <user>   **** ""
3 25 26 27
ATOM$RED        STATIC     ATOMS    COLORGROUP SYSTEM
3 25 26 27
@<TRIPOS>COMMENT
> <Gold.Version>
2022.2.0

> <Gold.Id.Protein>
1qkm|1qkm_protein|mol2

> <Gold.Protein.RotatedTorsions>
[  496  491  490  487 ] final  -23.19 input  -89.99 | X-H torsion

> <Gold.Protein.ActiveResidues>
 MET295  LEU298  THR299  LEU301  ALA302  GLU305  TRP335  MET336  LEU339  MET340 
 GLY342  LEU343  ARG346  PHE356  ILE373  ILE376  PHE377  LEU380  LYS471  GLY472 
 MET473  HIS475  LEU476  LEU477  ASN478  MET479  VAL484  VAL487 

> <Gold.Protein.RotatedAtoms>
   36.2901   34.5044   41.9947 H   0  0  0  0  0  0  0  0  0  0  0  0  # atno 496  bound_to 491 

> <Gold.Score>
     Score     S(PLP)   S(hbond)     S(cho)   S(metal)  DE(clash)   DE(tors)     intcor
     59.63     -52.78       2.48       0.00       0.00       0.00       0.29       0.00

> <Gold.PLP.Fitness>
59.6286

> <Gold.PLP.PLP>
-52.7800

> <Gold.PLP.part.hbond>
-2.6478

> <Gold.PLP.part.metal>
0.0000

> <Gold.PLP.part.buried>
-1.4695

> <Gold.PLP.part.nonpolar>
-50.3976

> <Gold.PLP.part.repulsive>
1.4012

> <Gold.PLP.ligand.clash>
0.0000

> <Gold.PLP.ligand.torsion>
0.2939

> <Gold.PLP.Chemscore.Hbond>
2.4787

> <Gold.PLP.Chemscore.CHOScore>
0.0000

> <Gold.PLP.Chemscore.Metal>
0.0000

> <Gold.Chemscore.Hbonds>
donor molecule, donor type, donor heavy atom, donor atom, acceptor molecule, acceptor atom, score
      L1  H     1    25       P1   582  1.98
      L1  H     1    27       P1  1131  0.49

> <Gold.PLP.Chemscore.Internal.Correction>
0.0003

