#       Name:                EN300-6738580_i001
#       Creating user name   aseyller
#       Creation time:       Fri Apr 21 13:28:20 2023


#       File generated by GOLD software.
#

@<TRIPOS>MOLECULE
EN300-6738580_i001|amine_1|mol2|388|dock5
    27    28     1
SMALL
USER_CHARGES


@<TRIPOS>ATOM
      1 N1          26.0477  36.9102  42.2636 N.4            1 <1>                1.0000
      2 C2          25.8040  36.4421  40.8926 C.3            1 <1>                0.0000
      3 C3          27.0898  36.4930  40.1084 C.ar           1 <1>                0.0000
      4 C4          27.1300  37.1543  38.8938 C.ar           1 <1>                0.0000
      5 C5          28.3042  37.2050  38.1711 C.ar           1 <1>                0.0000
      6 C6          29.4527  36.5874  38.6676 C.ar           1 <1>                0.0000
      7 C7          30.6748  36.6367  37.9228 C.1            1 <1>                0.0000
      8 C8          31.6767  36.6771  37.3123 C.1            1 <1>                0.0000
      9 C9          32.9329  36.7278  36.5466 C.3            1 <1>                0.0000
     10 C10         32.9918  35.9453  35.2331 C.3            1 <1>                0.0000
     11 C11         32.9163  37.4733  35.2107 C.3            1 <1>                0.0000
     12 C12         29.4054  35.9220  39.8932 C.ar           1 <1>                0.0000
     13 C13         28.2263  35.8831  40.6086 C.ar           1 <1>                0.0000
     14 H14         25.4348  35.4169  40.9190 H              1 <1>                0.0000
     15 H15         25.0623  37.0832  40.4163 H              1 <1>                0.0000
     16 H16         26.2403  37.6316  38.5105 H              1 <1>                0.0000
     17 H17         28.3342  37.7213  37.2229 H              1 <1>                0.0000
     18 H18         33.8444  36.7813  37.1419 H              1 <1>                0.0000
     19 H19         33.9422  35.4844  34.9641 H              1 <1>                0.0000
     20 H20         32.1003  35.3930  34.9360 H              1 <1>                0.0000
     21 H21         31.9752  37.9261  34.8987 H              1 <1>                0.0000
     22 H22         33.8171  38.0176  34.9268 H              1 <1>                0.0000
     23 H23         30.2909  35.4418  40.2828 H              1 <1>                0.0000
     24 H24         28.1885  35.3688  41.5576 H              1 <1>                0.0000
     25 H25         25.3891  37.6397  42.4920 H              1 <1>                0.0000
     26 H26         25.9342  36.1411  42.9067 H              1 <1>                0.0000
     27 H27         26.9872  37.2713  42.3336 H              1 <1>                0.0000
@<TRIPOS>BOND
    1    1    2 1     
    2    1   25 1     
    3    1   26 1     
    4    1   27 1     
    5    2    3 1     
    6    2   14 1     
    7    2   15 1     
    8    3    4 ar    
    9    3   13 ar    
   10    4    5 ar    
   11    4   16 1     
   12    5    6 ar    
   13    5   17 1     
   14    6    7 1     
   15    6   12 ar    
   16    7    8 3     
   17    8    9 1     
   18    9   10 1     
   19    9   11 1     
   20    9   18 1     
   21   10   11 1     
   22   10   19 1     
   23   10   20 1     
   24   11   21 1     
   25   11   22 1     
   26   12   13 ar    
   27   12   23 1     
   28   13   24 1     
@<TRIPOS>SUBSTRUCTURE
      1 ****           1
@<TRIPOS>SET
DONOR_HYDROGENS      STATIC     ATOMS    <user>   **** ""
3 25 26 27
ATOM$RED        STATIC     ATOMS    COLORGROUP SYSTEM
3 25 26 27
@<TRIPOS>COMMENT
> <Gold.Version>
2022.2.0

> <Gold.Id.Protein>
1qkm|1qkm_protein|mol2

> <Gold.Protein.RotatedTorsions>
[  496  491  490  487 ] final   90.90 input  -89.99 | X-H torsion

> <Gold.Protein.ActiveResidues>
 MET295  LEU298  THR299  LEU301  ALA302  GLU305  TRP335  MET336  LEU339  MET340 
 GLY342  LEU343  ARG346  PHE356  ILE373  ILE376  PHE377  LEU380  LYS471  GLY472 
 MET473  HIS475  LEU476  LEU477  ASN478  MET479  VAL484  VAL487 

> <Gold.Protein.RotatedAtoms>
   36.8286   33.0161   42.0134 H   0  0  0  0  0  0  0  0  0  0  0  0  # atno 496  bound_to 491 

> <Gold.Score>
     Score     S(PLP)   S(hbond)     S(cho)   S(metal)  DE(clash)   DE(tors)     intcor
     53.62     -47.73       2.00       0.00       0.00       0.00       0.05       0.00

> <Gold.PLP.Fitness>
53.6207

> <Gold.PLP.PLP>
-47.7285

> <Gold.PLP.part.hbond>
-1.0000

> <Gold.PLP.part.metal>
0.0000

> <Gold.PLP.part.buried>
-3.6104

> <Gold.PLP.part.nonpolar>
-44.5542

> <Gold.PLP.part.repulsive>
0.2392

> <Gold.PLP.ligand.clash>
0.0000

> <Gold.PLP.ligand.torsion>
0.0540

> <Gold.PLP.Chemscore.Hbond>
2.0000

> <Gold.PLP.Chemscore.CHOScore>
0.0000

> <Gold.PLP.Chemscore.Metal>
0.0000

> <Gold.Chemscore.Hbonds>
donor molecule, donor type, donor heavy atom, donor atom, acceptor molecule, acceptor atom, score
      L1  H     1    26       P1   582  2.00

> <Gold.PLP.Chemscore.Internal.Correction>
0.0003

