#       Name:                EN300-6738580_i001
#       Creating user name   aseyller
#       Creation time:       Fri Apr 21 13:28:23 2023


#       File generated by GOLD software.
#

@<TRIPOS>MOLECULE
EN300-6738580_i001|amine_1|mol2|388|dock9
    27    28     1
SMALL
USER_CHARGES


@<TRIPOS>ATOM
      1 N1          33.3045  36.8747  34.0001 N.4            1 <1>                1.0000
      2 C2          32.4106  37.9963  34.3177 C.3            1 <1>                0.0000
      3 C3          31.7048  37.7227  35.6207 C.ar           1 <1>                0.0000
      4 C4          30.4373  38.2331  35.8379 C.ar           1 <1>                0.0000
      5 C5          29.7855  37.9859  37.0285 C.ar           1 <1>                0.0000
      6 C6          30.4074  37.2193  38.0147 C.ar           1 <1>                0.0000
      7 C7          29.7362  36.9585  39.2526 C.1            1 <1>                0.0000
      8 C8          29.1861  36.7448  40.2674 C.1            1 <1>                0.0000
      9 C9          28.4962  36.4767  41.5398 C.3            1 <1>                0.0000
     10 C10         26.9753  36.6414  41.5671 C.3            1 <1>                0.0000
     11 C11         27.5941  35.2428  41.6079 C.3            1 <1>                0.0000
     12 C12         31.6858  36.7076  37.7895 C.ar           1 <1>                0.0000
     13 C13         32.3247  36.9577  36.5924 C.ar           1 <1>                0.0000
     14 H14         32.9944  38.9125  34.4060 H              1 <1>                0.0000
     15 H15         31.6739  38.1102  33.5224 H              1 <1>                0.0000
     16 H16         29.9573  38.8265  35.0738 H              1 <1>                0.0000
     17 H17         28.7962  38.3852  37.1969 H              1 <1>                0.0000
     18 H18         29.0480  36.7474  42.4399 H              1 <1>                0.0000
     19 H19         26.5266  37.0202  42.4854 H              1 <1>                0.0000
     20 H20         26.4856  36.9484  40.6429 H              1 <1>                0.0000
     21 H21         27.5115  34.6295  40.7106 H              1 <1>                0.0000
     22 H22         27.5525  34.7013  42.5530 H              1 <1>                0.0000
     23 H23         32.1726  36.1138  38.5490 H              1 <1>                0.0000
     24 H24         33.3141  36.5618  36.4166 H              1 <1>                0.0000
     25 H25         32.8472  36.2540  33.3491 H              1 <1>                0.0000
     26 H26         34.1544  37.2285  33.5870 H              1 <1>                0.0000
     27 H27         33.5260  36.3712  34.8459 H              1 <1>                0.0000
@<TRIPOS>BOND
    1    1    2 1     
    2    1   25 1     
    3    1   26 1     
    4    1   27 1     
    5    2    3 1     
    6    2   14 1     
    7    2   15 1     
    8    3    4 ar    
    9    3   13 ar    
   10    4    5 ar    
   11    4   16 1     
   12    5    6 ar    
   13    5   17 1     
   14    6    7 1     
   15    6   12 ar    
   16    7    8 3     
   17    8    9 1     
   18    9   10 1     
   19    9   11 1     
   20    9   18 1     
   21   10   11 1     
   22   10   19 1     
   23   10   20 1     
   24   11   21 1     
   25   11   22 1     
   26   12   13 ar    
   27   12   23 1     
   28   13   24 1     
@<TRIPOS>SUBSTRUCTURE
      1 ****           1
@<TRIPOS>SET
DONOR_HYDROGENS      STATIC     ATOMS    <user>   **** ""
3 25 26 27
ATOM$RED        STATIC     ATOMS    COLORGROUP SYSTEM
3 25 26 27
@<TRIPOS>COMMENT
> <Gold.Version>
2022.2.0

> <Gold.Id.Protein>
1qkm|1qkm_protein|mol2

> <Gold.Protein.RotatedTorsions>
[  496  491  490  487 ] final  148.45 input  -89.99 | X-H torsion

> <Gold.Protein.ActiveResidues>
 MET295  LEU298  THR299  LEU301  ALA302  GLU305  TRP335  MET336  LEU339  MET340 
 GLY342  LEU343  ARG346  PHE356  ILE373  ILE376  PHE377  LEU380  LYS471  GLY472 
 MET473  HIS475  LEU476  LEU477  ASN478  MET479  VAL484  VAL487 

> <Gold.Protein.RotatedAtoms>
   37.2561   33.0905   41.2157 H   0  0  0  0  0  0  0  0  0  0  0  0  # atno 496  bound_to 491 

> <Gold.Score>
     Score     S(PLP)   S(hbond)     S(cho)   S(metal)  DE(clash)   DE(tors)     intcor
     51.64     -46.39       2.00       0.00       0.00       0.00       0.37       0.00

> <Gold.PLP.Fitness>
51.6358

> <Gold.PLP.PLP>
-46.3854

> <Gold.PLP.part.hbond>
-2.0000

> <Gold.PLP.part.metal>
0.0000

> <Gold.PLP.part.buried>
0.9540

> <Gold.PLP.part.nonpolar>
-45.7986

> <Gold.PLP.part.repulsive>
0.1029

> <Gold.PLP.ligand.clash>
0.0000

> <Gold.PLP.ligand.torsion>
0.3750

> <Gold.PLP.Chemscore.Hbond>
2.0000

> <Gold.PLP.Chemscore.CHOScore>
0.0000

> <Gold.PLP.Chemscore.Metal>
0.0000

> <Gold.Chemscore.Hbonds>
donor molecule, donor type, donor heavy atom, donor atom, acceptor molecule, acceptor atom, score
      L1  H     1    25       P1  3187  1.00
      L1  H     1    26       P1  3229  1.00

> <Gold.PLP.Chemscore.Internal.Correction>
0.0003

