#       Name:                EN300-6738580_i001
#       Creating user name   aseyller
#       Creation time:       Fri Apr 21 13:28:28 2023


#       File generated by GOLD software.
#

@<TRIPOS>MOLECULE
EN300-6738580_i001|amine_1|mol2|388|dock16
    27    28     1
SMALL
USER_CHARGES


@<TRIPOS>ATOM
      1 N1          26.1043  37.1852  42.8132 N.4            1 <1>                1.0000
      2 C2          25.7544  36.9966  41.3990 C.3            1 <1>                0.0000
      3 C3          27.0074  36.7431  40.6011 C.ar           1 <1>                0.0000
      4 C4          28.0936  36.1309  41.2006 C.ar           1 <1>                0.0000
      5 C5          29.2436  35.8955  40.4756 C.ar           1 <1>                0.0000
      6 C6          29.3096  36.2763  39.1348 C.ar           1 <1>                0.0000
      7 C7          30.5000  36.0345  38.3764 C.1            1 <1>                0.0000
      8 C8          31.4759  35.8363  37.7547 C.1            1 <1>                0.0000
      9 C9          32.6995  35.5877  36.9750 C.3            1 <1>                0.0000
     10 C10         33.2201  36.7260  36.0952 C.3            1 <1>                0.0000
     11 C11         33.9622  36.3512  37.3795 C.3            1 <1>                0.0000
     12 C12         28.2106  36.8934  38.5361 C.ar           1 <1>                0.0000
     13 C13         27.0647  37.1184  39.2708 C.ar           1 <1>                0.0000
     14 H14         25.0827  36.1438  41.3014 H              1 <1>                0.0000
     15 H15         25.2603  37.8930  41.0243 H              1 <1>                0.0000
     16 H16         28.0413  35.8369  42.2385 H              1 <1>                0.0000
     17 H17         30.0910  35.4178  40.9448 H              1 <1>                0.0000
     18 H18         32.8232  34.5696  36.6062 H              1 <1>                0.0000
     19 H19         33.6865  36.4567  35.1475 H              1 <1>                0.0000
     20 H20         32.6564  37.6590  36.0935 H              1 <1>                0.0000
     21 H21         33.8868  37.0377  38.2229 H              1 <1>                0.0000
     22 H22         34.9169  35.8354  37.2769 H              1 <1>                0.0000
     23 H23         28.2556  37.1909  37.4988 H              1 <1>                0.0000
     24 H24         26.2132  37.5956  38.8084 H              1 <1>                0.0000
     25 H25         25.8166  36.3754  43.3418 H              1 <1>                0.0000
     26 H26         27.1023  37.3059  42.8995 H              1 <1>                0.0000
     27 H27         25.6345  38.0038  43.1696 H              1 <1>                0.0000
@<TRIPOS>BOND
    1    1    2 1     
    2    1   25 1     
    3    1   26 1     
    4    1   27 1     
    5    2    3 1     
    6    2   14 1     
    7    2   15 1     
    8    3    4 ar    
    9    3   13 ar    
   10    4    5 ar    
   11    4   16 1     
   12    5    6 ar    
   13    5   17 1     
   14    6    7 1     
   15    6   12 ar    
   16    7    8 3     
   17    8    9 1     
   18    9   10 1     
   19    9   11 1     
   20    9   18 1     
   21   10   11 1     
   22   10   19 1     
   23   10   20 1     
   24   11   21 1     
   25   11   22 1     
   26   12   13 ar    
   27   12   23 1     
   28   13   24 1     
@<TRIPOS>SUBSTRUCTURE
      1 ****           1
@<TRIPOS>SET
DONOR_HYDROGENS      STATIC     ATOMS    <user>   **** ""
3 25 26 27
ATOM$RED        STATIC     ATOMS    COLORGROUP SYSTEM
3 25 26 27
@<TRIPOS>COMMENT
> <Gold.Version>
2022.2.0

> <Gold.Id.Protein>
1qkm|1qkm_protein|mol2

> <Gold.Protein.RotatedTorsions>
[  496  491  490  487 ] final   42.57 input  -89.99 | X-H torsion

> <Gold.Protein.ActiveResidues>
 MET295  LEU298  THR299  LEU301  ALA302  GLU305  TRP335  MET336  LEU339  MET340 
 GLY342  LEU343  ARG346  PHE356  ILE373  ILE376  PHE377  LEU380  LYS471  GLY472 
 MET473  HIS475  LEU476  LEU477  ASN478  MET479  VAL484  VAL487 

> <Gold.Protein.RotatedAtoms>
   36.4205   33.5627   42.3753 H   0  0  0  0  0  0  0  0  0  0  0  0  # atno 496  bound_to 491 

> <Gold.Score>
     Score     S(PLP)   S(hbond)     S(cho)   S(metal)  DE(clash)   DE(tors)     intcor
     49.57     -44.32       2.00       0.00       0.00       0.00       0.37       0.00

> <Gold.PLP.Fitness>
49.5667

> <Gold.PLP.PLP>
-44.3152

> <Gold.PLP.part.hbond>
-1.4780

> <Gold.PLP.part.metal>
0.0000

> <Gold.PLP.part.buried>
-1.4282

> <Gold.PLP.part.nonpolar>
-42.8028

> <Gold.PLP.part.repulsive>
1.6039

> <Gold.PLP.ligand.clash>
0.0000

> <Gold.PLP.ligand.torsion>
0.3743

> <Gold.PLP.Chemscore.Hbond>
2.0000

> <Gold.PLP.Chemscore.CHOScore>
0.0000

> <Gold.PLP.Chemscore.Metal>
0.0000

> <Gold.Chemscore.Hbonds>
donor molecule, donor type, donor heavy atom, donor atom, acceptor molecule, acceptor atom, score
      L1  H     1    25       P1   582  2.00

> <Gold.PLP.Chemscore.Internal.Correction>
0.0001

