#       Name:                EN300-6738580_i001
#       Creating user name   aseyller
#       Creation time:       Fri Apr 21 13:28:17 2023


#       File generated by GOLD software.
#

@<TRIPOS>MOLECULE
EN300-6738580_i001
    27    28     1
SMALL
USER_CHARGES


@<TRIPOS>ATOM
      1 N1          -4.6026   0.1949   0.9680 N.4            1 <1>                1.0000
      2 C2          -4.0948   0.0600  -0.4039 C.3            1 <1>                0.0000
      3 C3          -2.5919  -0.0464  -0.3750 C.ar           1 <1>                0.0000
      4 C4          -1.9912  -1.2888  -0.2763 C.ar           1 <1>                0.0000
      5 C5          -0.6157  -1.3932  -0.2498 C.ar           1 <1>                0.0000
      6 C6           0.1698  -0.2422  -0.3228 C.ar           1 <1>                0.0000
      7 C7           1.5980  -0.3435  -0.2963 C.1            1 <1>                0.0000
      8 C8           2.7688  -0.4265  -0.2745 C.1            1 <1>                0.0000
      9 C9           4.2369  -0.5306  -0.2473 C.3            1 <1>                0.0000
     10 C10          5.0390   0.7696  -0.3308 C.3            1 <1>                0.0000
     11 C11          4.9601   0.0030   0.9909 C.3            1 <1>                0.0000
     12 C12         -0.4423   1.0078  -0.4221 C.ar           1 <1>                0.0000
     13 C13         -1.8187   1.0981  -0.4529 C.ar           1 <1>                0.0000
     14 H14         -4.5139  -0.8369  -0.8599 H              1 <1>                0.0000
     15 H15         -4.3860   0.9339  -0.9866 H              1 <1>                0.0000
     16 H16         -2.6003  -2.1788  -0.2196 H              1 <1>                0.0000
     17 H17         -0.1480  -2.3636  -0.1724 H              1 <1>                0.0000
     18 H18          4.6548  -1.4119  -0.7338 H              1 <1>                0.0000
     19 H19          5.9848   0.7436  -0.8720 H              1 <1>                0.0000
     20 H20          4.4796   1.7021  -0.4060 H              1 <1>                0.0000
     21 H21          4.3488   0.4312   1.7853 H              1 <1>                0.0000
     22 H22          5.8540  -0.5273   1.3193 H              1 <1>                0.0000
     23 H23          0.1602   1.9024  -0.4786 H              1 <1>                0.0000
     24 H24         -2.2937   2.0650  -0.5302 H              1 <1>                0.0000
     25 H25         -4.2147   1.0252   1.3901 H              1 <1>                0.0000
     26 H26         -5.6089   0.2662   0.9486 H              1 <1>                0.0000
     27 H27         -4.3331  -0.6140   1.5074 H              1 <1>                0.0000
@<TRIPOS>BOND
    1    1    2 1     
    2    1   25 1     
    3    1   26 1     
    4    1   27 1     
    5    2    3 1     
    6    2   14 1     
    7    2   15 1     
    8    3    4 ar    
    9    3   13 ar    
   10    4    5 ar    
   11    4   16 1     
   12    5    6 ar    
   13    5   17 1     
   14    6    7 1     
   15    6   12 ar    
   16    7    8 3     
   17    8    9 1     
   18    9   10 1     
   19    9   11 1     
   20    9   18 1     
   21   10   11 1     
   22   10   19 1     
   23   10   20 1     
   24   11   21 1     
   25   11   22 1     
   26   12   13 ar    
   27   12   23 1     
   28   13   24 1     
@<TRIPOS>SUBSTRUCTURE
      1 ****           1
@<TRIPOS>SET
DONOR_HYDROGENS      STATIC     ATOMS    <user>   **** ""
3 25 26 27
ATOM$RED        STATIC     ATOMS    COLORGROUP SYSTEM
3 25 26 27
