#       Name:                EN300-6738580_i001
#       Creating user name   aseyller
#       Creation time:       Fri Apr 21 13:28:29 2023


#       File generated by GOLD software.
#

@<TRIPOS>MOLECULE
EN300-6738580_i001|amine_1|mol2|388|dock18
    27    28     1
SMALL
USER_CHARGES


@<TRIPOS>ATOM
      1 N1          24.5114  36.2014  41.8852 N.4            1 <1>                1.0000
      2 C2          25.3171  37.2921  41.3200 C.3            1 <1>                0.0000
      3 C3          26.6030  36.7327  40.7683 C.ar           1 <1>                0.0000
      4 C4          26.7074  36.4490  39.4182 C.ar           1 <1>                0.0000
      5 C5          27.8821  35.9372  38.9066 C.ar           1 <1>                0.0000
      6 C6          28.9662  35.7058  39.7542 C.ar           1 <1>                0.0000
      7 C7          30.1885  35.1751  39.2296 C.1            1 <1>                0.0000
      8 C8          31.1906  34.7402  38.7996 C.1            1 <1>                0.0000
      9 C9          32.4470  34.1948  38.2604 C.3            1 <1>                0.0000
     10 C10         32.3444  33.0477  37.2531 C.3            1 <1>                0.0000
     11 C11         32.7490  34.4459  36.7816 C.3            1 <1>                0.0000
     12 C12         28.8543  35.9940  41.1148 C.ar           1 <1>                0.0000
     13 C13         27.6759  36.5104  41.6129 C.ar           1 <1>                0.0000
     14 H14         24.7595  37.7786  40.5197 H              1 <1>                0.0000
     15 H15         25.5423  38.0193  42.1001 H              1 <1>                0.0000
     16 H16         25.8676  36.6283  38.7634 H              1 <1>                0.0000
     17 H17         27.9623  35.7158  37.8526 H              1 <1>                0.0000
     18 H18         33.2897  34.1837  38.9516 H              1 <1>                0.0000
     19 H19         33.1198  32.2822  37.2814 H              1 <1>                0.0000
     20 H20         31.3465  32.6969  36.9897 H              1 <1>                0.0000
     21 H21         32.0173  35.0149  36.2081 H              1 <1>                0.0000
     22 H22         33.7906  34.6002  36.4998 H              1 <1>                0.0000
     23 H23         29.6898  35.8168  41.7760 H              1 <1>                0.0000
     24 H24         27.5881  36.7343  42.6658 H              1 <1>                0.0000
     25 H25         23.9818  35.7583  41.1495 H              1 <1>                0.0000
     26 H26         25.1202  35.5226  42.3172 H              1 <1>                0.0000
     27 H27         23.8789  36.5743  42.5772 H              1 <1>                0.0000
@<TRIPOS>BOND
    1    1    2 1     
    2    1   25 1     
    3    1   26 1     
    4    1   27 1     
    5    2    3 1     
    6    2   14 1     
    7    2   15 1     
    8    3    4 ar    
    9    3   13 ar    
   10    4    5 ar    
   11    4   16 1     
   12    5    6 ar    
   13    5   17 1     
   14    6    7 1     
   15    6   12 ar    
   16    7    8 3     
   17    8    9 1     
   18    9   10 1     
   19    9   11 1     
   20    9   18 1     
   21   10   11 1     
   22   10   19 1     
   23   10   20 1     
   24   11   21 1     
   25   11   22 1     
   26   12   13 ar    
   27   12   23 1     
   28   13   24 1     
@<TRIPOS>SUBSTRUCTURE
      1 ****           1
@<TRIPOS>SET
DONOR_HYDROGENS      STATIC     ATOMS    <user>   **** ""
3 25 26 27
ATOM$RED        STATIC     ATOMS    COLORGROUP SYSTEM
3 25 26 27
@<TRIPOS>COMMENT
> <Gold.Version>
2022.2.0

> <Gold.Id.Protein>
1qkm|1qkm_protein|mol2

> <Gold.Protein.RotatedTorsions>
[  496  491  490  487 ] final  -32.61 input  -89.99 | X-H torsion

> <Gold.Protein.ActiveResidues>
 MET295  LEU298  THR299  LEU301  ALA302  GLU305  TRP335  MET336  LEU339  MET340 
 GLY342  LEU343  ARG346  PHE356  ILE373  ILE376  PHE377  LEU380  LYS471  GLY472 
 MET473  HIS475  LEU476  LEU477  ASN478  MET479  VAL484  VAL487 

> <Gold.Protein.RotatedAtoms>
   36.3261   34.5939   41.8736 H   0  0  0  0  0  0  0  0  0  0  0  0  # atno 496  bound_to 491 

> <Gold.Score>
     Score     S(PLP)   S(hbond)     S(cho)   S(metal)  DE(clash)   DE(tors)     intcor
     50.77     -42.50       2.98       0.00       0.00       0.00       0.33       0.00

> <Gold.PLP.Fitness>
50.7707

> <Gold.PLP.PLP>
-42.4998

> <Gold.PLP.part.hbond>
-2.2399

> <Gold.PLP.part.metal>
0.0000

> <Gold.PLP.part.buried>
-1.2301

> <Gold.PLP.part.nonpolar>
-44.0745

> <Gold.PLP.part.repulsive>
3.3583

> <Gold.PLP.ligand.clash>
0.0000

> <Gold.PLP.ligand.torsion>
0.3286

> <Gold.PLP.Chemscore.Hbond>
2.9760

> <Gold.PLP.Chemscore.CHOScore>
0.0000

> <Gold.PLP.Chemscore.Metal>
0.0000

> <Gold.Chemscore.Hbonds>
donor molecule, donor type, donor heavy atom, donor atom, acceptor molecule, acceptor atom, score
      L1  H     1    25       P1  1131  0.98
      L1  H     1    26       P1   582  2.00

> <Gold.PLP.Chemscore.Internal.Correction>
0.0001

