#       Name:                EN300-6738580_i001
#       Creating user name   aseyller
#       Creation time:       Fri Apr 21 13:28:21 2023


#       File generated by GOLD software.
#

@<TRIPOS>MOLECULE
EN300-6738580_i001|amine_1|mol2|388|dock6
    27    28     1
SMALL
USER_CHARGES


@<TRIPOS>ATOM
      1 N1          26.2536  36.7173  42.4561 N.4            1 <1>                1.0000
      2 C2          25.5029  36.8156  41.1972 C.3            1 <1>                0.0000
      3 C3          26.4670  36.9469  40.0465 C.ar           1 <1>                0.0000
      4 C4          27.7241  36.3754  40.1326 C.ar           1 <1>                0.0000
      5 C5          28.6114  36.4915  39.0825 C.ar           1 <1>                0.0000
      6 C6          28.2385  37.1871  37.9317 C.ar           1 <1>                0.0000
      7 C7          29.1544  37.3109  36.8379 C.1            1 <1>                0.0000
      8 C8          29.9053  37.4124  35.9412 C.1            1 <1>                0.0000
      9 C9          30.8468  37.5397  34.8168 C.3            1 <1>                0.0000
     10 C10         31.7597  38.7673  34.7953 C.3            1 <1>                0.0000
     11 C11         32.3382  37.3895  35.1237 C.3            1 <1>                0.0000
     12 C12         26.9692  37.7611  37.8512 C.ar           1 <1>                0.0000
     13 C13         26.0894  37.6333  38.9063 C.ar           1 <1>                0.0000
     14 H14         24.8979  35.9189  41.0639 H              1 <1>                0.0000
     15 H15         24.8537  37.6906  41.2288 H              1 <1>                0.0000
     16 H16         28.0115  35.8376  41.0239 H              1 <1>                0.0000
     17 H17         29.5925  36.0452  39.1511 H              1 <1>                0.0000
     18 H18         30.4892  37.1615  33.8591 H              1 <1>                0.0000
     19 H19         32.0029  39.1966  33.8233 H              1 <1>                0.0000
     20 H20         31.6630  39.4808  35.6136 H              1 <1>                0.0000
     21 H21         32.6221  37.1966  36.1583 H              1 <1>                0.0000
     22 H22         32.9621  36.9124  34.3680 H              1 <1>                0.0000
     23 H23         26.6748  38.3011  36.9634 H              1 <1>                0.0000
     24 H24         25.1065  38.0768  38.8451 H              1 <1>                0.0000
     25 H25         26.0210  37.5002  43.0485 H              1 <1>                0.0000
     26 H26         26.0121  35.8572  42.9253 H              1 <1>                0.0000
     27 H27         27.2430  36.7266  42.2593 H              1 <1>                0.0000
@<TRIPOS>BOND
    1    1    2 1     
    2    1   25 1     
    3    1   26 1     
    4    1   27 1     
    5    2    3 1     
    6    2   14 1     
    7    2   15 1     
    8    3    4 ar    
    9    3   13 ar    
   10    4    5 ar    
   11    4   16 1     
   12    5    6 ar    
   13    5   17 1     
   14    6    7 1     
   15    6   12 ar    
   16    7    8 3     
   17    8    9 1     
   18    9   10 1     
   19    9   11 1     
   20    9   18 1     
   21   10   11 1     
   22   10   19 1     
   23   10   20 1     
   24   11   21 1     
   25   11   22 1     
   26   12   13 ar    
   27   12   23 1     
   28   13   24 1     
@<TRIPOS>SUBSTRUCTURE
      1 ****           1
@<TRIPOS>SET
DONOR_HYDROGENS      STATIC     ATOMS    <user>   **** ""
3 25 26 27
ATOM$RED        STATIC     ATOMS    COLORGROUP SYSTEM
3 25 26 27
@<TRIPOS>COMMENT
> <Gold.Version>
2022.2.0

> <Gold.Id.Protein>
1qkm|1qkm_protein|mol2

> <Gold.Protein.RotatedTorsions>
[  496  491  490  487 ] final -116.08 input  -89.99 | X-H torsion

> <Gold.Protein.ActiveResidues>
 MET295  LEU298  THR299  LEU301  ALA302  GLU305  TRP335  MET336  LEU339  MET340 
 GLY342  LEU343  ARG346  PHE356  ILE373  ILE376  PHE377  LEU380  LYS471  GLY472 
 MET473  HIS475  LEU476  LEU477  ASN478  MET479  VAL484  VAL487 

> <Gold.Protein.RotatedAtoms>
   36.9932   34.4049   40.8265 H   0  0  0  0  0  0  0  0  0  0  0  0  # atno 496  bound_to 491 

> <Gold.Score>
     Score     S(PLP)   S(hbond)     S(cho)   S(metal)  DE(clash)   DE(tors)     intcor
     52.55     -47.30       2.00       0.00       0.00       0.00       0.37       0.00

> <Gold.PLP.Fitness>
52.5472

> <Gold.PLP.PLP>
-47.2963

> <Gold.PLP.part.hbond>
-1.0000

> <Gold.PLP.part.metal>
0.0000

> <Gold.PLP.part.buried>
-3.3523

> <Gold.PLP.part.nonpolar>
-43.7574

> <Gold.PLP.part.repulsive>
0.0919

> <Gold.PLP.ligand.clash>
0.0000

> <Gold.PLP.ligand.torsion>
0.3747

> <Gold.PLP.Chemscore.Hbond>
2.0000

> <Gold.PLP.Chemscore.CHOScore>
0.0000

> <Gold.PLP.Chemscore.Metal>
0.0000

> <Gold.Chemscore.Hbonds>
donor molecule, donor type, donor heavy atom, donor atom, acceptor molecule, acceptor atom, score
      L1  H     1    26       P1   582  2.00

> <Gold.PLP.Chemscore.Internal.Correction>
0.0003

