#       Name:                EN300-6738580_i001
#       Creating user name   aseyller
#       Creation time:       Fri Apr 21 13:28:26 2023


#       File generated by GOLD software.
#

@<TRIPOS>MOLECULE
EN300-6738580_i001|amine_1|mol2|388|dock14
    27    28     1
SMALL
USER_CHARGES


@<TRIPOS>ATOM
      1 N1          33.1327  37.0285  34.0008 N.4            1 <1>                1.0000
      2 C2          32.4032  38.2643  34.3149 C.3            1 <1>                0.0000
      3 C3          31.2544  37.9487  35.2377 C.ar           1 <1>                0.0000
      4 C4          30.1666  38.8013  35.2997 C.ar           1 <1>                0.0000
      5 C5          29.1113  38.5179  36.1421 C.ar           1 <1>                0.0000
      6 C6          29.1429  37.3684  36.9326 C.ar           1 <1>                0.0000
      7 C7          28.0507  37.0680  37.8087 C.1            1 <1>                0.0000
      8 C8          27.1553  36.8219  38.5270 C.1            1 <1>                0.0000
      9 C9          26.0327  36.5131  39.4276 C.3            1 <1>                0.0000
     10 C10         26.3691  36.1267  40.8692 C.3            1 <1>                0.0000
     11 C11         25.7516  37.4937  40.5680 C.3            1 <1>                0.0000
     12 C12         30.2430  36.5127  36.8654 C.ar           1 <1>                0.0000
     13 C13         31.2895  36.8048  36.0150 C.ar           1 <1>                0.0000
     14 H14         33.0766  38.9701  34.8012 H              1 <1>                0.0000
     15 H15         32.0195  38.7037  33.3942 H              1 <1>                0.0000
     16 H16         30.1435  39.6907  34.6876 H              1 <1>                0.0000
     17 H17         28.2628  39.1844  36.1898 H              1 <1>                0.0000
     18 H18         25.1773  36.0238  38.9619 H              1 <1>                0.0000
     19 H19         25.7349  35.3833  41.3521 H              1 <1>                0.0000
     20 H20         27.4219  36.1010  41.1508 H              1 <1>                0.0000
     21 H21         26.3980  38.3673  40.6514 H              1 <1>                0.0000
     22 H22         24.7110  37.6497  40.8527 H              1 <1>                0.0000
     23 H23         30.2735  35.6216  37.4749 H              1 <1>                0.0000
     24 H24         32.1414  36.1431  35.9617 H              1 <1>                0.0000
     25 H25         34.0009  37.2580  33.5408 H              1 <1>                0.0000
     26 H26         33.3268  36.5263  34.8542 H              1 <1>                0.0000
     27 H27         32.5715  36.4522  33.3917 H              1 <1>                0.0000
@<TRIPOS>BOND
    1    1    2 1     
    2    1   25 1     
    3    1   26 1     
    4    1   27 1     
    5    2    3 1     
    6    2   14 1     
    7    2   15 1     
    8    3    4 ar    
    9    3   13 ar    
   10    4    5 ar    
   11    4   16 1     
   12    5    6 ar    
   13    5   17 1     
   14    6    7 1     
   15    6   12 ar    
   16    7    8 3     
   17    8    9 1     
   18    9   10 1     
   19    9   11 1     
   20    9   18 1     
   21   10   11 1     
   22   10   19 1     
   23   10   20 1     
   24   11   21 1     
   25   11   22 1     
   26   12   13 ar    
   27   12   23 1     
   28   13   24 1     
@<TRIPOS>SUBSTRUCTURE
      1 ****           1
@<TRIPOS>SET
DONOR_HYDROGENS      STATIC     ATOMS    <user>   **** ""
3 25 26 27
ATOM$RED        STATIC     ATOMS    COLORGROUP SYSTEM
3 25 26 27
@<TRIPOS>COMMENT
> <Gold.Version>
2022.2.0

> <Gold.Id.Protein>
1qkm|1qkm_protein|mol2

> <Gold.Protein.RotatedTorsions>
[  496  491  490  487 ] final  146.91 input  -89.99 | X-H torsion

> <Gold.Protein.ActiveResidues>
 MET295  LEU298  THR299  LEU301  ALA302  GLU305  TRP335  MET336  LEU339  MET340 
 GLY342  LEU343  ARG346  PHE356  ILE373  ILE376  PHE377  LEU380  LYS471  GLY472 
 MET473  HIS475  LEU476  LEU477  ASN478  MET479  VAL484  VAL487 

> <Gold.Protein.RotatedAtoms>
   37.2492   33.0773   41.2364 H   0  0  0  0  0  0  0  0  0  0  0  0  # atno 496  bound_to 491 

> <Gold.Score>
     Score     S(PLP)   S(hbond)     S(cho)   S(metal)  DE(clash)   DE(tors)     intcor
     50.08     -45.12       2.00       0.00       0.00       0.38       0.33       0.00

> <Gold.PLP.Fitness>
50.0816

> <Gold.PLP.PLP>
-45.1169

> <Gold.PLP.part.hbond>
-2.0000

> <Gold.PLP.part.metal>
0.0000

> <Gold.PLP.part.buried>
-3.0929

> <Gold.PLP.part.nonpolar>
-41.5977

> <Gold.PLP.part.repulsive>
0.0900

> <Gold.PLP.ligand.clash>
0.3827

> <Gold.PLP.ligand.torsion>
0.3264

> <Gold.PLP.Chemscore.Hbond>
2.0000

> <Gold.PLP.Chemscore.CHOScore>
0.0000

> <Gold.PLP.Chemscore.Metal>
0.0000

> <Gold.Chemscore.Hbonds>
donor molecule, donor type, donor heavy atom, donor atom, acceptor molecule, acceptor atom, score
      L1  H     1    25       P1  3229  1.00
      L1  H     1    27       P1  3187  1.00

> <Gold.PLP.Chemscore.Internal.Correction>
0.0001

