#       Name:                EN300-6738580_i001
#       Creating user name   aseyller
#       Creation time:       Fri Apr 21 13:28:25 2023


#       File generated by GOLD software.
#

@<TRIPOS>MOLECULE
EN300-6738580_i001|amine_1|mol2|388|dock12
    27    28     1
SMALL
USER_CHARGES


@<TRIPOS>ATOM
      1 N1          26.8083  36.6598  42.1120 N.4            1 <1>                1.0000
      2 C2          26.5984  35.8346  40.9149 C.3            1 <1>                0.0000
      3 C3          27.4302  36.3746  39.7803 C.ar           1 <1>                0.0000
      4 C4          28.8103  36.3731  39.8767 C.ar           1 <1>                0.0000
      5 C5          29.5778  36.8656  38.8413 C.ar           1 <1>                0.0000
      6 C6          28.9589  37.3661  37.6951 C.ar           1 <1>                0.0000
      7 C7          29.7495  37.8784  36.6165 C.1            1 <1>                0.0000
      8 C8          30.3976  38.2983  35.7323 C.1            1 <1>                0.0000
      9 C9          31.2103  38.8248  34.6237 C.3            1 <1>                0.0000
     10 C10         32.7004  39.0521  34.8860 C.3            1 <1>                0.0000
     11 C11         32.2481  37.8883  34.0017 C.3            1 <1>                0.0000
     12 C12         27.5665  37.3649  37.6042 C.ar           1 <1>                0.0000
     13 C13         26.8108  36.8646  38.6445 C.ar           1 <1>                0.0000
     14 H14         26.8945  34.8070  41.1255 H              1 <1>                0.0000
     15 H15         25.5448  35.8594  40.6368 H              1 <1>                0.0000
     16 H16         29.2880  35.9857  40.7644 H              1 <1>                0.0000
     17 H17         30.6550  36.8641  38.9179 H              1 <1>                0.0000
     18 H18         30.7033  39.5259  33.9607 H              1 <1>                0.0000
     19 H19         33.1738  39.9026  34.3953 H              1 <1>                0.0000
     20 H20         33.0789  38.8119  35.8795 H              1 <1>                0.0000
     21 H21         32.3291  36.8824  34.4136 H              1 <1>                0.0000
     22 H22         32.4240  37.9731  32.9294 H              1 <1>                0.0000
     23 H23         27.0816  37.7512  36.7199 H              1 <1>                0.0000
     24 H24         25.7329  36.8627  38.5752 H              1 <1>                0.0000
     25 H25         27.7754  36.9437  42.1594 H              1 <1>                0.0000
     26 H26         26.2197  37.4779  42.0639 H              1 <1>                0.0000
     27 H27         26.5741  36.1248  42.9346 H              1 <1>                0.0000
@<TRIPOS>BOND
    1    1    2 1     
    2    1   25 1     
    3    1   26 1     
    4    1   27 1     
    5    2    3 1     
    6    2   14 1     
    7    2   15 1     
    8    3    4 ar    
    9    3   13 ar    
   10    4    5 ar    
   11    4   16 1     
   12    5    6 ar    
   13    5   17 1     
   14    6    7 1     
   15    6   12 ar    
   16    7    8 3     
   17    8    9 1     
   18    9   10 1     
   19    9   11 1     
   20    9   18 1     
   21   10   11 1     
   22   10   19 1     
   23   10   20 1     
   24   11   21 1     
   25   11   22 1     
   26   12   13 ar    
   27   12   23 1     
   28   13   24 1     
@<TRIPOS>SUBSTRUCTURE
      1 ****           1
@<TRIPOS>SET
DONOR_HYDROGENS      STATIC     ATOMS    <user>   **** ""
3 25 26 27
ATOM$RED        STATIC     ATOMS    COLORGROUP SYSTEM
3 25 26 27
@<TRIPOS>COMMENT
> <Gold.Version>
2022.2.0

> <Gold.Id.Protein>
1qkm|1qkm_protein|mol2

> <Gold.Protein.RotatedTorsions>
[  496  491  490  487 ] final  168.32 input  -89.99 | X-H torsion

> <Gold.Protein.ActiveResidues>
 MET295  LEU298  THR299  LEU301  ALA302  GLU305  TRP335  MET336  LEU339  MET340 
 GLY342  LEU343  ARG346  PHE356  ILE373  ILE376  PHE377  LEU380  LYS471  GLY472 
 MET473  HIS475  LEU476  LEU477  ASN478  MET479  VAL484  VAL487 

> <Gold.Protein.RotatedAtoms>
   37.3133   33.3043   40.9772 H   0  0  0  0  0  0  0  0  0  0  0  0  # atno 496  bound_to 491 

> <Gold.Score>
     Score     S(PLP)   S(hbond)     S(cho)   S(metal)  DE(clash)   DE(tors)     intcor
     49.95     -43.98       2.00       0.00       0.00       0.00       0.01       0.00

> <Gold.PLP.Fitness>
49.9542

> <Gold.PLP.PLP>
-43.9785

> <Gold.PLP.part.hbond>
-1.0000

> <Gold.PLP.part.metal>
0.0000

> <Gold.PLP.part.buried>
-1.9579

> <Gold.PLP.part.nonpolar>
-41.5584

> <Gold.PLP.part.repulsive>
0.0571

> <Gold.PLP.ligand.clash>
0.0000

> <Gold.PLP.ligand.torsion>
0.0122

> <Gold.PLP.Chemscore.Hbond>
2.0000

> <Gold.PLP.Chemscore.CHOScore>
0.0000

> <Gold.PLP.Chemscore.Metal>
0.0000

> <Gold.Chemscore.Hbonds>
donor molecule, donor type, donor heavy atom, donor atom, acceptor molecule, acceptor atom, score
      L1  H     1    27       P1   582  2.00

> <Gold.PLP.Chemscore.Internal.Correction>
0.0001

