#       Name:                EN300-6738580_i001
#       Creating user name   aseyller
#       Creation time:       Fri Apr 21 13:28:18 2023


#       File generated by GOLD software.
#

@<TRIPOS>MOLECULE
EN300-6738580_i001|amine_1|mol2|388|dock2
    27    28     1
SMALL
USER_CHARGES


@<TRIPOS>ATOM
      1 N1          26.1014  36.9203  42.1723 N.4            1 <1>                1.0000
      2 C2          25.7972  36.4719  40.8068 C.3            1 <1>                0.0000
      3 C3          26.9653  36.7786  39.9055 C.ar           1 <1>                0.0000
      4 C4          28.2571  36.6437  40.3823 C.ar           1 <1>                0.0000
      5 C5          29.3310  36.9225  39.5621 C.ar           1 <1>                0.0000
      6 C6          29.1119  37.3412  38.2491 C.ar           1 <1>                0.0000
      7 C7          30.2221  37.6316  37.3924 C.1            1 <1>                0.0000
      8 C8          31.1321  37.8697  36.6900 C.1            1 <1>                0.0000
      9 C9          32.2733  38.1683  35.8094 C.3            1 <1>                0.0000
     10 C10         32.8645  37.0108  35.0023 C.3            1 <1>                0.0000
     11 C11         32.0395  38.0907  34.2994 C.3            1 <1>                0.0000
     12 C12         27.8067  37.4752  37.7745 C.ar           1 <1>                0.0000
     13 C13         26.7416  37.1883  38.6032 C.ar           1 <1>                0.0000
     14 H14         25.6128  35.3976  40.8098 H              1 <1>                0.0000
     15 H15         24.9111  36.9917  40.4427 H              1 <1>                0.0000
     16 H16         28.4252  36.3199  41.3987 H              1 <1>                0.0000
     17 H17         30.3389  36.8172  39.9356 H              1 <1>                0.0000
     18 H18         32.9614  38.9309  36.1739 H              1 <1>                0.0000
     19 H19         33.9417  37.0122  34.8355 H              1 <1>                0.0000
     20 H20         32.4086  36.0282  35.1234 H              1 <1>                0.0000
     21 H21         31.0408  37.8185  33.9580 H              1 <1>                0.0000
     22 H22         32.5739  38.8024  33.6701 H              1 <1>                0.0000
     23 H23         27.6306  37.7992  36.7593 H              1 <1>                0.0000
     24 H24         25.7308  37.2912  38.2369 H              1 <1>                0.0000
     25 H25         27.0433  37.2806  42.2060 H              1 <1>                0.0000
     26 H26         25.4538  37.6463  42.4399 H              1 <1>                0.0000
     27 H27         26.0160  36.1421  42.8087 H              1 <1>                0.0000
@<TRIPOS>BOND
    1    1    2 1     
    2    1   25 1     
    3    1   26 1     
    4    1   27 1     
    5    2    3 1     
    6    2   14 1     
    7    2   15 1     
    8    3    4 ar    
    9    3   13 ar    
   10    4    5 ar    
   11    4   16 1     
   12    5    6 ar    
   13    5   17 1     
   14    6    7 1     
   15    6   12 ar    
   16    7    8 3     
   17    8    9 1     
   18    9   10 1     
   19    9   11 1     
   20    9   18 1     
   21   10   11 1     
   22   10   19 1     
   23   10   20 1     
   24   11   21 1     
   25   11   22 1     
   26   12   13 ar    
   27   12   23 1     
   28   13   24 1     
@<TRIPOS>SUBSTRUCTURE
      1 ****           1
@<TRIPOS>SET
DONOR_HYDROGENS      STATIC     ATOMS    <user>   **** ""
3 25 26 27
ATOM$RED        STATIC     ATOMS    COLORGROUP SYSTEM
3 25 26 27
@<TRIPOS>COMMENT
> <Gold.Version>
2022.2.0

> <Gold.Id.Protein>
1qkm|1qkm_protein|mol2

> <Gold.Protein.RotatedTorsions>
[  496  491  490  487 ] final  -99.26 input  -89.99 | X-H torsion

> <Gold.Protein.ActiveResidues>
 MET295  LEU298  THR299  LEU301  ALA302  GLU305  TRP335  MET336  LEU339  MET340 
 GLY342  LEU343  ARG346  PHE356  ILE373  ILE376  PHE377  LEU380  LYS471  GLY472 
 MET473  HIS475  LEU476  LEU477  ASN478  MET479  VAL484  VAL487 

> <Gold.Protein.RotatedAtoms>
   36.8429   34.5822   40.9753 H   0  0  0  0  0  0  0  0  0  0  0  0  # atno 496  bound_to 491 

> <Gold.Score>
     Score     S(PLP)   S(hbond)     S(cho)   S(metal)  DE(clash)   DE(tors)     intcor
     55.67     -50.32       2.00       0.00       0.00       0.00       0.32       0.00

> <Gold.PLP.Fitness>
55.6714

> <Gold.PLP.PLP>
-50.3177

> <Gold.PLP.part.hbond>
-1.0000

> <Gold.PLP.part.metal>
0.0000

> <Gold.PLP.part.buried>
-3.3804

> <Gold.PLP.part.nonpolar>
-46.5424

> <Gold.PLP.part.repulsive>
0.0967

> <Gold.PLP.ligand.clash>
0.0000

> <Gold.PLP.ligand.torsion>
0.3233

> <Gold.PLP.Chemscore.Hbond>
2.0000

> <Gold.PLP.Chemscore.CHOScore>
0.0000

> <Gold.PLP.Chemscore.Metal>
0.0000

> <Gold.Chemscore.Hbonds>
donor molecule, donor type, donor heavy atom, donor atom, acceptor molecule, acceptor atom, score
      L1  H     1    27       P1   582  2.00

> <Gold.PLP.Chemscore.Internal.Correction>
0.0003

