#       Name:                EN300-6738580_i001
#       Creating user name   aseyller
#       Creation time:       Fri Apr 21 13:28:19 2023


#       File generated by GOLD software.
#

@<TRIPOS>MOLECULE
EN300-6738580_i001|amine_1|mol2|388|dock3
    27    28     1
SMALL
USER_CHARGES


@<TRIPOS>ATOM
      1 N1          24.9467  35.6735  41.4965 N.4            1 <1>                1.0000
      2 C2          25.4993  37.0250  41.3343 C.3            1 <1>                0.0000
      3 C3          26.7548  36.9579  40.5036 C.ar           1 <1>                0.0000
      4 C4          27.9529  36.5976  41.0941 C.ar           1 <1>                0.0000
      5 C5          29.1059  36.5338  40.3391 C.ar           1 <1>                0.0000
      6 C6          29.0617  36.8337  38.9770 C.ar           1 <1>                0.0000
      7 C7          30.2547  36.7690  38.1874 C.1            1 <1>                0.0000
      8 C8          31.2326  36.7158  37.5402 C.1            1 <1>                0.0000
      9 C9          32.4589  36.6493  36.7286 C.3            1 <1>                0.0000
     10 C10         33.2347  35.3306  36.7274 C.3            1 <1>                0.0000
     11 C11         32.4386  35.7510  35.4903 C.3            1 <1>                0.0000
     12 C12         27.8501  37.1965  38.3876 C.ar           1 <1>                0.0000
     13 C13         26.7033  37.2514  39.1527 C.ar           1 <1>                0.0000
     14 H14         24.7669  37.6596  40.8354 H              1 <1>                0.0000
     15 H15         25.7337  37.4416  42.3139 H              1 <1>                0.0000
     16 H16         27.9858  36.3660  42.1485 H              1 <1>                0.0000
     17 H17         30.0407  36.2527  40.8013 H              1 <1>                0.0000
     18 H18         33.0356  37.5725  36.6716 H              1 <1>                0.0000
     19 H19         34.3217  35.3862  36.6692 H              1 <1>                0.0000
     20 H20         32.8371  34.5123  37.3277 H              1 <1>                0.0000
     21 H21         31.5173  35.2091  35.2767 H              1 <1>                0.0000
     22 H22         33.0020  36.0831  34.6182 H              1 <1>                0.0000
     23 H23         27.8095  37.4301  37.3339 H              1 <1>                0.0000
     24 H24         25.7648  37.5317  38.6975 H              1 <1>                0.0000
     25 H25         25.4711  35.0253  40.9284 H              1 <1>                0.0000
     26 H26         25.0094  35.3986  42.4653 H              1 <1>                0.0000
     27 H27         23.9801  35.6685  41.2074 H              1 <1>                0.0000
@<TRIPOS>BOND
    1    1    2 1     
    2    1   25 1     
    3    1   26 1     
    4    1   27 1     
    5    2    3 1     
    6    2   14 1     
    7    2   15 1     
    8    3    4 ar    
    9    3   13 ar    
   10    4    5 ar    
   11    4   16 1     
   12    5    6 ar    
   13    5   17 1     
   14    6    7 1     
   15    6   12 ar    
   16    7    8 3     
   17    8    9 1     
   18    9   10 1     
   19    9   11 1     
   20    9   18 1     
   21   10   11 1     
   22   10   19 1     
   23   10   20 1     
   24   11   21 1     
   25   11   22 1     
   26   12   13 ar    
   27   12   23 1     
   28   13   24 1     
@<TRIPOS>SUBSTRUCTURE
      1 ****           1
@<TRIPOS>SET
DONOR_HYDROGENS      STATIC     ATOMS    <user>   **** ""
3 25 26 27
ATOM$RED        STATIC     ATOMS    COLORGROUP SYSTEM
3 25 26 27
@<TRIPOS>COMMENT
> <Gold.Version>
2022.2.0

> <Gold.Id.Protein>
1qkm|1qkm_protein|mol2

> <Gold.Protein.RotatedTorsions>
[  496  491  490  487 ] final -145.89 input  -89.99 | X-H torsion

> <Gold.Protein.ActiveResidues>
 MET295  LEU298  THR299  LEU301  ALA302  GLU305  TRP335  MET336  LEU339  MET340 
 GLY342  LEU343  ARG346  PHE356  ILE373  ILE376  PHE377  LEU380  LYS471  GLY472 
 MET473  HIS475  LEU476  LEU477  ASN478  MET479  VAL484  VAL487 

> <Gold.Protein.RotatedAtoms>
   37.2092   33.9837   40.7202 H   0  0  0  0  0  0  0  0  0  0  0  0  # atno 496  bound_to 491 

> <Gold.Score>
     Score     S(PLP)   S(hbond)     S(cho)   S(metal)  DE(clash)   DE(tors)     intcor
     56.41     -48.35       2.89       0.00       0.00       0.00       0.30       0.00

> <Gold.PLP.Fitness>
56.4120

> <Gold.PLP.PLP>
-48.3473

> <Gold.PLP.part.hbond>
-2.0000

> <Gold.PLP.part.metal>
0.0000

> <Gold.PLP.part.buried>
-1.7576

> <Gold.PLP.part.nonpolar>
-45.6070

> <Gold.PLP.part.repulsive>
0.1374

> <Gold.PLP.ligand.clash>
0.0000

> <Gold.PLP.ligand.torsion>
0.2998

> <Gold.PLP.Chemscore.Hbond>
2.8880

> <Gold.PLP.Chemscore.CHOScore>
0.0000

> <Gold.PLP.Chemscore.Metal>
0.0000

> <Gold.Chemscore.Hbonds>
donor molecule, donor type, donor heavy atom, donor atom, acceptor molecule, acceptor atom, score
      L1  H     1    26       P1   582  1.89
      L1  H     1    27       P1  1131  1.00

> <Gold.PLP.Chemscore.Internal.Correction>
0.0003

