#       Name:                EN300-6738580_i001
#       Creating user name   aseyller
#       Creation time:       Fri Apr 21 13:28:22 2023


#       File generated by GOLD software.
#

@<TRIPOS>MOLECULE
EN300-6738580_i001|amine_1|mol2|388|dock8
    27    28     1
SMALL
USER_CHARGES


@<TRIPOS>ATOM
      1 N1          24.9985  35.7880  41.5006 N.4            1 <1>                1.0000
      2 C2          25.8000  37.0191  41.4841 C.3            1 <1>                0.0000
      3 C3          26.8634  36.9119  40.4218 C.ar           1 <1>                0.0000
      4 C4          26.5396  37.1459  39.0972 C.ar           1 <1>                0.0000
      5 C5          27.5086  37.0499  38.1197 C.ar           1 <1>                0.0000
      6 C6          28.8175  36.7160  38.4696 C.ar           1 <1>                0.0000
      7 C7          29.8282  36.6152  37.4601 C.1            1 <1>                0.0000
      8 C8          30.6567  36.5326  36.6326 C.1            1 <1>                0.0000
      9 C9          31.6956  36.4290  35.5948 C.3            1 <1>                0.0000
     10 C10         31.8146  37.5824  34.5967 C.3            1 <1>                0.0000
     11 C11         32.8784  37.3957  35.6804 C.3            1 <1>                0.0000
     12 C12         29.1374  36.4812  39.8073 C.ar           1 <1>                0.0000
     13 C13         28.1603  36.5855  40.7758 C.ar           1 <1>                0.0000
     14 H14         25.1543  37.8701  41.2675 H              1 <1>                0.0000
     15 H15         26.2711  37.1588  42.4570 H              1 <1>                0.0000
     16 H16         25.5261  37.4040  38.8277 H              1 <1>                0.0000
     17 H17         27.2545  37.2325  37.0860 H              1 <1>                0.0000
     18 H18         31.8936  35.4224  35.2267 H              1 <1>                0.0000
     19 H19         32.0913  37.3347  33.5719 H              1 <1>                0.0000
     20 H20         31.1236  38.4180  34.7084 H              1 <1>                0.0000
     21 H21         32.8872  38.1085  36.5050 H              1 <1>                0.0000
     22 H22         33.8549  37.0252  35.3685 H              1 <1>                0.0000
     23 H23         30.1486  36.2220  40.0845 H              1 <1>                0.0000
     24 H24         28.4067  36.4045  41.8116 H              1 <1>                0.0000
     25 H25         24.0427  36.0057  41.2618 H              1 <1>                0.0000
     26 H26         25.3724  35.1343  40.8291 H              1 <1>                0.0000
     27 H27         25.0301  35.3784  42.4221 H              1 <1>                0.0000
@<TRIPOS>BOND
    1    1    2 1     
    2    1   25 1     
    3    1   26 1     
    4    1   27 1     
    5    2    3 1     
    6    2   14 1     
    7    2   15 1     
    8    3    4 ar    
    9    3   13 ar    
   10    4    5 ar    
   11    4   16 1     
   12    5    6 ar    
   13    5   17 1     
   14    6    7 1     
   15    6   12 ar    
   16    7    8 3     
   17    8    9 1     
   18    9   10 1     
   19    9   11 1     
   20    9   18 1     
   21   10   11 1     
   22   10   19 1     
   23   10   20 1     
   24   11   21 1     
   25   11   22 1     
   26   12   13 ar    
   27   12   23 1     
   28   13   24 1     
@<TRIPOS>SUBSTRUCTURE
      1 ****           1
@<TRIPOS>SET
DONOR_HYDROGENS      STATIC     ATOMS    <user>   **** ""
3 25 26 27
ATOM$RED        STATIC     ATOMS    COLORGROUP SYSTEM
3 25 26 27
@<TRIPOS>COMMENT
> <Gold.Version>
2022.2.0

> <Gold.Id.Protein>
1qkm|1qkm_protein|mol2

> <Gold.Protein.RotatedTorsions>
[  496  491  490  487 ] final -160.38 input  -89.99 | X-H torsion

> <Gold.Protein.ActiveResidues>
 MET295  LEU298  THR299  LEU301  ALA302  GLU305  TRP335  MET336  LEU339  MET340 
 GLY342  LEU343  ARG346  PHE356  ILE373  ILE376  PHE377  LEU380  LYS471  GLY472 
 MET473  HIS475  LEU476  LEU477  ASN478  MET479  VAL484  VAL487 

> <Gold.Protein.RotatedAtoms>
   37.2766   33.7574   40.7485 H   0  0  0  0  0  0  0  0  0  0  0  0  # atno 496  bound_to 491 

> <Gold.Score>
     Score     S(PLP)   S(hbond)     S(cho)   S(metal)  DE(clash)   DE(tors)     intcor
     54.39     -46.74       2.74       0.00       0.00       0.00       0.28       0.00

> <Gold.PLP.Fitness>
54.3907

> <Gold.PLP.PLP>
-46.7377

> <Gold.PLP.part.hbond>
-2.0000

> <Gold.PLP.part.metal>
0.0000

> <Gold.PLP.part.buried>
-2.9788

> <Gold.PLP.part.nonpolar>
-42.6968

> <Gold.PLP.part.repulsive>
0.1385

> <Gold.PLP.ligand.clash>
0.0000

> <Gold.PLP.ligand.torsion>
0.2806

> <Gold.PLP.Chemscore.Hbond>
2.7380

> <Gold.PLP.Chemscore.CHOScore>
0.0000

> <Gold.PLP.Chemscore.Metal>
0.0000

> <Gold.Chemscore.Hbonds>
donor molecule, donor type, donor heavy atom, donor atom, acceptor molecule, acceptor atom, score
      L1  H     1    25       P1  1131  0.75
      L1  H     1    27       P1   582  1.98

> <Gold.PLP.Chemscore.Internal.Correction>
0.0003

