#       Name:                EN300-6738580_i001
#       Creating user name   aseyller
#       Creation time:       Fri Apr 21 13:28:31 2023


#       File generated by GOLD software.
#

@<TRIPOS>MOLECULE
EN300-6738580_i001|amine_1|mol2|388|dock20
    27    28     1
SMALL
USER_CHARGES


@<TRIPOS>ATOM
      1 N1          33.5982  37.8451  34.6009 N.4            1 <1>                1.0000
      2 C2          33.2465  36.4661  34.9657 C.3            1 <1>                0.0000
      3 C3          32.2798  36.4833  36.1215 C.ar           1 <1>                0.0000
      4 C4          32.6837  36.0281  37.3640 C.ar           1 <1>                0.0000
      5 C5          31.8037  36.0415  38.4265 C.ar           1 <1>                0.0000
      6 C6          30.5038  36.5156  38.2458 C.ar           1 <1>                0.0000
      7 C7          29.5855  36.5327  39.3445 C.1            1 <1>                0.0000
      8 C8          28.8327  36.5468  40.2453 C.1            1 <1>                0.0000
      9 C9          27.8888  36.5644  41.3747 C.3            1 <1>                0.0000
     10 C10         26.4222  36.8711  41.0649 C.3            1 <1>                0.0000
     11 C11         26.8437  35.4488  41.4393 C.3            1 <1>                0.0000
     12 C12         30.1027  36.9732  36.9901 C.ar           1 <1>                0.0000
     13 C13         30.9940  36.9593  35.9371 C.ar           1 <1>                0.0000
     14 H14         32.7835  35.9713  34.1120 H              1 <1>                0.0000
     15 H15         34.1480  35.9255  35.2540 H              1 <1>                0.0000
     16 H16         33.6900  35.6612  37.5024 H              1 <1>                0.0000
     17 H17         32.1201  35.6856  39.3958 H              1 <1>                0.0000
     18 H18         28.2915  36.9324  42.3183 H              1 <1>                0.0000
     19 H19         25.8600  37.4406  41.8049 H              1 <1>                0.0000
     20 H20         26.1563  37.0600  40.0248 H              1 <1>                0.0000
     21 H21         26.8551  34.7019  40.6455 H              1 <1>                0.0000
     22 H22         26.5588  35.0826  42.4256 H              1 <1>                0.0000
     23 H23         29.0978  37.3410  36.8439 H              1 <1>                0.0000
     24 H24         30.6850  37.3137  34.9648 H              1 <1>                0.0000
     25 H25         34.2868  37.8328  33.8636 H              1 <1>                0.0000
     26 H26         32.7726  38.3295  34.2820 H              1 <1>                0.0000
     27 H27         33.9765  38.3200  35.4067 H              1 <1>                0.0000
@<TRIPOS>BOND
    1    1    2 1     
    2    1   25 1     
    3    1   26 1     
    4    1   27 1     
    5    2    3 1     
    6    2   14 1     
    7    2   15 1     
    8    3    4 ar    
    9    3   13 ar    
   10    4    5 ar    
   11    4   16 1     
   12    5    6 ar    
   13    5   17 1     
   14    6    7 1     
   15    6   12 ar    
   16    7    8 3     
   17    8    9 1     
   18    9   10 1     
   19    9   11 1     
   20    9   18 1     
   21   10   11 1     
   22   10   19 1     
   23   10   20 1     
   24   11   21 1     
   25   11   22 1     
   26   12   13 ar    
   27   12   23 1     
   28   13   24 1     
@<TRIPOS>SUBSTRUCTURE
      1 ****           1
@<TRIPOS>SET
DONOR_HYDROGENS      STATIC     ATOMS    <user>   **** ""
3 25 26 27
ATOM$RED        STATIC     ATOMS    COLORGROUP SYSTEM
3 25 26 27
@<TRIPOS>COMMENT
> <Gold.Version>
2022.2.0

> <Gold.Id.Protein>
1qkm|1qkm_protein|mol2

> <Gold.Protein.RotatedTorsions>
[  496  491  490  487 ] final -169.69 input  -89.99 | X-H torsion

> <Gold.Protein.ActiveResidues>
 MET295  LEU298  THR299  LEU301  ALA302  GLU305  TRP335  MET336  LEU339  MET340 
 GLY342  LEU343  ARG346  PHE356  ILE373  ILE376  PHE377  LEU380  LYS471  GLY472 
 MET473  HIS475  LEU476  LEU477  ASN478  MET479  VAL484  VAL487 

> <Gold.Protein.RotatedAtoms>
   37.3037   33.6137   40.7939 H   0  0  0  0  0  0  0  0  0  0  0  0  # atno 496  bound_to 491 

> <Gold.Score>
     Score     S(PLP)   S(hbond)     S(cho)   S(metal)  DE(clash)   DE(tors)     intcor
     48.88     -46.02       1.00       0.00       0.00       0.00       0.07       0.00

> <Gold.PLP.Fitness>
48.8775

> <Gold.PLP.PLP>
-46.0215

> <Gold.PLP.part.hbond>
-1.0000

> <Gold.PLP.part.metal>
0.0000

> <Gold.PLP.part.buried>
0.8816

> <Gold.PLP.part.nonpolar>
-45.4442

> <Gold.PLP.part.repulsive>
0.0687

> <Gold.PLP.ligand.clash>
0.0000

> <Gold.PLP.ligand.torsion>
0.0721

> <Gold.PLP.Chemscore.Hbond>
1.0000

> <Gold.PLP.Chemscore.CHOScore>
0.0000

> <Gold.PLP.Chemscore.Metal>
0.0000

> <Gold.Chemscore.Hbonds>
donor molecule, donor type, donor heavy atom, donor atom, acceptor molecule, acceptor atom, score
      L1  H     1    25       P1  3229  1.00

> <Gold.PLP.Chemscore.Internal.Correction>
0.0001

