#       Name:                EN300-6738580_i001
#       Creating user name   aseyller
#       Creation time:       Fri Apr 21 13:28:19 2023


#       File generated by GOLD software.
#

@<TRIPOS>MOLECULE
EN300-6738580_i001|amine_1|mol2|388|dock4
    27    28     1
SMALL
USER_CHARGES


@<TRIPOS>ATOM
      1 N1          33.2074  36.9825  34.0086 N.4            1 <1>                1.0000
      2 C2          33.8381  36.4008  35.2010 C.3            1 <1>                0.0000
      3 C3          32.8058  36.2389  36.2869 C.ar           1 <1>                0.0000
      4 C4          32.6984  35.0356  36.9611 C.ar           1 <1>                0.0000
      5 C5          31.7557  34.8810  37.9566 C.ar           1 <1>                0.0000
      6 C6          30.9095  35.9415  38.2828 C.ar           1 <1>                0.0000
      7 C7          29.9292  35.7879  39.3153 C.1            1 <1>                0.0000
      8 C8          29.1256  35.6621  40.1618 C.1            1 <1>                0.0000
      9 C9          28.1179  35.5041  41.2232 C.3            1 <1>                0.0000
     10 C10         27.5052  36.7770  41.8106 C.3            1 <1>                0.0000
     11 C11         26.6739  35.8830  40.8884 C.3            1 <1>                0.0000
     12 C12         31.0230  37.1525  37.5989 C.ar           1 <1>                0.0000
     13 C13         31.9734  37.2958  36.6090 C.ar           1 <1>                0.0000
     14 H14         34.2584  35.4267  34.9511 H              1 <1>                0.0000
     15 H15         34.6323  37.0605  35.5503 H              1 <1>                0.0000
     16 H16         33.3537  34.2155  36.7075 H              1 <1>                0.0000
     17 H17         31.6726  33.9410  38.4820 H              1 <1>                0.0000
     18 H18         28.2742  34.6628  41.8983 H              1 <1>                0.0000
     19 H19         27.2579  36.7730  42.8722 H              1 <1>                0.0000
     20 H20         27.8482  37.7314  41.4112 H              1 <1>                0.0000
     21 H21         26.4701  36.2493  39.8822 H              1 <1>                0.0000
     22 H22         25.8798  35.2909  41.3432 H              1 <1>                0.0000
     23 H23         30.3708  37.9770  37.8465 H              1 <1>                0.0000
     24 H24         32.0625  38.2328  36.0792 H              1 <1>                0.0000
     25 H25         33.8940  37.5060  33.4864 H              1 <1>                0.0000
     26 H26         32.8364  36.2438  33.4301 H              1 <1>                0.0000
     27 H27         32.4586  37.5973  34.2902 H              1 <1>                0.0000
@<TRIPOS>BOND
    1    1    2 1     
    2    1   25 1     
    3    1   26 1     
    4    1   27 1     
    5    2    3 1     
    6    2   14 1     
    7    2   15 1     
    8    3    4 ar    
    9    3   13 ar    
   10    4    5 ar    
   11    4   16 1     
   12    5    6 ar    
   13    5   17 1     
   14    6    7 1     
   15    6   12 ar    
   16    7    8 3     
   17    8    9 1     
   18    9   10 1     
   19    9   11 1     
   20    9   18 1     
   21   10   11 1     
   22   10   19 1     
   23   10   20 1     
   24   11   21 1     
   25   11   22 1     
   26   12   13 ar    
   27   12   23 1     
   28   13   24 1     
@<TRIPOS>SUBSTRUCTURE
      1 ****           1
@<TRIPOS>SET
DONOR_HYDROGENS      STATIC     ATOMS    <user>   **** ""
3 25 26 27
ATOM$RED        STATIC     ATOMS    COLORGROUP SYSTEM
3 25 26 27
@<TRIPOS>COMMENT
> <Gold.Version>
2022.2.0

> <Gold.Id.Protein>
1qkm|1qkm_protein|mol2

> <Gold.Protein.RotatedTorsions>
[  496  491  490  487 ] final -112.86 input  -89.99 | X-H torsion

> <Gold.Protein.ActiveResidues>
 MET295  LEU298  THR299  LEU301  ALA302  GLU305  TRP335  MET336  LEU339  MET340 
 GLY342  LEU343  ARG346  PHE356  ILE373  ILE376  PHE377  LEU380  LYS471  GLY472 
 MET473  HIS475  LEU476  LEU477  ASN478  MET479  VAL484  VAL487 

> <Gold.Protein.RotatedAtoms>
   36.9653   34.4432   40.8505 H   0  0  0  0  0  0  0  0  0  0  0  0  # atno 496  bound_to 491 

> <Gold.Score>
     Score     S(PLP)   S(hbond)     S(cho)   S(metal)  DE(clash)   DE(tors)     intcor
     54.71     -49.12       1.94       0.00       0.00       0.00       0.12       0.00

> <Gold.PLP.Fitness>
54.7054

> <Gold.PLP.PLP>
-49.1170

> <Gold.PLP.part.hbond>
-2.0000

> <Gold.PLP.part.metal>
0.0000

> <Gold.PLP.part.buried>
-3.0066

> <Gold.PLP.part.nonpolar>
-44.8854

> <Gold.PLP.part.repulsive>
0.0940

> <Gold.PLP.ligand.clash>
0.0000

> <Gold.PLP.ligand.torsion>
0.1178

> <Gold.PLP.Chemscore.Hbond>
1.9413

> <Gold.PLP.Chemscore.CHOScore>
0.0000

> <Gold.PLP.Chemscore.Metal>
0.0000

> <Gold.Chemscore.Hbonds>
donor molecule, donor type, donor heavy atom, donor atom, acceptor molecule, acceptor atom, score
      L1  H     1    25       P1  3229  0.95
      L1  H     1    26       P1  3187  0.99

> <Gold.PLP.Chemscore.Internal.Correction>
0.0003

