#       Name:                EN300-6738580_i001
#       Creating user name   aseyller
#       Creation time:       Fri Apr 21 13:28:30 2023


#       File generated by GOLD software.
#

@<TRIPOS>MOLECULE
EN300-6738580_i001|amine_1|mol2|388|dock19
    27    28     1
SMALL
USER_CHARGES


@<TRIPOS>ATOM
      1 N1          27.1223  36.1297  42.1863 N.4            1 <1>                1.0000
      2 C2          26.8941  35.4984  40.8795 C.3            1 <1>                0.0000
      3 C3          27.9814  35.9160  39.9233 C.ar           1 <1>                0.0000
      4 C4          29.2927  35.5495  40.1688 C.ar           1 <1>                0.0000
      5 C5          30.2928  35.9282  39.2970 C.ar           1 <1>                0.0000
      6 C6          29.9792  36.6825  38.1657 C.ar           1 <1>                0.0000
      7 C7          31.0124  37.0784  37.2565 C.1            1 <1>                0.0000
      8 C8          31.8592  37.4031  36.5112 C.1            1 <1>                0.0000
      9 C9          32.9212  37.8101  35.5766 C.3            1 <1>                0.0000
     10 C10         33.4442  36.7557  34.5990 C.3            1 <1>                0.0000
     11 C11         32.5607  37.8973  34.0922 C.3            1 <1>                0.0000
     12 C12         28.6547  37.0489  37.9239 C.ar           1 <1>                0.0000
     13 C13         27.6633  36.6594  38.8008 C.ar           1 <1>                0.0000
     14 H14         26.9063  34.4144  40.9926 H              1 <1>                0.0000
     15 H15         25.9263  35.8121  40.4886 H              1 <1>                0.0000
     16 H16         29.5340  34.9659  41.0449 H              1 <1>                0.0000
     17 H17         31.3161  35.6417  39.4900 H              1 <1>                0.0000
     18 H18         33.6363  38.5354  35.9645 H              1 <1>                0.0000
     19 H19         34.5034  36.7876  34.3436 H              1 <1>                0.0000
     20 H20         33.0020  35.7606  34.6480 H              1 <1>                0.0000
     21 H21         31.5371  37.6532  33.8077 H              1 <1>                0.0000
     22 H22         33.0385  38.6802  33.5033 H              1 <1>                0.0000
     23 H23         28.4057  37.6330  37.0502 H              1 <1>                0.0000
     24 H24         26.6376  36.9420  38.6145 H              1 <1>                0.0000
     25 H25         26.9785  37.1253  42.1085 H              1 <1>                0.0000
     26 H26         26.4767  35.7483  42.8613 H              1 <1>                0.0000
     27 H27         28.0685  35.9490  42.4864 H              1 <1>                0.0000
@<TRIPOS>BOND
    1    1    2 1     
    2    1   25 1     
    3    1   26 1     
    4    1   27 1     
    5    2    3 1     
    6    2   14 1     
    7    2   15 1     
    8    3    4 ar    
    9    3   13 ar    
   10    4    5 ar    
   11    4   16 1     
   12    5    6 ar    
   13    5   17 1     
   14    6    7 1     
   15    6   12 ar    
   16    7    8 3     
   17    8    9 1     
   18    9   10 1     
   19    9   11 1     
   20    9   18 1     
   21   10   11 1     
   22   10   19 1     
   23   10   20 1     
   24   11   21 1     
   25   11   22 1     
   26   12   13 ar    
   27   12   23 1     
   28   13   24 1     
@<TRIPOS>SUBSTRUCTURE
      1 ****           1
@<TRIPOS>SET
DONOR_HYDROGENS      STATIC     ATOMS    <user>   **** ""
3 25 26 27
ATOM$RED        STATIC     ATOMS    COLORGROUP SYSTEM
3 25 26 27
@<TRIPOS>COMMENT
> <Gold.Version>
2022.2.0

> <Gold.Id.Protein>
1qkm|1qkm_protein|mol2

> <Gold.Protein.RotatedTorsions>
[  496  491  490  487 ] final   10.59 input  -89.99 | X-H torsion

> <Gold.Protein.ActiveResidues>
 MET295  LEU298  THR299  LEU301  ALA302  GLU305  TRP335  MET336  LEU339  MET340 
 GLY342  LEU343  ARG346  PHE356  ILE373  ILE376  PHE377  LEU380  LYS471  GLY472 
 MET473  HIS475  LEU476  LEU477  ASN478  MET479  VAL484  VAL487 

> <Gold.Protein.RotatedAtoms>
   36.2745   34.0573   42.3112 H   0  0  0  0  0  0  0  0  0  0  0  0  # atno 496  bound_to 491 

> <Gold.Score>
     Score     S(PLP)   S(hbond)     S(cho)   S(metal)  DE(clash)   DE(tors)     intcor
     48.53     -42.71       1.95       0.00       0.00       0.00       0.02       0.00

> <Gold.PLP.Fitness>
48.5342

> <Gold.PLP.PLP>
-42.7116

> <Gold.PLP.part.hbond>
-0.8226

> <Gold.PLP.part.metal>
0.0000

> <Gold.PLP.part.buried>
0.5927

> <Gold.PLP.part.nonpolar>
-43.9507

> <Gold.PLP.part.repulsive>
0.0598

> <Gold.PLP.ligand.clash>
0.0000

> <Gold.PLP.ligand.torsion>
0.0168

> <Gold.PLP.Chemscore.Hbond>
1.9520

> <Gold.PLP.Chemscore.CHOScore>
0.0000

> <Gold.PLP.Chemscore.Metal>
0.0000

> <Gold.Chemscore.Hbonds>
donor molecule, donor type, donor heavy atom, donor atom, acceptor molecule, acceptor atom, score
      L1  H     1    26       P1   582  1.95

> <Gold.PLP.Chemscore.Internal.Correction>
0.0001

