#       Name:                EN300-26978906_i004
#       Creating user name   fsindt
#       Creation time:       Wed Mar  1 05:43:04 2023


#       File generated by GOLD software.
#

@<TRIPOS>MOLECULE
EN300-26978906_i004|acide_1|mol2|6892|dock12
    41    41     1
SMALL
USER_CHARGES


@<TRIPOS>ATOM
      1 C1          -0.3839 -17.3858   8.0852 C.3            1 <1>                0.0000
      2 O2          -0.0993 -16.0962   8.6309 O.3            1 <1>                0.0000
      3 C3          -0.3500 -15.9904  10.0338 C.3            1 <1>                0.0000
      4 C4           0.2816 -14.7038  10.5692 C.3            1 <1>                0.0000
      5 C5           1.7830 -14.6997  10.2746 C.3            1 <1>                0.0000
      6 C6          -0.3858 -13.4780   9.9106 C.3            1 <1>                0.0000
      7 C7          -1.4388 -13.0470  10.9656 C.3            1 <1>                0.0000
      8 C8          -0.6987 -13.3609  12.2898 C.3            1 <1>                0.0000
      9 N9           0.0560 -14.6017  12.0184 N.am           1 <1>                0.0000
     10 C10          0.4651 -15.4908  12.9450 C.2            1 <1>                0.0000
     11 O11          0.2174 -15.3016  14.1194 O.2            1 <1>                0.0000
     12 O12          1.1482 -16.5885  12.5693 O.3            1 <1>                0.0000
     13 C13          1.2852 -17.6482  13.5524 C.3            1 <1>                0.0000
     14 C14         -0.0970 -18.0335  14.0830 C.3            1 <1>                0.0000
     15 C15          1.9392 -18.8678  12.8999 C.3            1 <1>                0.0000
     16 C16          2.1581 -17.1598  14.7103 C.3            1 <1>                0.0000
     17 C17         -1.7448 -11.5757  10.8534 C.2            1 <1>                0.0000
     18 O18         -1.3739 -10.8078  11.7247 O.co2          1 <1>                0.0000
     19 O19         -2.3632 -11.1533   9.8913 O.co2          1 <1>               -1.0000
     20 H20          0.2351 -18.1342   8.5798 H              1 <1>                0.0000
     21 H21         -1.4360 -17.6228   8.2425 H              1 <1>                0.0000
     22 H22         -0.1677 -17.3839   7.0168 H              1 <1>                0.0000
     23 H23         -1.4255 -15.9679  10.2100 H              1 <1>                0.0000
     24 H24          0.0842 -16.8489  10.5462 H              1 <1>                0.0000
     25 H25          1.9420 -14.7450   9.1972 H              1 <1>                0.0000
     26 H26          2.2281 -13.7865  10.6696 H              1 <1>                0.0000
     27 H27          2.2483 -15.5647  10.7473 H              1 <1>                0.0000
     28 H28          0.3427 -12.6842   9.7463 H              1 <1>                0.0000
     29 H29         -0.8698 -13.7586   8.9751 H              1 <1>                0.0000
     30 H30         -2.3479 -13.6416  10.8757 H              1 <1>                0.0000
     31 H31         -0.0152 -12.5506  12.5437 H              1 <1>                0.0000
     32 H32         -1.4148 -13.5208  13.0958 H              1 <1>                0.0000
     33 H33         -0.7189 -18.3814  13.2582 H              1 <1>                0.0000
     34 H34          0.0058 -18.8289  14.8211 H              1 <1>                0.0000
     35 H35         -0.5630 -17.1646  14.5480 H              1 <1>                0.0000
     36 H36          2.9240 -18.5932  12.5218 H              1 <1>                0.0000
     37 H37          2.0421 -19.6632  13.6380 H              1 <1>                0.0000
     38 H38          1.3174 -19.2156  12.0750 H              1 <1>                0.0000
     39 H39          1.6921 -16.2909  15.1751 H              1 <1>                0.0000
     40 H40          2.2610 -17.9553  15.4483 H              1 <1>                0.0000
     41 H41          3.1429 -16.8853  14.3323 H              1 <1>                0.0000
@<TRIPOS>BOND
    1    1    2 1     
    2    1   20 1     
    3    1   21 1     
    4    1   22 1     
    5    2    3 1     
    6    3    4 1     
    7    3   23 1     
    8    3   24 1     
    9    4    5 1     
   10    4    6 1     
   11    4    9 1     
   12    5   25 1     
   13    5   26 1     
   14    5   27 1     
   15    6    7 1     
   16    6   28 1     
   17    6   29 1     
   18    7    8 1     
   19    7   17 1     
   20    7   30 1     
   21    8    9 1     
   22    8   31 1     
   23    8   32 1     
   24    9   10 am    
   25   10   11 2     
   26   10   12 1     
   27   12   13 1     
   28   13   14 1     
   29   13   15 1     
   30   13   16 1     
   31   14   33 1     
   32   14   34 1     
   33   14   35 1     
   34   15   36 1     
   35   15   37 1     
   36   15   38 1     
   37   16   39 1     
   38   16   40 1     
   39   16   41 1     
   40   17   18 ar    
   41   17   19 ar    
@<TRIPOS>SUBSTRUCTURE
      1 ****           1
@<TRIPOS>COMMENT
> <Gold.Version>
2022.2.0

> <Gold.Id.Protein>
3pbl|protein|mol2

> <Gold.Protein.RotatedTorsions>
[ 1303 1298 1297 1294 ] final  -44.26 input  179.99 | X-H torsion
[ 2461 2456 2455 2452 ] final  -16.78 input   30.03 | X-H torsion
[ 2515 2510 2509 2506 ] final   62.46 input  -89.99 | X-H torsion
[ 3721 3712 3711 3710 ] final  139.87 input -179.91 | X-H torsion
[ 3841 3832 3831 3830 ] final  -36.80 input -179.91 | X-H torsion
[ 3767 3762 3761 3758 ] final -168.66 input  -89.99 | X-H torsion
[ 2472 2467 2466 2463 ] final -170.90 input  -89.97 | X-H torsion

> <Gold.Protein.ActiveResidues>
 VAL82   VAL86   LEU89   PHE106  VAL107  ASP110  VAL111  MET112  CYS114  THR115 
 CYS181  SER182  ILE183  PHE188  VAL189  ILE190  SER192  SER193  SER196  TRP342 
 PHE345  PHE346  HIS349  VAL350  TYR365  THR369  GLY372  TYR373 

> <Gold.Protein.RotatedAtoms>
    3.3893   -9.2097    3.7924 H   0  0  0  0  0  0  0  0  0  0  0  0  # atno 1303 bound_to 1298
    0.7920   -8.1025    7.0579 H   0  0  0  0  0  0  0  0  0  0  0  0  # atno 2461 bound_to 2456
   -5.2533   -5.4177    9.1320 H   0  0  0  0  0  0  0  0  0  0  0  0  # atno 2472 bound_to 2467
    2.1379   -7.4763    5.4851 H   0  0  0  0  0  0  0  0  0  0  0  0  # atno 2515 bound_to 2510
   -3.1458  -16.9810   13.1191 H   0  0  0  0  0  0  0  0  0  0  0  0  # atno 3721 bound_to 3712
   -4.2080  -22.3959   11.6223 H   0  0  0  0  0  0  0  0  0  0  0  0  # atno 3767 bound_to 3762
    1.5618  -20.0519    9.2775 H   0  0  0  0  0  0  0  0  0  0  0  0  # atno 3841 bound_to 3832
    4.7481   -8.6909    4.5346 LP  0  0  0  0  0  0  0  0  0  0  0  0  # atno 4297 bound_to 1298
    4.2251  -10.2207    4.7648 LP  0  0  0  0  0  0  0  0  0  0  0  0  # atno 4298 bound_to 1298
    0.7844   -9.2593    8.2108 LP  0  0  0  0  0  0  0  0  0  0  0  0  # atno 4299 bound_to 2456
    2.1612   -8.4462    7.8792 LP  0  0  0  0  0  0  0  0  0  0  0  0  # atno 4300 bound_to 2456
    2.8185   -8.4608    4.3746 LP  0  0  0  0  0  0  0  0  0  0  0  0  # atno 4301 bound_to 2510
    2.3404   -9.0624    5.8154 LP  0  0  0  0  0  0  0  0  0  0  0  0  # atno 4302 bound_to 2510
   -2.6074  -18.2106   14.0001 LP  0  0  0  0  0  0  0  0  0  0  0  0  # atno 4306 bound_to 3712
   -3.2884  -16.9109   14.7168 LP  0  0  0  0  0  0  0  0  0  0  0  0  # atno 4307 bound_to 3712
    2.6836  -19.9044    8.1391 LP  0  0  0  0  0  0  0  0  0  0  0  0  # atno 4314 bound_to 3832
    2.7416  -21.1379    9.2076 LP  0  0  0  0  0  0  0  0  0  0  0  0  # atno 4315 bound_to 3832
   -4.4169  -23.3221   10.2936 LP  0  0  0  0  0  0  0  0  0  0  0  0  # atno 4318 bound_to 3762
   -5.5022  -22.1569   10.6555 LP  0  0  0  0  0  0  0  0  0  0  0  0  # atno 4319 bound_to 3762
   -4.7901   -4.8413    7.6762 LP  0  0  0  0  0  0  0  0  0  0  0  0  # atno 4320 bound_to 2467
   -3.6736   -5.1346    8.8311 LP  0  0  0  0  0  0  0  0  0  0  0  0  # atno 4321 bound_to 2467

> <Gold.Score>
     Score     S(PLP)   S(hbond)     S(cho)   S(metal)  DE(clash)   DE(tors)     intcor
     39.53     -36.69       1.00       0.00       0.00       0.00       0.35       0.54

> <Gold.PLP.Fitness>
39.5348

> <Gold.PLP.PLP>
-36.6928

> <Gold.PLP.part.hbond>
-1.0000

> <Gold.PLP.part.metal>
0.0000

> <Gold.PLP.part.buried>
-3.6822

> <Gold.PLP.part.nonpolar>
-32.0883

> <Gold.PLP.part.repulsive>
0.3247

> <Gold.PLP.ligand.clash>
0.0000

> <Gold.PLP.ligand.torsion>
0.3476

> <Gold.PLP.Chemscore.Hbond>
1.0000

> <Gold.PLP.Chemscore.CHOScore>
0.0000

> <Gold.PLP.Chemscore.Metal>
0.0000

> <Gold.Chemscore.Hbonds>
donor molecule, donor type, donor heavy atom, donor atom, acceptor molecule, acceptor atom, score
      P1  H  2305  2313       L1    11  1.00

> <Gold.PLP.Chemscore.Internal.Correction>
0.5373

