#       Name:                EN300-26978906_i004
#       Creating user name   fsindt
#       Creation time:       Wed Mar  1 05:43:06 2023


#       File generated by GOLD software.
#

@<TRIPOS>MOLECULE
EN300-26978906_i004|acide_1|mol2|6892|dock14
    41    41     1
SMALL
USER_CHARGES


@<TRIPOS>ATOM
      1 C1           1.1001 -15.7332   6.7309 C.3            1 <1>                0.0000
      2 O2           0.3257 -14.5401   6.8677 O.3            1 <1>                0.0000
      3 C3          -0.4229 -14.4691   8.0829 C.3            1 <1>                0.0000
      4 C4           0.2445 -13.4753   9.0357 C.3            1 <1>                0.0000
      5 C5           1.7657 -13.6195   8.9558 C.3            1 <1>                0.0000
      6 C6          -0.1663 -12.0349   8.6638 C.3            1 <1>                0.0000
      7 C7          -1.3292 -11.7403   9.6480 C.3            1 <1>                0.0000
      8 C8          -0.8609 -12.4945  10.9174 C.3            1 <1>                0.0000
      9 N9          -0.2095 -13.7206  10.4123 N.am           1 <1>                0.0000
     10 C10         -0.0605 -14.8707  11.0989 C.2            1 <1>                0.0000
     11 O11          0.4938 -15.8200  10.5810 O.2            1 <1>                0.0000
     12 O12         -0.5259 -14.9680  12.3585 O.3            1 <1>                0.0000
     13 C13          0.0581 -15.9976  13.1994 C.3            1 <1>                0.0000
     14 C14         -0.3803 -15.7814  14.6492 C.3            1 <1>                0.0000
     15 C15         -0.4138 -17.3730  12.7237 C.3            1 <1>                0.0000
     16 C16          1.5837 -15.9232  13.1114 C.3            1 <1>                0.0000
     17 C17         -1.4515 -10.2617   9.9123 C.2            1 <1>                0.0000
     18 O18         -1.4039  -9.4709   8.9856 O.co2          1 <1>                0.0000
     19 O19         -1.5980  -9.8563  11.0527 O.co2          1 <1>               -1.0000
     20 H20          1.8134 -15.7995   7.5523 H              1 <1>                0.0000
     21 H21          0.4394 -16.5997   6.7526 H              1 <1>                0.0000
     22 H22          1.6383 -15.7103   5.7833 H              1 <1>                0.0000
     23 H23         -1.4383 -14.1380   7.8653 H              1 <1>                0.0000
     24 H24         -0.4539 -15.4542   8.5486 H              1 <1>                0.0000
     25 H25          2.0980 -13.4066   7.9398 H              1 <1>                0.0000
     26 H26          2.2338 -12.9176   9.6459 H              1 <1>                0.0000
     27 H27          2.0487 -14.6371   9.2250 H              1 <1>                0.0000
     28 H28          0.6608 -11.3439   8.8263 H              1 <1>                0.0000
     29 H29         -0.5132 -11.9871   7.6316 H              1 <1>                0.0000
     30 H30         -2.2689 -12.1481   9.2756 H              1 <1>                0.0000
     31 H31         -0.1465 -11.8897  11.4762 H              1 <1>                0.0000
     32 H32         -1.7155 -12.7493  11.5441 H              1 <1>                0.0000
     33 H33         -1.4671 -15.8343  14.7120 H              1 <1>                0.0000
     34 H34          0.0582 -16.5542  15.2805 H              1 <1>                0.0000
     35 H35         -0.0441 -14.8015  14.9882 H              1 <1>                0.0000
     36 H36         -0.1015 -17.5270  11.6908 H              1 <1>                0.0000
     37 H37          0.0247 -18.1459  13.3550 H              1 <1>                0.0000
     38 H38         -1.5007 -17.4259  12.7864 H              1 <1>                0.0000
     39 H39          1.9199 -14.9432  13.4504 H              1 <1>                0.0000
     40 H40          2.0222 -16.6961  13.7427 H              1 <1>                0.0000
     41 H41          1.8960 -16.0773  12.0785 H              1 <1>                0.0000
@<TRIPOS>BOND
    1    1    2 1     
    2    1   20 1     
    3    1   21 1     
    4    1   22 1     
    5    2    3 1     
    6    3    4 1     
    7    3   23 1     
    8    3   24 1     
    9    4    5 1     
   10    4    6 1     
   11    4    9 1     
   12    5   25 1     
   13    5   26 1     
   14    5   27 1     
   15    6    7 1     
   16    6   28 1     
   17    6   29 1     
   18    7    8 1     
   19    7   17 1     
   20    7   30 1     
   21    8    9 1     
   22    8   31 1     
   23    8   32 1     
   24    9   10 am    
   25   10   11 2     
   26   10   12 1     
   27   12   13 1     
   28   13   14 1     
   29   13   15 1     
   30   13   16 1     
   31   14   33 1     
   32   14   34 1     
   33   14   35 1     
   34   15   36 1     
   35   15   37 1     
   36   15   38 1     
   37   16   39 1     
   38   16   40 1     
   39   16   41 1     
   40   17   18 ar    
   41   17   19 ar    
@<TRIPOS>SUBSTRUCTURE
      1 ****           1
@<TRIPOS>COMMENT
> <Gold.Version>
2022.2.0

> <Gold.Id.Protein>
3pbl|protein|mol2

> <Gold.Protein.RotatedTorsions>
[ 1303 1298 1297 1294 ] final -147.36 input  179.99 | X-H torsion
[ 2461 2456 2455 2452 ] final -114.78 input   30.03 | X-H torsion
[ 2515 2510 2509 2506 ] final   49.14 input  -89.99 | X-H torsion
[ 3721 3712 3711 3710 ] final  -14.15 input -179.91 | X-H torsion
[ 3841 3832 3831 3830 ] final  147.67 input -179.91 | X-H torsion
[ 3767 3762 3761 3758 ] final  148.99 input  -89.99 | X-H torsion
[ 2472 2467 2466 2463 ] final  130.66 input  -89.97 | X-H torsion

> <Gold.Protein.ActiveResidues>
 VAL82   VAL86   LEU89   PHE106  VAL107  ASP110  VAL111  MET112  CYS114  THR115 
 CYS181  SER182  ILE183  PHE188  VAL189  ILE190  SER192  SER193  SER196  TRP342 
 PHE345  PHE346  HIS349  VAL350  TYR365  THR369  GLY372  TYR373 

> <Gold.Protein.RotatedAtoms>
    4.5803   -8.5508    4.3643 H   0  0  0  0  0  0  0  0  0  0  0  0  # atno 1303 bound_to 1298
    0.5216   -9.1373    7.9972 H   0  0  0  0  0  0  0  0  0  0  0  0  # atno 2461 bound_to 2456
   -5.4781   -5.1371    8.2847 H   0  0  0  0  0  0  0  0  0  0  0  0  # atno 2472 bound_to 2467
    2.2094   -7.4194    5.2866 H   0  0  0  0  0  0  0  0  0  0  0  0  # atno 2515 bound_to 2510
   -2.5291  -17.8548   14.4251 H   0  0  0  0  0  0  0  0  0  0  0  0  # atno 3721 bound_to 3712
   -3.9165  -22.9089   11.2818 H   0  0  0  0  0  0  0  0  0  0  0  0  # atno 3767 bound_to 3762
    3.1279  -20.4333    8.6492 H   0  0  0  0  0  0  0  0  0  0  0  0  # atno 3841 bound_to 3832
    4.4485  -10.0971    4.8721 LP  0  0  0  0  0  0  0  0  0  0  0  0  # atno 4297 bound_to 1298
    3.3332   -9.4738    3.8552 LP  0  0  0  0  0  0  0  0  0  0  0  0  # atno 4298 bound_to 1298
    2.0929   -8.7079    8.1167 LP  0  0  0  0  0  0  0  0  0  0  0  0  # atno 4299 bound_to 2456
    1.1231   -7.9632    7.0343 LP  0  0  0  0  0  0  0  0  0  0  0  0  # atno 4300 bound_to 2456
    2.8351   -8.6684    4.4414 LP  0  0  0  0  0  0  0  0  0  0  0  0  # atno 4301 bound_to 2510
    2.2523   -8.9118    5.9473 LP  0  0  0  0  0  0  0  0  0  0  0  0  # atno 4302 bound_to 2510
   -3.5103  -16.5965   14.2469 LP  0  0  0  0  0  0  0  0  0  0  0  0  # atno 4306 bound_to 3712
   -3.0975  -17.5162   12.9622 LP  0  0  0  0  0  0  0  0  0  0  0  0  # atno 4307 bound_to 3712
    1.8946  -20.9317    9.5474 LP  0  0  0  0  0  0  0  0  0  0  0  0  # atno 4314 bound_to 3832
    1.7214  -19.6701    8.5251 LP  0  0  0  0  0  0  0  0  0  0  0  0  # atno 4315 bound_to 3832
   -4.9963  -23.0472   10.0645 LP  0  0  0  0  0  0  0  0  0  0  0  0  # atno 4318 bound_to 3762
   -5.2142  -21.9191   11.2250 LP  0  0  0  0  0  0  0  0  0  0  0  0  # atno 4319 bound_to 3762
   -3.9092   -4.8404    7.9426 LP  0  0  0  0  0  0  0  0  0  0  0  0  # atno 4320 bound_to 2467
   -4.3298   -5.4161    9.4117 LP  0  0  0  0  0  0  0  0  0  0  0  0  # atno 4321 bound_to 2467

> <Gold.Score>
     Score     S(PLP)   S(hbond)     S(cho)   S(metal)  DE(clash)   DE(tors)     intcor
     42.08     -42.93       0.55       0.00       0.00       0.00       1.51       0.54

> <Gold.PLP.Fitness>
42.0827

> <Gold.PLP.PLP>
-42.9277

> <Gold.PLP.part.hbond>
-1.8148

> <Gold.PLP.part.metal>
0.0000

> <Gold.PLP.part.buried>
-2.3657

> <Gold.PLP.part.nonpolar>
-42.4904

> <Gold.PLP.part.repulsive>
1.7602

> <Gold.PLP.ligand.clash>
0.0000

> <Gold.PLP.ligand.torsion>
1.5148

> <Gold.PLP.Chemscore.Hbond>
0.5491

> <Gold.PLP.Chemscore.CHOScore>
0.0000

> <Gold.PLP.Chemscore.Metal>
0.0000

> <Gold.Chemscore.Hbonds>
donor molecule, donor type, donor heavy atom, donor atom, acceptor molecule, acceptor atom, score
      P1  H  2456  2461       L1    18  0.55

> <Gold.PLP.Chemscore.Internal.Correction>
0.5373

