#       Name:                EN300-26978906_i004
#       Creating user name   fsindt
#       Creation time:       Wed Mar  1 05:43:07 2023


#       File generated by GOLD software.
#

@<TRIPOS>MOLECULE
EN300-26978906_i004|acide_1|mol2|6892|dock15
    41    41     1
SMALL
USER_CHARGES


@<TRIPOS>ATOM
      1 C1          -0.4004 -19.0452  10.9306 C.3            1 <1>                0.0000
      2 O2           0.5629 -20.0865  11.1028 O.3            1 <1>                0.0000
      3 C3           0.2499 -20.9993  12.1567 C.3            1 <1>                0.0000
      4 C4           0.8861 -20.5114  13.4599 C.3            1 <1>                0.0000
      5 C5           1.9332 -21.5200  13.9370 C.3            1 <1>                0.0000
      6 C6           1.5468 -19.1345  13.2380 C.3            1 <1>                0.0000
      7 C7           0.4647 -18.1444  13.7443 C.3            1 <1>                0.0000
      8 C8          -0.1465 -18.9315  14.9302 C.3            1 <1>                0.0000
      9 N9          -0.1499 -20.3415  14.4890 N.am           1 <1>                0.0000
     10 C10         -0.9684 -21.3072  14.9513 C.2            1 <1>                0.0000
     11 O11         -1.7925 -21.0475  15.8057 O.2            1 <1>                0.0000
     12 O12         -0.8730 -22.5596  14.4666 O.3            1 <1>                0.0000
     13 C13         -1.2709 -23.6407  15.3505 C.3            1 <1>                0.0000
     14 C14         -0.7003 -23.3929  16.7482 C.3            1 <1>                0.0000
     15 C15         -2.7978 -23.7016  15.4264 C.3            1 <1>                0.0000
     16 C16         -0.7340 -24.9667  14.8081 C.3            1 <1>                0.0000
     17 C17          1.0893 -16.8564  14.2154 C.2            1 <1>                0.0000
     18 O18          0.3905 -15.9792  14.6937 O.co2          1 <1>                0.0000
     19 O19          2.2934 -16.6914  14.1183 O.co2          1 <1>               -1.0000
     20 H20         -1.3713 -19.4831  10.6990 H              1 <1>                0.0000
     21 H21         -0.4743 -18.4629  11.8490 H              1 <1>                0.0000
     22 H22         -0.0905 -18.3953  10.1123 H              1 <1>                0.0000
     23 H23         -0.8317 -21.0557  12.2793 H              1 <1>                0.0000
     24 H24          0.6395 -21.9869  11.9096 H              1 <1>                0.0000
     25 H25          2.7135 -21.6181  13.1823 H              1 <1>                0.0000
     26 H26          2.3731 -21.1722  14.8716 H              1 <1>                0.0000
     27 H27          1.4585 -22.4882  14.0968 H              1 <1>                0.0000
     28 H28          2.4584 -19.0445  13.8286 H              1 <1>                0.0000
     29 H29          1.7536 -18.9719  12.1802 H              1 <1>                0.0000
     30 H30         -0.2830 -17.9554  12.9740 H              1 <1>                0.0000
     31 H31          0.4711 -18.8156  15.8210 H              1 <1>                0.0000
     32 H32         -1.1638 -18.5926  15.1263 H              1 <1>                0.0000
     33 H33         -1.0828 -22.4482  17.1347 H              1 <1>                0.0000
     34 H34         -0.9989 -24.2044  17.4117 H              1 <1>                0.0000
     35 H35          0.3876 -23.3495  16.6942 H              1 <1>                0.0000
     36 H36         -3.2044 -23.8781  14.4306 H              1 <1>                0.0000
     37 H37         -3.0965 -24.5132  16.0900 H              1 <1>                0.0000
     38 H38         -3.1803 -22.7569  15.8128 H              1 <1>                0.0000
     39 H39          0.3539 -24.9233  14.7540 H              1 <1>                0.0000
     40 H40         -1.0326 -25.7783  15.4716 H              1 <1>                0.0000
     41 H41         -1.1405 -25.1433  13.8123 H              1 <1>                0.0000
@<TRIPOS>BOND
    1    1    2 1     
    2    1   20 1     
    3    1   21 1     
    4    1   22 1     
    5    2    3 1     
    6    3    4 1     
    7    3   23 1     
    8    3   24 1     
    9    4    5 1     
   10    4    6 1     
   11    4    9 1     
   12    5   25 1     
   13    5   26 1     
   14    5   27 1     
   15    6    7 1     
   16    6   28 1     
   17    6   29 1     
   18    7    8 1     
   19    7   17 1     
   20    7   30 1     
   21    8    9 1     
   22    8   31 1     
   23    8   32 1     
   24    9   10 am    
   25   10   11 2     
   26   10   12 1     
   27   12   13 1     
   28   13   14 1     
   29   13   15 1     
   30   13   16 1     
   31   14   33 1     
   32   14   34 1     
   33   14   35 1     
   34   15   36 1     
   35   15   37 1     
   36   15   38 1     
   37   16   39 1     
   38   16   40 1     
   39   16   41 1     
   40   17   18 ar    
   41   17   19 ar    
@<TRIPOS>SUBSTRUCTURE
      1 ****           1
@<TRIPOS>COMMENT
> <Gold.Version>
2022.2.0

> <Gold.Id.Protein>
3pbl|protein|mol2

> <Gold.Protein.RotatedTorsions>
[ 1303 1298 1297 1294 ] final   58.39 input  179.99 | X-H torsion
[ 2461 2456 2455 2452 ] final  174.80 input   30.03 | X-H torsion
[ 2515 2510 2509 2506 ] final  121.18 input  -89.99 | X-H torsion
[ 3721 3712 3711 3710 ] final  -57.19 input -179.91 | X-H torsion
[ 3841 3832 3831 3830 ] final  -19.32 input -179.91 | X-H torsion
[ 3767 3762 3761 3758 ] final  -72.98 input  -89.99 | X-H torsion
[ 2472 2467 2466 2463 ] final  101.23 input  -89.97 | X-H torsion

> <Gold.Protein.ActiveResidues>
 VAL82   VAL86   LEU89   PHE106  VAL107  ASP110  VAL111  MET112  CYS114  THR115 
 CYS181  SER182  ILE183  PHE188  VAL189  ILE190  SER192  SER193  SER196  TRP342 
 PHE345  PHE346  HIS349  VAL350  TYR365  THR369  GLY372  TYR373 

> <Gold.Protein.RotatedAtoms>
    3.9861  -10.2712    4.6190 H   0  0  0  0  0  0  0  0  0  0  0  0  # atno 1303 bound_to 1298
    1.5309   -9.1870    8.3993 H   0  0  0  0  0  0  0  0  0  0  0  0  # atno 2461 bound_to 2456
   -5.2419   -4.9730    7.9017 H   0  0  0  0  0  0  0  0  0  0  0  0  # atno 2472 bound_to 2467
    2.0436   -8.1850    6.0708 H   0  0  0  0  0  0  0  0  0  0  0  0  # atno 2515 bound_to 2510
   -2.7794  -17.3678   14.7474 H   0  0  0  0  0  0  0  0  0  0  0  0  # atno 3721 bound_to 3712
   -5.3821  -21.9778   10.9889 H   0  0  0  0  0  0  0  0  0  0  0  0  # atno 3767 bound_to 3762
    1.6073  -20.2583    9.4341 H   0  0  0  0  0  0  0  0  0  0  0  0  # atno 3841 bound_to 3832
    3.5128   -8.9538    3.7782 LP  0  0  0  0  0  0  0  0  0  0  0  0  # atno 4297 bound_to 1298
    4.8633   -8.8960    4.6943 LP  0  0  0  0  0  0  0  0  0  0  0  0  # atno 4298 bound_to 1298
    1.8568   -7.9994    7.3266 LP  0  0  0  0  0  0  0  0  0  0  0  0  # atno 4299 bound_to 2456
    0.3502   -8.6219    7.4225 LP  0  0  0  0  0  0  0  0  0  0  0  0  # atno 4300 bound_to 2456
    2.5328   -7.6166    4.6205 LP  0  0  0  0  0  0  0  0  0  0  0  0  # atno 4301 bound_to 2510
    2.7205   -9.1976    4.9836 LP  0  0  0  0  0  0  0  0  0  0  0  0  # atno 4302 bound_to 2510
   -3.5517  -16.6329   13.5467 LP  0  0  0  0  0  0  0  0  0  0  0  0  # atno 4306 bound_to 3712
   -2.7671  -18.0420   13.2903 LP  0  0  0  0  0  0  0  0  0  0  0  0  # atno 4307 bound_to 3712
    2.4362  -19.7524    8.1562 LP  0  0  0  0  0  0  0  0  0  0  0  0  # atno 4314 bound_to 3832
    2.9365  -21.0516    9.0097 LP  0  0  0  0  0  0  0  0  0  0  0  0  # atno 4315 bound_to 3832
   -3.9950  -22.6937   11.4686 LP  0  0  0  0  0  0  0  0  0  0  0  0  # atno 4318 bound_to 3762
   -4.7505  -23.2033   10.1136 LP  0  0  0  0  0  0  0  0  0  0  0  0  # atno 4319 bound_to 3762
   -3.6690   -4.9572    8.3401 LP  0  0  0  0  0  0  0  0  0  0  0  0  # atno 4320 bound_to 2467
   -4.8062   -5.4633    9.3972 LP  0  0  0  0  0  0  0  0  0  0  0  0  # atno 4321 bound_to 2467

> <Gold.Score>
     Score     S(PLP)   S(hbond)     S(cho)   S(metal)  DE(clash)   DE(tors)     intcor
     40.04     -37.31       2.00       0.00       0.00       0.00       1.90       0.54

> <Gold.PLP.Fitness>
40.0447

> <Gold.PLP.PLP>
-37.3054

> <Gold.PLP.part.hbond>
-2.0000

> <Gold.PLP.part.metal>
0.0000

> <Gold.PLP.part.buried>
-6.6383

> <Gold.PLP.part.nonpolar>
-28.7642

> <Gold.PLP.part.repulsive>
0.1806

> <Gold.PLP.ligand.clash>
0.0000

> <Gold.PLP.ligand.torsion>
1.8990

> <Gold.PLP.Chemscore.Hbond>
2.0000

> <Gold.PLP.Chemscore.CHOScore>
0.0000

> <Gold.PLP.Chemscore.Metal>
0.0000

> <Gold.Chemscore.Hbonds>
donor molecule, donor type, donor heavy atom, donor atom, acceptor molecule, acceptor atom, score
      P1  H  2305  2313       L1    18  1.00
      P1  H  3832  3841       L1     2  1.00

> <Gold.PLP.Chemscore.Internal.Correction>
0.5373

