#       Name:                EN300-26978906_i004
#       Creating user name   fsindt
#       Creation time:       Wed Mar  1 05:43:05 2023


#       File generated by GOLD software.
#

@<TRIPOS>MOLECULE
EN300-26978906_i004|acide_1|mol2|6892|dock13
    41    41     1
SMALL
USER_CHARGES


@<TRIPOS>ATOM
      1 C1           1.5753 -22.5431  14.0054 C.3            1 <1>                0.0000
      2 O2           1.6377 -21.1973  13.5290 O.3            1 <1>                0.0000
      3 C3           1.3687 -21.0620  12.1321 C.3            1 <1>                0.0000
      4 C4          -0.1386 -20.9143  11.9149 C.3            1 <1>                0.0000
      5 C5          -0.4041 -20.1007  10.6466 C.3            1 <1>                0.0000
      6 C6          -0.7900 -22.3079  11.7903 C.3            1 <1>                0.0000
      7 C7          -1.3237 -22.5712  13.2232 C.3            1 <1>                0.0000
      8 C8          -1.7598 -21.1500  13.6587 C.3            1 <1>                0.0000
      9 N9          -0.7477 -20.2462  13.0742 N.am           1 <1>                0.0000
     10 C10         -0.4347 -19.0175  13.5308 C.2            1 <1>                0.0000
     11 O11         -1.0058 -18.5675  14.5044 O.2            1 <1>                0.0000
     12 O12          0.5107 -18.2885  12.9082 O.3            1 <1>                0.0000
     13 C13          1.2468 -17.3341  13.7179 C.3            1 <1>                0.0000
     14 C14          0.3263 -16.1739  14.1017 C.3            1 <1>                0.0000
     15 C15          1.7531 -18.0244  14.9860 C.3            1 <1>                0.0000
     16 C16          2.4367 -16.7984  12.9191 C.3            1 <1>                0.0000
     17 C17         -2.5000 -23.5128  13.1968 C.2            1 <1>                0.0000
     18 O18         -2.8462 -24.0265  12.1467 O.co2          1 <1>                0.0000
     19 O19         -3.1055 -23.7611  14.2255 O.co2          1 <1>               -1.0000
     20 H20          0.5774 -22.9447  13.8296 H              1 <1>                0.0000
     21 H21          2.3097 -23.1502  13.4763 H              1 <1>                0.0000
     22 H22          1.7910 -22.5608  15.0736 H              1 <1>                0.0000
     23 H23          1.8794 -20.1792  11.7476 H              1 <1>                0.0000
     24 H24          1.7267 -21.9469  11.6058 H              1 <1>                0.0000
     25 H25          0.0239 -20.6171   9.7874 H              1 <1>                0.0000
     26 H26         -1.4790 -19.9890  10.5050 H              1 <1>                0.0000
     27 H27          0.0539 -19.1164  10.7440 H              1 <1>                0.0000
     28 H28         -1.6089 -22.2879  11.0714 H              1 <1>                0.0000
     29 H29         -0.0485 -23.0566  11.5114 H              1 <1>                0.0000
     30 H30         -0.5340 -22.9531  13.8703 H              1 <1>                0.0000
     31 H31         -2.7481 -20.9180  13.2616 H              1 <1>                0.0000
     32 H32         -1.7583 -21.0692  14.7457 H              1 <1>                0.0000
     33 H33         -0.5214 -16.5554  14.6707 H              1 <1>                0.0000
     34 H34          0.8788 -15.4573  14.7094 H              1 <1>                0.0000
     35 H35         -0.0344 -15.6820  13.1982 H              1 <1>                0.0000
     36 H36          2.4089 -18.8510  14.7125 H              1 <1>                0.0000
     37 H37          2.3057 -17.3078  15.5937 H              1 <1>                0.0000
     38 H38          0.9054 -18.4060  15.5550 H              1 <1>                0.0000
     39 H39          2.0759 -16.3065  12.0156 H              1 <1>                0.0000
     40 H40          2.9893 -16.0818  13.5268 H              1 <1>                0.0000
     41 H41          3.0925 -17.6249  12.6456 H              1 <1>                0.0000
@<TRIPOS>BOND
    1    1    2 1     
    2    1   20 1     
    3    1   21 1     
    4    1   22 1     
    5    2    3 1     
    6    3    4 1     
    7    3   23 1     
    8    3   24 1     
    9    4    5 1     
   10    4    6 1     
   11    4    9 1     
   12    5   25 1     
   13    5   26 1     
   14    5   27 1     
   15    6    7 1     
   16    6   28 1     
   17    6   29 1     
   18    7    8 1     
   19    7   17 1     
   20    7   30 1     
   21    8    9 1     
   22    8   31 1     
   23    8   32 1     
   24    9   10 am    
   25   10   11 2     
   26   10   12 1     
   27   12   13 1     
   28   13   14 1     
   29   13   15 1     
   30   13   16 1     
   31   14   33 1     
   32   14   34 1     
   33   14   35 1     
   34   15   36 1     
   35   15   37 1     
   36   15   38 1     
   37   16   39 1     
   38   16   40 1     
   39   16   41 1     
   40   17   18 ar    
   41   17   19 ar    
@<TRIPOS>SUBSTRUCTURE
      1 ****           1
@<TRIPOS>COMMENT
> <Gold.Version>
2022.2.0

> <Gold.Id.Protein>
3pbl|protein|mol2

> <Gold.Protein.RotatedTorsions>
[ 1303 1298 1297 1294 ] final   59.43 input  179.99 | X-H torsion
[ 2461 2456 2455 2452 ] final   24.17 input   30.03 | X-H torsion
[ 2515 2510 2509 2506 ] final -121.17 input  -89.99 | X-H torsion
[ 3721 3712 3711 3710 ] final   -9.95 input -179.91 | X-H torsion
[ 3841 3832 3831 3830 ] final  177.75 input -179.91 | X-H torsion
[ 3767 3762 3761 3758 ] final  160.45 input  -89.99 | X-H torsion
[ 2472 2467 2466 2463 ] final  -62.12 input  -89.97 | X-H torsion

> <Gold.Protein.ActiveResidues>
 VAL82   VAL86   LEU89   PHE106  VAL107  ASP110  VAL111  MET112  CYS114  THR115 
 CYS181  SER182  ILE183  PHE188  VAL189  ILE190  SER192  SER193  SER196  TRP342 
 PHE345  PHE346  HIS349  VAL350  TYR365  THR369  GLY372  TYR373 

> <Gold.Protein.RotatedAtoms>
    4.0003  -10.2704    4.6285 H   0  0  0  0  0  0  0  0  0  0  0  0  # atno 1303 bound_to 1298
    1.4243   -7.9172    7.0935 H   0  0  0  0  0  0  0  0  0  0  0  0  # atno 2461 bound_to 2456
   -3.7426   -5.1999    8.9888 H   0  0  0  0  0  0  0  0  0  0  0  0  # atno 2472 bound_to 2467
    2.7087   -9.2100    5.0183 H   0  0  0  0  0  0  0  0  0  0  0  0  # atno 2515 bound_to 2510
   -2.5140  -17.8890   14.3737 H   0  0  0  0  0  0  0  0  0  0  0  0  # atno 3721 bound_to 3712
   -3.9573  -22.7738   11.4064 H   0  0  0  0  0  0  0  0  0  0  0  0  # atno 3767 bound_to 3762
    2.9768  -20.0759    8.4228 H   0  0  0  0  0  0  0  0  0  0  0  0  # atno 3841 bound_to 3832
    3.5037   -8.9683    3.7775 LP  0  0  0  0  0  0  0  0  0  0  0  0  # atno 4297 bound_to 1298
    4.8583   -8.8823    4.6854 LP  0  0  0  0  0  0  0  0  0  0  0  0  # atno 4298 bound_to 1298
    0.3793   -8.9686    7.7790 LP  0  0  0  0  0  0  0  0  0  0  0  0  # atno 4299 bound_to 2456
    1.9342   -8.9222    8.2755 LP  0  0  0  0  0  0  0  0  0  0  0  0  # atno 4300 bound_to 2456
    2.0392   -8.1475    6.0618 LP  0  0  0  0  0  0  0  0  0  0  0  0  # atno 4301 bound_to 2510
    2.5487   -7.6412    4.5952 LP  0  0  0  0  0  0  0  0  0  0  0  0  # atno 4302 bound_to 2510
   -3.4925  -16.6175   14.3115 LP  0  0  0  0  0  0  0  0  0  0  0  0  # atno 4306 bound_to 3712
   -3.1327  -17.4556   12.9569 LP  0  0  0  0  0  0  0  0  0  0  0  0  # atno 4307 bound_to 3712
    2.3394  -21.1311    9.4506 LP  0  0  0  0  0  0  0  0  0  0  0  0  # atno 4314 bound_to 3832
    1.4513  -19.8835    8.8835 LP  0  0  0  0  0  0  0  0  0  0  0  0  # atno 4315 bound_to 3832
   -4.8418  -23.1523   10.0869 LP  0  0  0  0  0  0  0  0  0  0  0  0  # atno 4318 bound_to 3762
   -5.3279  -21.9490   11.0780 LP  0  0  0  0  0  0  0  0  0  0  0  0  # atno 4319 bound_to 3762
   -5.3657   -5.3786    8.9915 LP  0  0  0  0  0  0  0  0  0  0  0  0  # atno 4320 bound_to 2467
   -4.6085   -4.8151    7.6589 LP  0  0  0  0  0  0  0  0  0  0  0  0  # atno 4321 bound_to 2467

> <Gold.Score>
     Score     S(PLP)   S(hbond)     S(cho)   S(metal)  DE(clash)   DE(tors)     intcor
     48.27     -44.06       2.00       0.00       0.00       0.00       1.16       0.54

> <Gold.PLP.Fitness>
48.2735

> <Gold.PLP.PLP>
-44.0640

> <Gold.PLP.part.hbond>
-2.3444

> <Gold.PLP.part.metal>
0.0000

> <Gold.PLP.part.buried>
-4.9702

> <Gold.PLP.part.nonpolar>
-37.9971

> <Gold.PLP.part.repulsive>
0.2520

> <Gold.PLP.ligand.clash>
0.0000

> <Gold.PLP.ligand.torsion>
1.1639

> <Gold.PLP.Chemscore.Hbond>
2.0000

> <Gold.PLP.Chemscore.CHOScore>
0.0000

> <Gold.PLP.Chemscore.Metal>
0.0000

> <Gold.Chemscore.Hbonds>
donor molecule, donor type, donor heavy atom, donor atom, acceptor molecule, acceptor atom, score
      P1  H  3712  3721       L1    11  1.00
      P1  H  3762  3767       L1    18  1.00

> <Gold.PLP.Chemscore.Internal.Correction>
0.5373

