#       Name:                EN300-26978906_i004
#       Creating user name   fsindt
#       Creation time:       Wed Mar  1 05:43:02 2023


#       File generated by GOLD software.
#

@<TRIPOS>MOLECULE
EN300-26978906_i004|acide_1|mol2|6892|dock11
    41    41     1
SMALL
USER_CHARGES


@<TRIPOS>ATOM
      1 C1          -1.4667 -23.3271  12.2089 C.3            1 <1>                0.0000
      2 O2          -0.6716 -22.6731  13.2000 O.3            1 <1>                0.0000
      3 C3          -0.4214 -21.2930  12.9267 C.3            1 <1>                0.0000
      4 C4           0.6971 -20.7869  13.8398 C.3            1 <1>                0.0000
      5 C5           1.7095 -21.9061  14.0916 C.3            1 <1>                0.0000
      6 C6           1.4018 -19.5791  13.1866 C.3            1 <1>                0.0000
      7 C7           0.7084 -18.3659  13.8612 C.3            1 <1>                0.0000
      8 C8           0.4708 -18.9013  15.2952 C.3            1 <1>                0.0000
      9 N9           0.1311 -20.3281  15.1167 N.am           1 <1>                0.0000
     10 C10         -0.5811 -21.0798  15.9792 C.2            1 <1>                0.0000
     11 O11         -1.0029 -20.5891  17.0078 O.2            1 <1>                0.0000
     12 O12         -0.8253 -22.3744  15.7013 O.3            1 <1>                0.0000
     13 C13         -1.3788 -23.1852  16.7711 C.3            1 <1>                0.0000
     14 C14         -2.7755 -22.6732  17.1288 C.3            1 <1>                0.0000
     15 C15         -1.4718 -24.6416  16.3113 C.3            1 <1>                0.0000
     16 C16         -0.4723 -23.0954  18.0003 C.3            1 <1>                0.0000
     17 C17          1.6178 -17.1643  13.8769 C.2            1 <1>                0.0000
     18 O18          1.2491 -16.1277  14.4022 O.co2          1 <1>                0.0000
     19 O19          2.7222 -17.2288  13.3644 O.co2          1 <1>               -1.0000
     20 H20         -2.4354 -22.8328  12.1361 H              1 <1>                0.0000
     21 H21         -0.9598 -23.2769  11.2453 H              1 <1>                0.0000
     22 H22         -1.6113 -24.3704  12.4895 H              1 <1>                0.0000
     23 H23         -0.1206 -21.1775  11.8854 H              1 <1>                0.0000
     24 H24         -1.3282 -20.7163  13.1090 H              1 <1>                0.0000
     25 H25          2.1471 -22.2202  13.1439 H              1 <1>                0.0000
     26 H26          2.4963 -21.5424  14.7524 H              1 <1>                0.0000
     27 H27          1.2061 -22.7531  14.5578 H              1 <1>                0.0000
     28 H28          2.4683 -19.5874  13.4108 H              1 <1>                0.0000
     29 H29          1.2328 -19.5701  12.1098 H              1 <1>                0.0000
     30 H30         -0.2361 -18.1328  13.3696 H              1 <1>                0.0000
     31 H31          1.3768 -18.8004  15.8928 H              1 <1>                0.0000
     32 H32         -0.3564 -18.3702  15.7661 H              1 <1>                0.0000
     33 H33         -3.4213 -22.7372  16.2531 H              1 <1>                0.0000
     34 H34         -3.1909 -23.2818  17.9319 H              1 <1>                0.0000
     35 H35         -2.7093 -21.6356  17.4564 H              1 <1>                0.0000
     36 H36         -0.4768 -25.0063  16.0564 H              1 <1>                0.0000
     37 H37         -1.8873 -25.2502  17.1145 H              1 <1>                0.0000
     38 H38         -2.1176 -24.7055  15.4356 H              1 <1>                0.0000
     39 H39         -0.4061 -22.0578  18.3279 H              1 <1>                0.0000
     40 H40         -0.8878 -23.7040  18.8035 H              1 <1>                0.0000
     41 H41          0.5227 -23.4602  17.7455 H              1 <1>                0.0000
@<TRIPOS>BOND
    1    1    2 1     
    2    1   20 1     
    3    1   21 1     
    4    1   22 1     
    5    2    3 1     
    6    3    4 1     
    7    3   23 1     
    8    3   24 1     
    9    4    5 1     
   10    4    6 1     
   11    4    9 1     
   12    5   25 1     
   13    5   26 1     
   14    5   27 1     
   15    6    7 1     
   16    6   28 1     
   17    6   29 1     
   18    7    8 1     
   19    7   17 1     
   20    7   30 1     
   21    8    9 1     
   22    8   31 1     
   23    8   32 1     
   24    9   10 am    
   25   10   11 2     
   26   10   12 1     
   27   12   13 1     
   28   13   14 1     
   29   13   15 1     
   30   13   16 1     
   31   14   33 1     
   32   14   34 1     
   33   14   35 1     
   34   15   36 1     
   35   15   37 1     
   36   15   38 1     
   37   16   39 1     
   38   16   40 1     
   39   16   41 1     
   40   17   18 ar    
   41   17   19 ar    
@<TRIPOS>SUBSTRUCTURE
      1 ****           1
@<TRIPOS>COMMENT
> <Gold.Version>
2022.2.0

> <Gold.Id.Protein>
3pbl|protein|mol2

> <Gold.Protein.RotatedTorsions>
[ 1303 1298 1297 1294 ] final  110.92 input  179.99 | X-H torsion
[ 2461 2456 2455 2452 ] final -110.75 input   30.03 | X-H torsion
[ 2515 2510 2509 2506 ] final  168.73 input  -89.99 | X-H torsion
[ 3721 3712 3711 3710 ] final  -36.37 input -179.91 | X-H torsion
[ 3841 3832 3831 3830 ] final  -18.48 input -179.91 | X-H torsion
[ 3767 3762 3761 3758 ] final  119.76 input  -89.99 | X-H torsion
[ 2472 2467 2466 2463 ] final -178.82 input  -89.97 | X-H torsion

> <Gold.Protein.ActiveResidues>
 VAL82   VAL86   LEU89   PHE106  VAL107  ASP110  VAL111  MET112  CYS114  THR115 
 CYS181  SER182  ILE183  PHE188  VAL189  ILE190  SER192  SER193  SER196  TRP342 
 PHE345  PHE346  HIS349  VAL350  TYR365  THR369  GLY372  TYR373 

> <Gold.Protein.RotatedAtoms>
    4.6576   -9.8931    4.9389 H   0  0  0  0  0  0  0  0  0  0  0  0  # atno 1303 bound_to 1298
    0.4840   -9.1057    7.9526 H   0  0  0  0  0  0  0  0  0  0  0  0  # atno 2461 bound_to 2456
   -5.3356   -5.3916    9.0346 H   0  0  0  0  0  0  0  0  0  0  0  0  # atno 2472 bound_to 2467
    2.2499   -8.9063    5.9506 H   0  0  0  0  0  0  0  0  0  0  0  0  # atno 2515 bound_to 2510
   -2.6397  -17.6278   14.6433 H   0  0  0  0  0  0  0  0  0  0  0  0  # atno 3721 bound_to 3712
   -3.9560  -23.1908   10.9004 H   0  0  0  0  0  0  0  0  0  0  0  0  # atno 3767 bound_to 3762
    1.6113  -20.2684    9.4407 H   0  0  0  0  0  0  0  0  0  0  0  0  # atno 3841 bound_to 3832
    3.3490   -9.7486    3.9728 LP  0  0  0  0  0  0  0  0  0  0  0  0  # atno 4297 bound_to 1298
    4.3554   -8.4794    4.1797 LP  0  0  0  0  0  0  0  0  0  0  0  0  # atno 4298 bound_to 1298
    2.0663   -8.7553    8.1548 LP  0  0  0  0  0  0  0  0  0  0  0  0  # atno 4299 bound_to 2456
    1.1872   -7.9474    7.0408 LP  0  0  0  0  0  0  0  0  0  0  0  0  # atno 4300 bound_to 2456
    2.2116   -7.4181    5.2802 LP  0  0  0  0  0  0  0  0  0  0  0  0  # atno 4301 bound_to 2510
    2.8353   -8.6745    4.4441 LP  0  0  0  0  0  0  0  0  0  0  0  0  # atno 4302 bound_to 2510
   -3.5649  -16.5575   13.8841 LP  0  0  0  0  0  0  0  0  0  0  0  0  # atno 4306 bound_to 3712
   -2.9152  -17.8172   13.0730 LP  0  0  0  0  0  0  0  0  0  0  0  0  # atno 4307 bound_to 3712
    2.4237  -19.7464    8.1586 LP  0  0  0  0  0  0  0  0  0  0  0  0  # atno 4314 bound_to 3832
    2.9444  -21.0458    8.9996 LP  0  0  0  0  0  0  0  0  0  0  0  0  # atno 4315 bound_to 3832
   -5.3255  -22.7142   10.1493 LP  0  0  0  0  0  0  0  0  0  0  0  0  # atno 4318 bound_to 3762
   -4.8455  -21.9702   11.5214 LP  0  0  0  0  0  0  0  0  0  0  0  0  # atno 4319 bound_to 3762
   -4.6624   -4.8216    7.6605 LP  0  0  0  0  0  0  0  0  0  0  0  0  # atno 4320 bound_to 2467
   -3.7190   -5.1804    8.9441 LP  0  0  0  0  0  0  0  0  0  0  0  0  # atno 4321 bound_to 2467

> <Gold.Score>
     Score     S(PLP)   S(hbond)     S(cho)   S(metal)  DE(clash)   DE(tors)     intcor
     39.55     -37.81       1.00       0.00       0.00       0.51       0.66       0.58

> <Gold.PLP.Fitness>
39.5548

> <Gold.PLP.PLP>
-37.8112

> <Gold.PLP.part.hbond>
-1.0000

> <Gold.PLP.part.metal>
0.0000

> <Gold.PLP.part.buried>
-6.5262

> <Gold.PLP.part.nonpolar>
-30.3223

> <Gold.PLP.part.repulsive>
0.1161

> <Gold.PLP.ligand.clash>
0.5115

> <Gold.PLP.ligand.torsion>
0.6613

> <Gold.PLP.Chemscore.Hbond>
1.0000

> <Gold.PLP.Chemscore.CHOScore>
0.0000

> <Gold.PLP.Chemscore.Metal>
0.0000

> <Gold.Chemscore.Hbonds>
donor molecule, donor type, donor heavy atom, donor atom, acceptor molecule, acceptor atom, score
      P1  H  2305  2313       L1    18  1.00

> <Gold.PLP.Chemscore.Internal.Correction>
0.5776

