#       Name:                EN300-26978906_i004
#       Creating user name   fsindt
#       Creation time:       Wed Mar  1 05:43:00 2023


#       File generated by GOLD software.
#

@<TRIPOS>MOLECULE
EN300-26978906_i004|acide_1|mol2|6892|dock9
    41    41     1
SMALL
USER_CHARGES


@<TRIPOS>ATOM
      1 C1          -1.0337 -18.8841   8.4643 C.3            1 <1>                0.0000
      2 O2          -0.1893 -18.9015   9.6169 O.3            1 <1>                0.0000
      3 C3          -0.7532 -19.5813  10.7403 C.3            1 <1>                0.0000
      4 C4           0.2794 -19.6473  11.8674 C.3            1 <1>                0.0000
      5 C5           1.4617 -20.5192  11.4393 C.3            1 <1>                0.0000
      6 C6           0.7729 -18.2260  12.2110 C.3            1 <1>                0.0000
      7 C7          -0.0991 -17.8420  13.4356 C.3            1 <1>                0.0000
      8 C8          -0.2313 -19.2035  14.1624 C.3            1 <1>                0.0000
      9 N9          -0.3388 -20.2033  13.0799 N.am           1 <1>                0.0000
     10 C10         -0.9108 -21.4188  13.1873 C.2            1 <1>                0.0000
     11 O11         -0.9429 -22.1621  12.2266 O.2            1 <1>                0.0000
     12 O12         -1.4468 -21.8095  14.3590 O.3            1 <1>                0.0000
     13 C13         -1.6330 -23.2360  14.5556 C.3            1 <1>                0.0000
     14 C14         -2.7365 -23.7396  13.6232 C.3            1 <1>                0.0000
     15 C15         -0.3269 -23.9688  14.2424 C.3            1 <1>                0.0000
     16 C16         -2.0316 -23.5028  16.0085 C.3            1 <1>                0.0000
     17 C17          0.6049 -16.8319  14.3045 C.2            1 <1>                0.0000
     18 O18          1.7353 -17.0538  14.7037 O.co2          1 <1>                0.0000
     19 O19          0.0442 -15.7927  14.6082 O.co2          1 <1>               -1.0000
     20 H20         -1.2410 -19.9071   8.1503 H              1 <1>                0.0000
     21 H21         -1.9700 -18.3818   8.7073 H              1 <1>                0.0000
     22 H22         -0.5341 -18.3502   7.6559 H              1 <1>                0.0000
     23 H23         -1.6348 -19.0418  11.0864 H              1 <1>                0.0000
     24 H24         -1.0373 -20.5923  10.4482 H              1 <1>                0.0000
     25 H25          1.9334 -20.0845  10.5581 H              1 <1>                0.0000
     26 H26          2.1870 -20.5718  12.2513 H              1 <1>                0.0000
     27 H27          1.1065 -21.5224  11.2038 H              1 <1>                0.0000
     28 H28          1.8294 -18.2388  12.4787 H              1 <1>                0.0000
     29 H29          0.5927 -17.5438  11.3802 H              1 <1>                0.0000
     30 H30         -1.0744 -17.4713  13.1199 H              1 <1>                0.0000
     31 H31          0.6533 -19.3971  14.7693 H              1 <1>                0.0000
     32 H32         -1.1279 -19.2172  14.7821 H              1 <1>                0.0000
     33 H33         -2.4526 -23.5496  12.5882 H              1 <1>                0.0000
     34 H34         -2.8764 -24.8105  13.7709 H              1 <1>                0.0000
     35 H35         -3.6671 -23.2176  13.8464 H              1 <1>                0.0000
     36 H36          0.4593 -23.6100  14.9066 H              1 <1>                0.0000
     37 H37         -0.4667 -25.0397  14.3900 H              1 <1>                0.0000
     38 H38         -0.0429 -23.7787  13.2073 H              1 <1>                0.0000
     39 H39         -2.9622 -22.9807  16.2316 H              1 <1>                0.0000
     40 H40         -2.1715 -24.5736  16.1562 H              1 <1>                0.0000
     41 H41         -1.2454 -23.1440  16.6727 H              1 <1>                0.0000
@<TRIPOS>BOND
    1    1    2 1     
    2    1   20 1     
    3    1   21 1     
    4    1   22 1     
    5    2    3 1     
    6    3    4 1     
    7    3   23 1     
    8    3   24 1     
    9    4    5 1     
   10    4    6 1     
   11    4    9 1     
   12    5   25 1     
   13    5   26 1     
   14    5   27 1     
   15    6    7 1     
   16    6   28 1     
   17    6   29 1     
   18    7    8 1     
   19    7   17 1     
   20    7   30 1     
   21    8    9 1     
   22    8   31 1     
   23    8   32 1     
   24    9   10 am    
   25   10   11 2     
   26   10   12 1     
   27   12   13 1     
   28   13   14 1     
   29   13   15 1     
   30   13   16 1     
   31   14   33 1     
   32   14   34 1     
   33   14   35 1     
   34   15   36 1     
   35   15   37 1     
   36   15   38 1     
   37   16   39 1     
   38   16   40 1     
   39   16   41 1     
   40   17   18 ar    
   41   17   19 ar    
@<TRIPOS>SUBSTRUCTURE
      1 ****           1
@<TRIPOS>COMMENT
> <Gold.Version>
2022.2.0

> <Gold.Id.Protein>
3pbl|protein|mol2

> <Gold.Protein.RotatedTorsions>
[ 1303 1298 1297 1294 ] final   35.42 input  179.99 | X-H torsion
[ 2461 2456 2455 2452 ] final  -54.64 input   30.03 | X-H torsion
[ 2515 2510 2509 2506 ] final -142.69 input  -89.99 | X-H torsion
[ 3721 3712 3711 3710 ] final   27.29 input -179.91 | X-H torsion
[ 3841 3832 3831 3830 ] final  -55.47 input -179.91 | X-H torsion
[ 3767 3762 3761 3758 ] final  129.55 input  -89.99 | X-H torsion
[ 2472 2467 2466 2463 ] final  -74.56 input  -89.97 | X-H torsion

> <Gold.Protein.ActiveResidues>
 VAL82   VAL86   LEU89   PHE106  VAL107  ASP110  VAL111  MET112  CYS114  THR115 
 CYS181  SER182  ILE183  PHE188  VAL189  ILE190  SER192  SER193  SER196  TRP342 
 PHE345  PHE346  HIS349  VAL350  TYR365  THR369  GLY372  TYR373 

> <Gold.Protein.RotatedAtoms>
    3.6925  -10.2130    4.3924 H   0  0  0  0  0  0  0  0  0  0  0  0  # atno 1303 bound_to 1298
    0.3996   -8.4959    7.3139 H   0  0  0  0  0  0  0  0  0  0  0  0  # atno 2461 bound_to 2456
   -3.8563   -5.2684    9.1442 H   0  0  0  0  0  0  0  0  0  0  0  0  # atno 2472 bound_to 2467
    2.5815   -9.2561    5.3433 H   0  0  0  0  0  0  0  0  0  0  0  0  # atno 2515 bound_to 2510
   -2.4781  -18.0343   13.8412 H   0  0  0  0  0  0  0  0  0  0  0  0  # atno 3721 bound_to 3712
   -3.9198  -23.1095   11.0345 H   0  0  0  0  0  0  0  0  0  0  0  0  # atno 3767 bound_to 3762
    1.5933  -19.8540    9.0808 H   0  0  0  0  0  0  0  0  0  0  0  0  # atno 3841 bound_to 3832
    3.7586   -8.6772    3.8417 LP  0  0  0  0  0  0  0  0  0  0  0  0  # atno 4297 bound_to 1298
    4.9112   -9.2307    4.8575 LP  0  0  0  0  0  0  0  0  0  0  0  0  # atno 4298 bound_to 1298
    1.3665   -9.2429    8.3976 LP  0  0  0  0  0  0  0  0  0  0  0  0  # atno 4299 bound_to 2456
    1.9714   -8.0694    7.4365 LP  0  0  0  0  0  0  0  0  0  0  0  0  # atno 4300 bound_to 2456
    2.0327   -7.8281    5.9138 LP  0  0  0  0  0  0  0  0  0  0  0  0  # atno 4301 bound_to 2510
    2.6824   -7.9145    4.4181 LP  0  0  0  0  0  0  0  0  0  0  0  0  # atno 4302 bound_to 2510
   -3.2539  -16.9653   14.7541 LP  0  0  0  0  0  0  0  0  0  0  0  0  # atno 4306 bound_to 3712
   -3.4128  -16.9402   13.1290 LP  0  0  0  0  0  0  0  0  0  0  0  0  # atno 4307 bound_to 3712
    2.9041  -20.1165    8.1925 LP  0  0  0  0  0  0  0  0  0  0  0  0  # atno 4314 bound_to 3832
    2.4848  -21.1544    9.3814 LP  0  0  0  0  0  0  0  0  0  0  0  0  # atno 4315 bound_to 3832
   -5.2292  -22.8329   10.0987 LP  0  0  0  0  0  0  0  0  0  0  0  0  # atno 4318 bound_to 3762
   -4.9780  -21.9329   11.4379 LP  0  0  0  0  0  0  0  0  0  0  0  0  # atno 4319 bound_to 3762
   -5.4548   -5.3250    8.8155 LP  0  0  0  0  0  0  0  0  0  0  0  0  # atno 4320 bound_to 2467
   -4.4057   -4.8002    7.6795 LP  0  0  0  0  0  0  0  0  0  0  0  0  # atno 4321 bound_to 2467

> <Gold.Score>
     Score     S(PLP)   S(hbond)     S(cho)   S(metal)  DE(clash)   DE(tors)     intcor
     42.54     -36.81       2.00       0.00       0.00       0.00       0.43       0.58

> <Gold.PLP.Fitness>
42.5392

> <Gold.PLP.PLP>
-36.8134

> <Gold.PLP.part.hbond>
-2.0000

> <Gold.PLP.part.metal>
0.0000

> <Gold.PLP.part.buried>
-3.4182

> <Gold.PLP.part.nonpolar>
-32.5084

> <Gold.PLP.part.repulsive>
0.3512

> <Gold.PLP.ligand.clash>
0.0000

> <Gold.PLP.ligand.torsion>
0.4259

> <Gold.PLP.Chemscore.Hbond>
2.0000

> <Gold.PLP.Chemscore.CHOScore>
0.0000

> <Gold.PLP.Chemscore.Metal>
0.0000

> <Gold.Chemscore.Hbonds>
donor molecule, donor type, donor heavy atom, donor atom, acceptor molecule, acceptor atom, score
      P1  H  2305  2313       L1    19  1.00
      P1  H  3832  3841       L1     2  1.00

> <Gold.PLP.Chemscore.Internal.Correction>
0.5776

