#       Name:                EN300-26978906_i004
#       Creating user name   fsindt
#       Creation time:       Wed Mar  1 05:43:01 2023


#       File generated by GOLD software.
#

@<TRIPOS>MOLECULE
EN300-26978906_i004|acide_1|mol2|6892|dock10
    41    41     1
SMALL
USER_CHARGES


@<TRIPOS>ATOM
      1 C1           1.3970 -11.6987   6.1696 C.3            1 <1>                0.0000
      2 O2           0.8017 -11.1830   7.3619 O.3            1 <1>                0.0000
      3 C3           0.2891 -12.1890   8.2377 C.3            1 <1>                0.0000
      4 C4          -0.1974 -11.5373   9.5338 C.3            1 <1>                0.0000
      5 C5           0.9485 -10.7634  10.1887 C.3            1 <1>                0.0000
      6 C6          -1.3711 -10.5817   9.2323 C.3            1 <1>                0.0000
      7 C7          -2.6168 -11.4499   9.5519 C.3            1 <1>                0.0000
      8 C8          -2.1137 -12.2841  10.7563 C.3            1 <1>                0.0000
      9 N9          -0.6955 -12.5686  10.4556 N.am           1 <1>                0.0000
     10 C10          0.0187 -13.6024  10.9430 C.2            1 <1>                0.0000
     11 O11          1.1837 -13.7390  10.6258 O.2            1 <1>                0.0000
     12 O12         -0.5586 -14.4837  11.7813 O.3            1 <1>                0.0000
     13 C13          0.0299 -15.8091  11.8519 C.3            1 <1>                0.0000
     14 C14         -0.8801 -16.7283  12.6691 C.3            1 <1>                0.0000
     15 C15          0.1877 -16.3731  10.4384 C.3            1 <1>                0.0000
     16 C16          1.4024 -15.7226  12.5226 C.3            1 <1>                0.0000
     17 C17         -3.7895 -10.5883   9.9436 C.2            1 <1>                0.0000
     18 O18         -4.8938 -11.0868  10.0793 O.co2          1 <1>                0.0000
     19 O19         -3.6339  -9.3927  10.1249 O.co2          1 <1>               -1.0000
     20 H20          2.2296 -12.3513   6.4321 H              1 <1>                0.0000
     21 H21          0.6541 -12.2654   5.6084 H              1 <1>                0.0000
     22 H22          1.7613 -10.8727   5.5588 H              1 <1>                0.0000
     23 H23         -0.5425 -12.7020   7.7546 H              1 <1>                0.0000
     24 H24          1.0762 -12.9078   8.4657 H              1 <1>                0.0000
     25 H25          1.2923  -9.9812   9.5119 H              1 <1>                0.0000
     26 H26          0.5983 -10.3124  11.1172 H              1 <1>                0.0000
     27 H27          1.7712 -11.4454  10.4038 H              1 <1>                0.0000
     28 H28         -1.3334  -9.7075   9.8821 H              1 <1>                0.0000
     29 H29         -1.3670 -10.2846   8.1835 H              1 <1>                0.0000
     30 H30         -2.8709 -12.0935   8.7097 H              1 <1>                0.0000
     31 H31         -2.1965 -11.7079  11.6779 H              1 <1>                0.0000
     32 H32         -2.6785 -13.2129  10.8367 H              1 <1>                0.0000
     33 H33         -1.8578 -16.7900  12.1913 H              1 <1>                0.0000
     34 H34         -0.4382 -17.7233  12.7221 H              1 <1>                0.0000
     35 H35         -0.9925 -16.3267  13.6761 H              1 <1>                0.0000
     36 H36          0.8360 -15.7181   9.8562 H              1 <1>                0.0000
     37 H37          0.6296 -17.3681  10.4915 H              1 <1>                0.0000
     38 H38         -0.7900 -16.4346   9.9606 H              1 <1>                0.0000
     39 H39          1.2899 -15.3209  13.5297 H              1 <1>                0.0000
     40 H40          1.8442 -16.7176  12.5757 H              1 <1>                0.0000
     41 H41          2.0507 -15.0678  11.9405 H              1 <1>                0.0000
@<TRIPOS>BOND
    1    1    2 1     
    2    1   20 1     
    3    1   21 1     
    4    1   22 1     
    5    2    3 1     
    6    3    4 1     
    7    3   23 1     
    8    3   24 1     
    9    4    5 1     
   10    4    6 1     
   11    4    9 1     
   12    5   25 1     
   13    5   26 1     
   14    5   27 1     
   15    6    7 1     
   16    6   28 1     
   17    6   29 1     
   18    7    8 1     
   19    7   17 1     
   20    7   30 1     
   21    8    9 1     
   22    8   31 1     
   23    8   32 1     
   24    9   10 am    
   25   10   11 2     
   26   10   12 1     
   27   12   13 1     
   28   13   14 1     
   29   13   15 1     
   30   13   16 1     
   31   14   33 1     
   32   14   34 1     
   33   14   35 1     
   34   15   36 1     
   35   15   37 1     
   36   15   38 1     
   37   16   39 1     
   38   16   40 1     
   39   16   41 1     
   40   17   18 ar    
   41   17   19 ar    
@<TRIPOS>SUBSTRUCTURE
      1 ****           1
@<TRIPOS>COMMENT
> <Gold.Version>
2022.2.0

> <Gold.Id.Protein>
3pbl|protein|mol2

> <Gold.Protein.RotatedTorsions>
[ 1303 1298 1297 1294 ] final  142.54 input  179.99 | X-H torsion
[ 2461 2456 2455 2452 ] final -140.97 input   30.03 | X-H torsion
[ 2515 2510 2509 2506 ] final  -16.32 input  -89.99 | X-H torsion
[ 3721 3712 3711 3710 ] final  -41.00 input -179.91 | X-H torsion
[ 3841 3832 3831 3830 ] final  -37.52 input -179.91 | X-H torsion
[ 3767 3762 3761 3758 ] final  109.46 input  -89.99 | X-H torsion
[ 2472 2467 2466 2463 ] final  -22.42 input  -89.97 | X-H torsion

> <Gold.Protein.ActiveResidues>
 VAL82   VAL86   LEU89   PHE106  VAL107  ASP110  VAL111  MET112  CYS114  THR115 
 CYS181  SER182  ILE183  PHE188  VAL189  ILE190  SER192  SER193  SER196  TRP342 
 PHE345  PHE346  HIS349  VAL350  TYR365  THR369  GLY372  TYR373 

> <Gold.Protein.RotatedAtoms>
    4.8824   -9.4319    4.9161 H   0  0  0  0  0  0  0  0  0  0  0  0  # atno 1303 bound_to 1298
    0.8432   -9.2722    8.2443 H   0  0  0  0  0  0  0  0  0  0  0  0  # atno 2461 bound_to 2456
   -3.6547   -4.9763    8.3953 H   0  0  0  0  0  0  0  0  0  0  0  0  # atno 2472 bound_to 2467
    2.6458   -7.8258    4.4600 H   0  0  0  0  0  0  0  0  0  0  0  0  # atno 2515 bound_to 2510
   -2.6684  -17.5727   14.6756 H   0  0  0  0  0  0  0  0  0  0  0  0  # atno 3721 bound_to 3712
   -4.0176  -23.2585   10.7581 H   0  0  0  0  0  0  0  0  0  0  0  0  # atno 3767 bound_to 3762
    1.5615  -20.0437    9.2703 H   0  0  0  0  0  0  0  0  0  0  0  0  # atno 3841 bound_to 3832
    3.5551  -10.1210    4.2605 LP  0  0  0  0  0  0  0  0  0  0  0  0  # atno 4297 bound_to 1298
    3.9244   -8.5684    3.9147 LP  0  0  0  0  0  0  0  0  0  0  0  0  # atno 4298 bound_to 1298
    2.1591   -8.3980    7.8302 LP  0  0  0  0  0  0  0  0  0  0  0  0  # atno 4299 bound_to 2456
    0.7354   -8.1382    7.0738 LP  0  0  0  0  0  0  0  0  0  0  0  0  # atno 4300 bound_to 2456
    2.6221   -9.2563    5.2467 LP  0  0  0  0  0  0  0  0  0  0  0  0  # atno 4301 bound_to 2510
    2.0287   -7.9172    5.9689 LP  0  0  0  0  0  0  0  0  0  0  0  0  # atno 4302 bound_to 2510
   -3.5674  -16.5651   13.8072 LP  0  0  0  0  0  0  0  0  0  0  0  0  # atno 4306 bound_to 3712
   -2.8796  -17.8732   13.1126 LP  0  0  0  0  0  0  0  0  0  0  0  0  # atno 4307 bound_to 3712
    2.6932  -19.9118    8.1398 LP  0  0  0  0  0  0  0  0  0  0  0  0  # atno 4314 bound_to 3832
    2.7324  -21.1400    9.2152 LP  0  0  0  0  0  0  0  0  0  0  0  0  # atno 4315 bound_to 3832
   -5.4073  -22.5868   10.2247 LP  0  0  0  0  0  0  0  0  0  0  0  0  # atno 4318 bound_to 3762
   -4.7021  -22.0300   11.5882 LP  0  0  0  0  0  0  0  0  0  0  0  0  # atno 4319 bound_to 3762
   -4.8634   -5.4631    9.3794 LP  0  0  0  0  0  0  0  0  0  0  0  0  # atno 4320 bound_to 2467
   -5.1987   -4.9541    7.8644 LP  0  0  0  0  0  0  0  0  0  0  0  0  # atno 4321 bound_to 2467

> <Gold.Score>
     Score     S(PLP)   S(hbond)     S(cho)   S(metal)  DE(clash)   DE(tors)     intcor
     44.55     -43.31       0.68       0.00       0.00       0.00       0.69       0.58

> <Gold.PLP.Fitness>
44.5464

> <Gold.PLP.PLP>
-43.3122

> <Gold.PLP.part.hbond>
-1.0000

> <Gold.PLP.part.metal>
0.0000

> <Gold.PLP.part.buried>
2.6699

> <Gold.PLP.part.nonpolar>
-48.0402

> <Gold.PLP.part.repulsive>
1.6659

> <Gold.PLP.ligand.clash>
0.0000

> <Gold.PLP.ligand.torsion>
0.6947

> <Gold.PLP.Chemscore.Hbond>
0.6820

> <Gold.PLP.Chemscore.CHOScore>
0.0000

> <Gold.PLP.Chemscore.Metal>
0.0000

> <Gold.Chemscore.Hbonds>
donor molecule, donor type, donor heavy atom, donor atom, acceptor molecule, acceptor atom, score
      P1  H  2456  2461       L1     2  0.68

> <Gold.PLP.Chemscore.Internal.Correction>
0.5776

