#       Name:                EN300-26978906_i004
#       Creating user name   fsindt
#       Creation time:       Wed Mar  1 05:42:52 2023


#       File generated by GOLD software.
#

@<TRIPOS>MOLECULE
EN300-26978906_i004|acide_1|mol2|6892|dock3
    41    41     1
SMALL
USER_CHARGES


@<TRIPOS>ATOM
      1 C1          -0.9978 -18.8471   9.2377 C.3            1 <1>                0.0000
      2 O2          -0.0440 -19.3479  10.1766 O.3            1 <1>                0.0000
      3 C3          -0.6279 -19.9390  11.3392 C.3            1 <1>                0.0000
      4 C4           0.3972 -19.9506  12.4750 C.3            1 <1>                0.0000
      5 C5           1.4232 -21.0607  12.2383 C.3            1 <1>                0.0000
      6 C6           1.1107 -18.5843  12.5520 C.3            1 <1>                0.0000
      7 C7           0.3260 -17.8449  13.6678 C.3            1 <1>                0.0000
      8 C8          -0.0066 -19.0072  14.6364 C.3            1 <1>                0.0000
      9 N9          -0.2833 -20.1644  13.7605 N.am           1 <1>                0.0000
     10 C10         -1.0362 -21.2337  14.0862 C.2            1 <1>                0.0000
     11 O11         -1.5543 -21.3004  15.1833 O.2            1 <1>                0.0000
     12 O12         -1.2143 -22.2280  13.1960 O.3            1 <1>                0.0000
     13 C13         -1.6654 -23.5061  13.7168 C.3            1 <1>                0.0000
     14 C14         -0.7621 -23.9321  14.8757 C.3            1 <1>                0.0000
     15 C15         -3.1060 -23.3740  14.2149 C.3            1 <1>                0.0000
     16 C16         -1.6036 -24.5589  12.6083 C.3            1 <1>                0.0000
     17 C17          1.1906 -16.8108  14.3416 C.2            1 <1>                0.0000
     18 O18          0.7902 -15.6655  14.4609 O.co2          1 <1>                0.0000
     19 O19          2.2905 -17.1195  14.7676 O.co2          1 <1>               -1.0000
     20 H20         -1.6359 -19.6629   8.8979 H              1 <1>                0.0000
     21 H21         -1.6098 -18.0817   9.7147 H              1 <1>                0.0000
     22 H22         -0.4753 -18.4149   8.3844 H              1 <1>                0.0000
     23 H23         -1.4998 -19.3594  11.6426 H              1 <1>                0.0000
     24 H24         -0.9317 -20.9612  11.1135 H              1 <1>                0.0000
     25 H25          1.9448 -20.8791  11.2986 H              1 <1>                0.0000
     26 H26          2.1426 -21.0710  13.0572 H              1 <1>                0.0000
     27 H27          0.9130 -22.0227  12.1907 H              1 <1>                0.0000
     28 H28          2.1558 -18.7104  12.8343 H              1 <1>                0.0000
     29 H29          1.0275 -18.0518  11.6045 H              1 <1>                0.0000
     30 H30         -0.5839 -17.3935  13.2722 H              1 <1>                0.0000
     31 H31          0.8453 -19.2178  15.2831 H              1 <1>                0.0000
     32 H32         -0.8858 -18.7639  15.2330 H              1 <1>                0.0000
     33 H33         -0.8061 -23.1822  15.6654 H              1 <1>                0.0000
     34 H34         -1.1007 -24.8916  15.2666 H              1 <1>                0.0000
     35 H35          0.2643 -24.0263  14.5209 H              1 <1>                0.0000
     36 H36         -3.7496 -23.0704  13.3892 H              1 <1>                0.0000
     37 H37         -3.4446 -24.3335  14.6058 H              1 <1>                0.0000
     38 H38         -3.1500 -22.6239  15.0046 H              1 <1>                0.0000
     39 H39         -0.5772 -24.6529  12.2534 H              1 <1>                0.0000
     40 H40         -1.9422 -25.5183  12.9991 H              1 <1>                0.0000
     41 H41         -2.2472 -24.2554  11.7826 H              1 <1>                0.0000
@<TRIPOS>BOND
    1    1    2 1     
    2    1   20 1     
    3    1   21 1     
    4    1   22 1     
    5    2    3 1     
    6    3    4 1     
    7    3   23 1     
    8    3   24 1     
    9    4    5 1     
   10    4    6 1     
   11    4    9 1     
   12    5   25 1     
   13    5   26 1     
   14    5   27 1     
   15    6    7 1     
   16    6   28 1     
   17    6   29 1     
   18    7    8 1     
   19    7   17 1     
   20    7   30 1     
   21    8    9 1     
   22    8   31 1     
   23    8   32 1     
   24    9   10 am    
   25   10   11 2     
   26   10   12 1     
   27   12   13 1     
   28   13   14 1     
   29   13   15 1     
   30   13   16 1     
   31   14   33 1     
   32   14   34 1     
   33   14   35 1     
   34   15   36 1     
   35   15   37 1     
   36   15   38 1     
   37   16   39 1     
   38   16   40 1     
   39   16   41 1     
   40   17   18 ar    
   41   17   19 ar    
@<TRIPOS>SUBSTRUCTURE
      1 ****           1
@<TRIPOS>COMMENT
> <Gold.Version>
2022.2.0

> <Gold.Id.Protein>
3pbl|protein|mol2

> <Gold.Protein.RotatedTorsions>
[ 1303 1298 1297 1294 ] final  -77.34 input  179.99 | X-H torsion
[ 2461 2456 2455 2452 ] final -159.88 input   30.03 | X-H torsion
[ 2515 2510 2509 2506 ] final  -99.56 input  -89.99 | X-H torsion
[ 3721 3712 3711 3710 ] final  -89.76 input -179.91 | X-H torsion
[ 3841 3832 3831 3830 ] final  -43.02 input -179.91 | X-H torsion
[ 3767 3762 3761 3758 ] final  156.09 input  -89.99 | X-H torsion
[ 2472 2467 2466 2463 ] final  156.81 input  -89.97 | X-H torsion

> <Gold.Protein.ActiveResidues>
 VAL82   VAL86   LEU89   PHE106  VAL107  ASP110  VAL111  MET112  CYS114  THR115 
 CYS181  SER182  ILE183  PHE188  VAL189  ILE190  SER192  SER193  SER196  TRP342 
 PHE345  PHE346  HIS349  VAL350  TYR365  THR369  GLY372  TYR373 

> <Gold.Protein.RotatedAtoms>
    3.6726   -8.7543    3.8125 H   0  0  0  0  0  0  0  0  0  0  0  0  # atno 1303 bound_to 1298
    1.1313   -9.2847    8.3573 H   0  0  0  0  0  0  0  0  0  0  0  0  # atno 2461 bound_to 2456
   -5.4924   -5.2830    8.6854 H   0  0  0  0  0  0  0  0  0  0  0  0  # atno 2472 bound_to 2467
    2.7975   -9.0407    4.7212 H   0  0  0  0  0  0  0  0  0  0  0  0  # atno 2515 bound_to 2510
   -3.0231  -16.9519   14.6864 H   0  0  0  0  0  0  0  0  0  0  0  0  # atno 3721 bound_to 3712
   -3.9381  -22.8262   11.3613 H   0  0  0  0  0  0  0  0  0  0  0  0  # atno 3767 bound_to 3762
    1.5631  -19.9823    9.2144 H   0  0  0  0  0  0  0  0  0  0  0  0  # atno 3841 bound_to 3832
    4.9097   -9.1202    4.8135 LP  0  0  0  0  0  0  0  0  0  0  0  0  # atno 4297 bound_to 1298
    3.7800  -10.2470    4.4658 LP  0  0  0  0  0  0  0  0  0  0  0  0  # atno 4298 bound_to 1298
    2.0896   -8.1969    7.6051 LP  0  0  0  0  0  0  0  0  0  0  0  0  # atno 4299 bound_to 2456
    0.5167   -8.3268    7.1859 LP  0  0  0  0  0  0  0  0  0  0  0  0  # atno 4300 bound_to 2456
    2.1008   -8.4942    6.0929 LP  0  0  0  0  0  0  0  0  0  0  0  0  # atno 4301 bound_to 2510
    2.3982   -7.4638    4.8614 LP  0  0  0  0  0  0  0  0  0  0  0  0  # atno 4302 bound_to 2510
   -3.4127  -16.9404   13.1289 LP  0  0  0  0  0  0  0  0  0  0  0  0  # atno 4306 bound_to 3712
   -2.6247  -18.2147   13.7784 LP  0  0  0  0  0  0  0  0  0  0  0  0  # atno 4307 bound_to 3712
    2.7633  -19.9703    8.1488 LP  0  0  0  0  0  0  0  0  0  0  0  0  # atno 4314 bound_to 3832
    2.6604  -21.1523    9.2708 LP  0  0  0  0  0  0  0  0  0  0  0  0  # atno 4315 bound_to 3832
   -4.9016  -23.1146   10.0747 LP  0  0  0  0  0  0  0  0  0  0  0  0  # atno 4318 bound_to 3762
   -5.2873  -21.9343   11.1353 LP  0  0  0  0  0  0  0  0  0  0  0  0  # atno 4319 bound_to 3762
   -4.2693   -4.7989    7.7177 LP  0  0  0  0  0  0  0  0  0  0  0  0  # atno 4320 bound_to 2467
   -3.9554   -5.3116    9.2361 LP  0  0  0  0  0  0  0  0  0  0  0  0  # atno 4321 bound_to 2467

> <Gold.Score>
     Score     S(PLP)   S(hbond)     S(cho)   S(metal)  DE(clash)   DE(tors)     intcor
     45.57     -40.32       2.00       0.00       0.00       0.00       0.68       0.61

> <Gold.PLP.Fitness>
45.5712

> <Gold.PLP.PLP>
-40.3166

> <Gold.PLP.part.hbond>
-2.0000

> <Gold.PLP.part.metal>
0.0000

> <Gold.PLP.part.buried>
-7.2717

> <Gold.PLP.part.nonpolar>
-31.6405

> <Gold.PLP.part.repulsive>
0.2311

> <Gold.PLP.ligand.clash>
0.0000

> <Gold.PLP.ligand.torsion>
0.6766

> <Gold.PLP.Chemscore.Hbond>
2.0000

> <Gold.PLP.Chemscore.CHOScore>
0.0000

> <Gold.PLP.Chemscore.Metal>
0.0000

> <Gold.Chemscore.Hbonds>
donor molecule, donor type, donor heavy atom, donor atom, acceptor molecule, acceptor atom, score
      P1  H  2305  2313       L1    18  1.00
      P1  H  3832  3841       L1     2  1.00

> <Gold.PLP.Chemscore.Internal.Correction>
0.6079

