#       Name:                EN300-26978906_i004
#       Creating user name   fsindt
#       Creation time:       Wed Mar  1 05:42:54 2023


#       File generated by GOLD software.
#

@<TRIPOS>MOLECULE
EN300-26978906_i004|acide_1|mol2|6892|dock5
    41    41     1
SMALL
USER_CHARGES


@<TRIPOS>ATOM
      1 C1           1.0970 -15.9746   6.9038 C.3            1 <1>                0.0000
      2 O2           0.5930 -14.8103   7.5614 O.3            1 <1>                0.0000
      3 C3          -0.0376 -15.0781   8.8154 C.3            1 <1>                0.0000
      4 C4           0.4733 -14.0888   9.8648 C.3            1 <1>                0.0000
      5 C5           2.0030 -14.1034   9.8921 C.3            1 <1>                0.0000
      6 C6          -0.0322 -12.6681   9.5367 C.3            1 <1>                0.0000
      7 C7          -1.2825 -12.5259  10.4445 C.3            1 <1>                0.0000
      8 C8          -0.8420 -13.3102  11.7056 C.3            1 <1>                0.0000
      9 N9          -0.0539 -14.4482  11.1893 N.am           1 <1>                0.0000
     10 C10          0.1442 -15.6195  11.8259 C.2            1 <1>                0.0000
     11 O11          0.8130 -16.4893  11.3036 O.2            1 <1>                0.0000
     12 O12         -0.3988 -15.8259  13.0405 O.3            1 <1>                0.0000
     13 C13          0.1960 -16.8662  13.8604 C.3            1 <1>                0.0000
     14 C14         -0.0875 -18.2333  13.2347 C.3            1 <1>                0.0000
     15 C15          1.7079 -16.6474  13.9444 C.3            1 <1>                0.0000
     16 C16         -0.4057 -16.8140  15.2662 C.3            1 <1>                0.0000
     17 C17         -1.5494 -11.0797  10.7735 C.2            1 <1>                0.0000
     18 O18         -2.6589 -10.6080  10.5922 O.co2          1 <1>                0.0000
     19 O19         -0.6558 -10.3813  11.2210 O.co2          1 <1>               -1.0000
     20 H20          1.8382 -16.4587   7.5397 H              1 <1>                0.0000
     21 H21          0.2771 -16.6661   6.7102 H              1 <1>                0.0000
     22 H22          1.5602 -15.6869   5.9600 H              1 <1>                0.0000
     23 H23         -1.1171 -14.9703   8.7097 H              1 <1>                0.0000
     24 H24          0.1968 -16.0950   9.1302 H              1 <1>                0.0000
     25 H25          2.3867 -13.8067   8.9160 H              1 <1>                0.0000
     26 H26          2.3595 -13.4059  10.6501 H              1 <1>                0.0000
     27 H27          2.3525 -15.1082  10.1299 H              1 <1>                0.0000
     28 H28          0.7191 -11.9221   9.7956 H              1 <1>                0.0000
     29 H29         -0.3083 -12.5902   8.4852 H              1 <1>                0.0000
     30 H30         -2.1553 -12.9874   9.9824 H              1 <1>                0.0000
     31 H31         -0.2233 -12.6817  12.3463 H              1 <1>                0.0000
     32 H32         -1.7137 -13.6692  12.2527 H              1 <1>                0.0000
     33 H33          0.3411 -18.2705  12.2333 H              1 <1>                0.0000
     34 H34          0.3590 -19.0142  13.8502 H              1 <1>                0.0000
     35 H35         -1.1647 -18.3892  13.1749 H              1 <1>                0.0000
     36 H36          1.9099 -15.6734  14.3901 H              1 <1>                0.0000
     37 H37          2.1544 -17.4283  14.5599 H              1 <1>                0.0000
     38 H38          2.1365 -16.6845  12.9429 H              1 <1>                0.0000
     39 H39         -1.4829 -16.9699  15.2064 H              1 <1>                0.0000
     40 H40          0.0408 -17.5950  15.8817 H              1 <1>                0.0000
     41 H41         -0.2037 -15.8401  15.7120 H              1 <1>                0.0000
@<TRIPOS>BOND
    1    1    2 1     
    2    1   20 1     
    3    1   21 1     
    4    1   22 1     
    5    2    3 1     
    6    3    4 1     
    7    3   23 1     
    8    3   24 1     
    9    4    5 1     
   10    4    6 1     
   11    4    9 1     
   12    5   25 1     
   13    5   26 1     
   14    5   27 1     
   15    6    7 1     
   16    6   28 1     
   17    6   29 1     
   18    7    8 1     
   19    7   17 1     
   20    7   30 1     
   21    8    9 1     
   22    8   31 1     
   23    8   32 1     
   24    9   10 am    
   25   10   11 2     
   26   10   12 1     
   27   12   13 1     
   28   13   14 1     
   29   13   15 1     
   30   13   16 1     
   31   14   33 1     
   32   14   34 1     
   33   14   35 1     
   34   15   36 1     
   35   15   37 1     
   36   15   38 1     
   37   16   39 1     
   38   16   40 1     
   39   16   41 1     
   40   17   18 ar    
   41   17   19 ar    
@<TRIPOS>SUBSTRUCTURE
      1 ****           1
@<TRIPOS>COMMENT
> <Gold.Version>
2022.2.0

> <Gold.Id.Protein>
3pbl|protein|mol2

> <Gold.Protein.RotatedTorsions>
[ 1303 1298 1297 1294 ] final -146.43 input  179.99 | X-H torsion
[ 2461 2456 2455 2452 ] final   54.35 input   30.03 | X-H torsion
[ 2515 2510 2509 2506 ] final  105.55 input  -89.99 | X-H torsion
[ 3721 3712 3711 3710 ] final   -8.14 input -179.91 | X-H torsion
[ 3841 3832 3831 3830 ] final   87.01 input -179.91 | X-H torsion
[ 3767 3762 3761 3758 ] final  163.58 input  -89.99 | X-H torsion
[ 2472 2467 2466 2463 ] final   85.74 input  -89.97 | X-H torsion

> <Gold.Protein.ActiveResidues>
 VAL82   VAL86   LEU89   PHE106  VAL107  ASP110  VAL111  MET112  CYS114  THR115 
 CYS181  SER182  ILE183  PHE188  VAL189  ILE190  SER192  SER193  SER196  TRP342 
 PHE345  PHE346  HIS349  VAL350  TYR365  THR369  GLY372  TYR373 

> <Gold.Protein.RotatedAtoms>
    4.5698   -8.5451    4.3548 H   0  0  0  0  0  0  0  0  0  0  0  0  # atno 1303 bound_to 1298
    1.8516   -7.9966    7.3221 H   0  0  0  0  0  0  0  0  0  0  0  0  # atno 2461 bound_to 2456
   -5.0422   -4.9008    7.7622 H   0  0  0  0  0  0  0  0  0  0  0  0  # atno 2472 bound_to 2467
    2.0288   -7.9445    5.9830 H   0  0  0  0  0  0  0  0  0  0  0  0  # atno 2515 bound_to 2510
   -2.5082  -17.9027   14.3508 H   0  0  0  0  0  0  0  0  0  0  0  0  # atno 3721 bound_to 3712
   -3.9738  -22.7356   11.4369 H   0  0  0  0  0  0  0  0  0  0  0  0  # atno 3767 bound_to 3762
    2.8099  -20.9321    9.2928 H   0  0  0  0  0  0  0  0  0  0  0  0  # atno 3841 bound_to 3832
    4.4601  -10.0884    4.8768 LP  0  0  0  0  0  0  0  0  0  0  0  0  # atno 4297 bound_to 1298
    3.3321   -9.4882    3.8600 LP  0  0  0  0  0  0  0  0  0  0  0  0  # atno 4298 bound_to 1298
    0.3487   -8.6273    7.4274 LP  0  0  0  0  0  0  0  0  0  0  0  0  # atno 4299 bound_to 2456
    1.5376   -9.1840    8.3986 LP  0  0  0  0  0  0  0  0  0  0  0  0  # atno 4300 bound_to 2456
    2.6344   -7.8007    4.4736 LP  0  0  0  0  0  0  0  0  0  0  0  0  # atno 4301 bound_to 2510
    2.6337   -9.2541    5.2182 LP  0  0  0  0  0  0  0  0  0  0  0  0  # atno 4302 bound_to 2510
   -3.4842  -16.6279   14.3386 LP  0  0  0  0  0  0  0  0  0  0  0  0  # atno 4306 bound_to 3712
   -3.1478  -17.4295   12.9562 LP  0  0  0  0  0  0  0  0  0  0  0  0  # atno 4307 bound_to 3712
    1.3923  -20.1863    9.1911 LP  0  0  0  0  0  0  0  0  0  0  0  0  # atno 4314 bound_to 3832
    2.5912  -19.8392    8.1380 LP  0  0  0  0  0  0  0  0  0  0  0  0  # atno 4315 bound_to 3832
   -4.7984  -23.1776   10.0984 LP  0  0  0  0  0  0  0  0  0  0  0  0  # atno 4318 bound_to 3762
   -5.3549  -21.9619   11.0360 LP  0  0  0  0  0  0  0  0  0  0  0  0  # atno 4319 bound_to 3762
   -3.6346   -5.0392    8.5781 LP  0  0  0  0  0  0  0  0  0  0  0  0  # atno 4320 bound_to 2467
   -5.0402   -5.4535    9.2987 LP  0  0  0  0  0  0  0  0  0  0  0  0  # atno 4321 bound_to 2467

> <Gold.Score>
     Score     S(PLP)   S(hbond)     S(cho)   S(metal)  DE(clash)   DE(tors)     intcor
     42.72     -43.70       0.00       0.00       0.00       0.00       0.79       0.60

> <Gold.PLP.Fitness>
42.7196

> <Gold.PLP.PLP>
-43.6951

> <Gold.PLP.part.hbond>
0.0000

> <Gold.PLP.part.metal>
0.0000

> <Gold.PLP.part.buried>
-8.2533

> <Gold.PLP.part.nonpolar>
-39.7359

> <Gold.PLP.part.repulsive>
2.9759

> <Gold.PLP.ligand.clash>
0.0000

> <Gold.PLP.ligand.torsion>
0.7858

> <Gold.PLP.Chemscore.Hbond>
0.0000

> <Gold.PLP.Chemscore.CHOScore>
0.0000

> <Gold.PLP.Chemscore.Metal>
0.0000

> <Gold.PLP.Chemscore.Internal.Correction>
0.5962

