#       Name:                EN300-26978906_i004
#       Creating user name   fsindt
#       Creation time:       Wed Mar  1 05:42:50 2023


#       File generated by GOLD software.
#

@<TRIPOS>MOLECULE
EN300-26978906_i004|acide_1|mol2|6892|dock2
    41    41     1
SMALL
USER_CHARGES


@<TRIPOS>ATOM
      1 C1           0.1474 -14.8483   6.9338 C.3            1 <1>                0.0000
      2 O2           0.6322 -15.6582   8.0067 O.3            1 <1>                0.0000
      3 C3          -0.0975 -15.5056   9.2258 C.3            1 <1>                0.0000
      4 C4           0.4496 -14.3052  10.0009 C.3            1 <1>                0.0000
      5 C5           1.9737 -14.3993  10.0973 C.3            1 <1>                0.0000
      6 C6           0.0486 -12.9950   9.2908 C.3            1 <1>                0.0000
      7 C7          -1.2135 -12.5473  10.0746 C.3            1 <1>                0.0000
      8 C8          -0.8600 -12.9947  11.5149 C.3            1 <1>                0.0000
      9 N9          -0.1357 -14.2717  11.3491 N.am           1 <1>                0.0000
     10 C10         -0.0329 -15.2428  12.2780 C.2            1 <1>                0.0000
     11 O11         -0.5636 -15.1048  13.3624 O.2            1 <1>                0.0000
     12 O12          0.6577 -16.3657  12.0045 O.3            1 <1>                0.0000
     13 C13          1.1511 -17.1285  13.1371 C.3            1 <1>                0.0000
     14 C14          1.9179 -16.2009  14.0816 C.3            1 <1>                0.0000
     15 C15         -0.0289 -17.7543  13.8835 C.3            1 <1>                0.0000
     16 C16          2.0841 -18.2344  12.6396 C.3            1 <1>                0.0000
     17 C17         -1.3924 -11.0527  10.0018 C.2            1 <1>                0.0000
     18 O18         -0.6656 -10.3860   9.2852 O.co2          1 <1>                0.0000
     19 O19         -2.2641 -10.5103  10.6594 O.co2          1 <1>               -1.0000
     20 H20         -0.8898 -15.1081   6.7225 H              1 <1>                0.0000
     21 H21          0.2086 -13.7973   7.2157 H              1 <1>                0.0000
     22 H22          0.7538 -15.0220   6.0449 H              1 <1>                0.0000
     23 H23         -1.1515 -15.3428   9.0005 H              1 <1>                0.0000
     24 H24          0.0100 -16.4072   9.8289 H              1 <1>                0.0000
     25 H25          2.4023 -14.3930   9.0952 H              1 <1>                0.0000
     26 H26          2.3552 -13.5479  10.6611 H              1 <1>                0.0000
     27 H27          2.2492 -15.3239  10.6046 H              1 <1>                0.0000
     28 H28          0.8405 -12.2512   9.3777 H              1 <1>                0.0000
     29 H29         -0.1934 -13.1818   8.2445 H              1 <1>                0.0000
     30 H30         -2.1022 -13.0638   9.7120 H              1 <1>                0.0000
     31 H31         -0.2183 -12.2558  11.9950 H              1 <1>                0.0000
     32 H32         -1.7680 -13.1464  12.0986 H              1 <1>                0.0000
     33 H33          1.2533 -15.4131  14.4361 H              1 <1>                0.0000
     34 H34          2.2884 -16.7735  14.9319 H              1 <1>                0.0000
     35 H35          2.7586 -15.7551  13.5500 H              1 <1>                0.0000
     36 H36         -0.5752 -18.4151  13.2106 H              1 <1>                0.0000
     37 H37          0.3416 -18.3269  14.7338 H              1 <1>                0.0000
     38 H38         -0.6935 -16.9664  14.2379 H              1 <1>                0.0000
     39 H39          2.9248 -17.7886  12.1078 H              1 <1>                0.0000
     40 H40          2.4545 -18.8071  13.4899 H              1 <1>                0.0000
     41 H41          1.5378 -18.8953  11.9667 H              1 <1>                0.0000
@<TRIPOS>BOND
    1    1    2 1     
    2    1   20 1     
    3    1   21 1     
    4    1   22 1     
    5    2    3 1     
    6    3    4 1     
    7    3   23 1     
    8    3   24 1     
    9    4    5 1     
   10    4    6 1     
   11    4    9 1     
   12    5   25 1     
   13    5   26 1     
   14    5   27 1     
   15    6    7 1     
   16    6   28 1     
   17    6   29 1     
   18    7    8 1     
   19    7   17 1     
   20    7   30 1     
   21    8    9 1     
   22    8   31 1     
   23    8   32 1     
   24    9   10 am    
   25   10   11 2     
   26   10   12 1     
   27   12   13 1     
   28   13   14 1     
   29   13   15 1     
   30   13   16 1     
   31   14   33 1     
   32   14   34 1     
   33   14   35 1     
   34   15   36 1     
   35   15   37 1     
   36   15   38 1     
   37   16   39 1     
   38   16   40 1     
   39   16   41 1     
   40   17   18 ar    
   41   17   19 ar    
@<TRIPOS>SUBSTRUCTURE
      1 ****           1
@<TRIPOS>COMMENT
> <Gold.Version>
2022.2.0

> <Gold.Id.Protein>
3pbl|protein|mol2

> <Gold.Protein.RotatedTorsions>
[ 1303 1298 1297 1294 ] final -140.55 input  179.99 | X-H torsion
[ 2461 2456 2455 2452 ] final -128.74 input   30.03 | X-H torsion
[ 2515 2510 2509 2506 ] final  148.94 input  -89.99 | X-H torsion
[ 3721 3712 3711 3710 ] final -161.92 input -179.91 | X-H torsion
[ 3841 3832 3831 3830 ] final   18.82 input -179.91 | X-H torsion
[ 3767 3762 3761 3758 ] final   -1.20 input  -89.99 | X-H torsion
[ 2472 2467 2466 2463 ] final  -60.79 input  -89.97 | X-H torsion

> <Gold.Protein.ActiveResidues>
 VAL82   VAL86   LEU89   PHE106  VAL107  ASP110  VAL111  MET112  CYS114  THR115 
 CYS181  SER182  ILE183  PHE188  VAL189  ILE190  SER192  SER193  SER196  TRP342 
 PHE345  PHE346  HIS349  VAL350  TYR365  THR369  GLY372  TYR373 

> <Gold.Protein.RotatedAtoms>
    4.5007   -8.5139    4.2947 H   0  0  0  0  0  0  0  0  0  0  0  0  # atno 1303 bound_to 1298
    0.6782   -9.2252    8.1398 H   0  0  0  0  0  0  0  0  0  0  0  0  # atno 2461 bound_to 2456
   -3.7327   -5.1923    8.9708 H   0  0  0  0  0  0  0  0  0  0  0  0  # atno 2472 bound_to 2467
    2.1388   -8.6269    6.0711 H   0  0  0  0  0  0  0  0  0  0  0  0  # atno 2515 bound_to 2510
   -3.3386  -16.5375   13.8091 H   0  0  0  0  0  0  0  0  0  0  0  0  # atno 3721 bound_to 3712
   -5.3338  -22.7019   10.1548 H   0  0  0  0  0  0  0  0  0  0  0  0  # atno 3767 bound_to 3762
    1.9292  -20.6858    9.6176 H   0  0  0  0  0  0  0  0  0  0  0  0  # atno 3841 bound_to 3832
    4.5316  -10.0288    4.9034 LP  0  0  0  0  0  0  0  0  0  0  0  0  # atno 4297 bound_to 1298
    3.3297   -9.5789    3.8936 LP  0  0  0  0  0  0  0  0  0  0  0  0  # atno 4298 bound_to 1298
    2.1516   -8.5412    7.9707 LP  0  0  0  0  0  0  0  0  0  0  0  0  # atno 4299 bound_to 2456
    0.9078   -8.0419    7.0378 LP  0  0  0  0  0  0  0  0  0  0  0  0  # atno 4300 bound_to 2456
    2.3392   -7.4268    4.9824 LP  0  0  0  0  0  0  0  0  0  0  0  0  # atno 4301 bound_to 2510
    2.8189   -8.9454    4.6214 LP  0  0  0  0  0  0  0  0  0  0  0  0  # atno 4302 bound_to 2510
   -2.8507  -17.9179   13.1500 LP  0  0  0  0  0  0  0  0  0  0  0  0  # atno 4306 bound_to 3712
   -2.8225  -17.7156   14.7702 LP  0  0  0  0  0  0  0  0  0  0  0  0  # atno 4307 bound_to 3712
    1.8726  -19.6383    8.4030 LP  0  0  0  0  0  0  0  0  0  0  0  0  # atno 4314 bound_to 3832
    3.1283  -20.6718    8.5508 LP  0  0  0  0  0  0  0  0  0  0  0  0  # atno 4315 bound_to 3832
   -4.8325  -21.9748   11.5285 LP  0  0  0  0  0  0  0  0  0  0  0  0  # atno 4318 bound_to 3762
   -3.9613  -23.1983   10.8875 LP  0  0  0  0  0  0  0  0  0  0  0  0  # atno 4319 bound_to 3762
   -5.3539   -5.3837    9.0092 LP  0  0  0  0  0  0  0  0  0  0  0  0  # atno 4320 bound_to 2467
   -4.6302   -4.8175    7.6592 LP  0  0  0  0  0  0  0  0  0  0  0  0  # atno 4321 bound_to 2467

> <Gold.Score>
     Score     S(PLP)   S(hbond)     S(cho)   S(metal)  DE(clash)   DE(tors)     intcor
     45.68     -43.41       0.98       0.00       0.00       0.00       0.63       0.61

> <Gold.PLP.Fitness>
45.6761

> <Gold.PLP.PLP>
-43.4140

> <Gold.PLP.part.hbond>
-1.0000

> <Gold.PLP.part.metal>
0.0000

> <Gold.PLP.part.buried>
-2.2560

> <Gold.PLP.part.nonpolar>
-41.4757

> <Gold.PLP.part.repulsive>
0.4756

> <Gold.PLP.ligand.clash>
0.0014

> <Gold.PLP.ligand.torsion>
0.6348

> <Gold.PLP.Chemscore.Hbond>
0.9750

> <Gold.PLP.Chemscore.CHOScore>
0.0000

> <Gold.PLP.Chemscore.Metal>
0.0000

> <Gold.Chemscore.Hbonds>
donor molecule, donor type, donor heavy atom, donor atom, acceptor molecule, acceptor atom, score
      P1  H  2456  2461       L1    18  0.98

> <Gold.PLP.Chemscore.Internal.Correction>
0.6079

