#       Name:                EN300-26978906_i004
#       Creating user name   fsindt
#       Creation time:       Wed Mar  1 05:43:12 2023


#       File generated by GOLD software.
#

@<TRIPOS>MOLECULE
EN300-26978906_i004|acide_1|mol2|6892|dock18
    41    41     1
SMALL
USER_CHARGES


@<TRIPOS>ATOM
      1 C1           1.1915 -13.1623   7.2228 C.3            1 <1>                0.0000
      2 O2           1.7064 -14.1142   8.1559 O.3            1 <1>                0.0000
      3 C3           1.4297 -13.7977   9.5216 C.3            1 <1>                0.0000
      4 C4           0.2056 -14.5870   9.9902 C.3            1 <1>                0.0000
      5 C5          -0.8061 -14.7041   8.8483 C.3            1 <1>                0.0000
      6 C6           0.6354 -15.9939  10.4567 C.3            1 <1>                0.0000
      7 C7           0.7477 -15.8303  11.9957 C.3            1 <1>                0.0000
      8 C8          -0.4086 -14.8421  12.2885 C.3            1 <1>                0.0000
      9 N9          -0.4140 -13.9125  11.1402 N.am           1 <1>                0.0000
     10 C10         -0.9025 -12.6565  11.1486 C.2            1 <1>                0.0000
     11 O11         -1.3919 -12.2018  12.1637 O.2            1 <1>                0.0000
     12 O12         -0.8483 -11.9055  10.0324 O.3            1 <1>                0.0000
     13 C13         -1.6607 -10.7023  10.0074 C.3            1 <1>                0.0000
     14 C14         -1.6000 -10.0750   8.6133 C.3            1 <1>                0.0000
     15 C15         -3.1101 -11.0584  10.3438 C.3            1 <1>                0.0000
     16 C16         -1.1278  -9.7057  11.0388 C.3            1 <1>                0.0000
     17 C17          0.5246 -17.1458  12.6963 C.2            1 <1>                0.0000
     18 O18         -0.5447 -17.3759  13.2349 O.co2          1 <1>                0.0000
     19 O19          1.4133 -17.9799  12.7245 O.co2          1 <1>               -1.0000
     20 H20          0.1081 -13.1020   7.3259 H              1 <1>                0.0000
     21 H21          1.6303 -12.1846   7.4216 H              1 <1>                0.0000
     22 H22          1.4432 -13.4742   6.2092 H              1 <1>                0.0000
     23 H23          2.2897 -14.0617  10.1372 H              1 <1>                0.0000
     24 H24          1.2308 -12.7300   9.6141 H              1 <1>                0.0000
     25 H25         -0.3495 -15.2318   8.0110 H              1 <1>                0.0000
     26 H26         -1.6803 -15.2564   9.1928 H              1 <1>                0.0000
     27 H27         -1.1091 -13.7072   8.5279 H              1 <1>                0.0000
     28 H28         -0.1237 -16.7334  10.2020 H              1 <1>                0.0000
     29 H29          1.5994 -16.2652  10.0264 H              1 <1>                0.0000
     30 H30          1.7097 -15.3996  12.2736 H              1 <1>                0.0000
     31 H31         -1.3575 -15.3752  12.3478 H              1 <1>                0.0000
     32 H32         -0.2186 -14.2998  13.2149 H              1 <1>                0.0000
     33 H33         -1.9796 -10.7849   7.8785 H              1 <1>                0.0000
     34 H34         -2.2098  -9.1717   8.5945 H              1 <1>                0.0000
     35 H35         -0.5674  -9.8212   8.3736 H              1 <1>                0.0000
     36 H36         -3.1533 -11.5054  11.3370 H              1 <1>                0.0000
     37 H37         -3.7199 -10.1551  10.3250 H              1 <1>                0.0000
     38 H38         -3.4897 -11.7684   9.6090 H              1 <1>                0.0000
     39 H39         -0.0951  -9.4519  10.7991 H              1 <1>                0.0000
     40 H40         -1.7376  -8.8024  11.0199 H              1 <1>                0.0000
     41 H41         -1.1710 -10.1526  12.0320 H              1 <1>                0.0000
@<TRIPOS>BOND
    1    1    2 1     
    2    1   20 1     
    3    1   21 1     
    4    1   22 1     
    5    2    3 1     
    6    3    4 1     
    7    3   23 1     
    8    3   24 1     
    9    4    5 1     
   10    4    6 1     
   11    4    9 1     
   12    5   25 1     
   13    5   26 1     
   14    5   27 1     
   15    6    7 1     
   16    6   28 1     
   17    6   29 1     
   18    7    8 1     
   19    7   17 1     
   20    7   30 1     
   21    8    9 1     
   22    8   31 1     
   23    8   32 1     
   24    9   10 am    
   25   10   11 2     
   26   10   12 1     
   27   12   13 1     
   28   13   14 1     
   29   13   15 1     
   30   13   16 1     
   31   14   33 1     
   32   14   34 1     
   33   14   35 1     
   34   15   36 1     
   35   15   37 1     
   36   15   38 1     
   37   16   39 1     
   38   16   40 1     
   39   16   41 1     
   40   17   18 ar    
   41   17   19 ar    
@<TRIPOS>SUBSTRUCTURE
      1 ****           1
@<TRIPOS>COMMENT
> <Gold.Version>
2022.2.0

> <Gold.Id.Protein>
3pbl|protein|mol2

> <Gold.Protein.RotatedTorsions>
[ 1303 1298 1297 1294 ] final   40.96 input  179.99 | X-H torsion
[ 2461 2456 2455 2452 ] final   73.99 input   30.03 | X-H torsion
[ 2515 2510 2509 2506 ] final  -39.73 input  -89.99 | X-H torsion
[ 3721 3712 3711 3710 ] final   49.74 input -179.91 | X-H torsion
[ 3841 3832 3831 3830 ] final  -80.16 input -179.91 | X-H torsion
[ 3767 3762 3761 3758 ] final  -89.71 input  -89.99 | X-H torsion
[ 2472 2467 2466 2463 ] final   99.17 input  -89.97 | X-H torsion

> <Gold.Protein.ActiveResidues>
 VAL82   VAL86   LEU89   PHE106  VAL107  ASP110  VAL111  MET112  CYS114  THR115 
 CYS181  SER182  ILE183  PHE188  VAL189  ILE190  SER192  SER193  SER196  TRP342 
 PHE345  PHE346  HIS349  VAL350  TYR365  THR369  GLY372  TYR373 

> <Gold.Protein.RotatedAtoms>
    3.7587  -10.2400    4.4489 H   0  0  0  0  0  0  0  0  0  0  0  0  # atno 1303 bound_to 1298
    2.0471   -8.1399    7.5334 H   0  0  0  0  0  0  0  0  0  0  0  0  # atno 2461 bound_to 2456
   -5.2178   -4.9626    7.8802 H   0  0  0  0  0  0  0  0  0  0  0  0  # atno 2472 bound_to 2467
    2.7643   -8.1746    4.3574 H   0  0  0  0  0  0  0  0  0  0  0  0  # atno 2515 bound_to 2510
   -2.5426  -17.9722   13.5161 H   0  0  0  0  0  0  0  0  0  0  0  0  # atno 3721 bound_to 3712
   -5.2280  -21.9205   11.2086 H   0  0  0  0  0  0  0  0  0  0  0  0  # atno 3767 bound_to 3762
    1.7551  -19.6621    8.8088 H   0  0  0  0  0  0  0  0  0  0  0  0  # atno 3841 bound_to 3832
    3.6924   -8.7352    3.8182 LP  0  0  0  0  0  0  0  0  0  0  0  0  # atno 4297 bound_to 1298
    4.9112   -9.1458    4.8245 LP  0  0  0  0  0  0  0  0  0  0  0  0  # atno 4298 bound_to 1298
    0.4618   -8.3955    7.2353 LP  0  0  0  0  0  0  0  0  0  0  0  0  # atno 4299 bound_to 2456
    1.2291   -9.2726    8.3793 LP  0  0  0  0  0  0  0  0  0  0  0  0  # atno 4300 bound_to 2456
    2.4650   -9.2013    5.5912 LP  0  0  0  0  0  0  0  0  0  0  0  0  # atno 4301 bound_to 2510
    2.0673   -7.6233    5.7271 LP  0  0  0  0  0  0  0  0  0  0  0  0  # atno 4302 bound_to 2510
   -3.0692  -17.2709   14.8610 LP  0  0  0  0  0  0  0  0  0  0  0  0  # atno 4306 bound_to 3712
   -3.5230  -16.7062   13.3975 LP  0  0  0  0  0  0  0  0  0  0  0  0  # atno 4307 bound_to 3712
    3.0885  -20.4380    8.3662 LP  0  0  0  0  0  0  0  0  0  0  0  0  # atno 4314 bound_to 3832
    2.1135  -21.0546    9.5220 LP  0  0  0  0  0  0  0  0  0  0  0  0  # atno 4315 bound_to 3832
   -3.9202  -22.8944   11.2972 LP  0  0  0  0  0  0  0  0  0  0  0  0  # atno 4318 bound_to 3762
   -4.9794  -23.0599   10.0654 LP  0  0  0  0  0  0  0  0  0  0  0  0  # atno 4319 bound_to 3762
   -3.6605   -4.9675    8.3713 LP  0  0  0  0  0  0  0  0  0  0  0  0  # atno 4320 bound_to 2467
   -4.8387   -5.4634    9.3875 LP  0  0  0  0  0  0  0  0  0  0  0  0  # atno 4321 bound_to 2467

> <Gold.Score>
     Score     S(PLP)   S(hbond)     S(cho)   S(metal)  DE(clash)   DE(tors)     intcor
     39.86     -39.71       0.67       0.00       0.00       0.00       1.18       0.49

> <Gold.PLP.Fitness>
39.8551

> <Gold.PLP.PLP>
-39.7131

> <Gold.PLP.part.hbond>
-2.0000

> <Gold.PLP.part.metal>
0.0000

> <Gold.PLP.part.buried>
-1.3830

> <Gold.PLP.part.nonpolar>
-38.1977

> <Gold.PLP.part.repulsive>
0.3739

> <Gold.PLP.ligand.clash>
0.0000

> <Gold.PLP.ligand.torsion>
1.1750

> <Gold.PLP.Chemscore.Hbond>
0.6661

> <Gold.PLP.Chemscore.CHOScore>
0.0000

> <Gold.PLP.Chemscore.Metal>
0.0000

> <Gold.Chemscore.Hbonds>
donor molecule, donor type, donor heavy atom, donor atom, acceptor molecule, acceptor atom, score
      P1  H  3712  3721       L1    18  0.67

> <Gold.PLP.Chemscore.Internal.Correction>
0.4937

