#       Name:                EN300-26978906_i004
#       Creating user name   fsindt
#       Creation time:       Wed Mar  1 05:43:14 2023


#       File generated by GOLD software.
#

@<TRIPOS>MOLECULE
EN300-26978906_i004|acide_1|mol2|6892|dock19
    41    41     1
SMALL
USER_CHARGES


@<TRIPOS>ATOM
      1 C1          -0.9988 -18.3159   9.4245 C.3            1 <1>                0.0000
      2 O2          -0.3047 -19.4809   9.8750 O.3            1 <1>                0.0000
      3 C3          -0.6815 -19.9121  11.1842 C.3            1 <1>                0.0000
      4 C4           0.3535 -19.4236  12.1997 C.3            1 <1>                0.0000
      5 C5           1.6714 -20.1755  12.0018 C.3            1 <1>                0.0000
      6 C6           0.5834 -17.9074  12.0268 C.3            1 <1>                0.0000
      7 C7          -0.3356 -17.2905  13.1142 C.3            1 <1>                0.0000
      8 C8          -0.2138 -18.3338  14.2527 C.3            1 <1>                0.0000
      9 N9          -0.1454 -19.6399  13.5655 N.am           1 <1>                0.0000
     10 C10         -0.4868 -20.8284  14.1017 C.2            1 <1>                0.0000
     11 O11         -0.8914 -20.8848  15.2460 O.2            1 <1>                0.0000
     12 O12         -0.3796 -21.9530  13.3693 O.3            1 <1>                0.0000
     13 C13         -1.2728 -23.0470  13.7065 C.3            1 <1>                0.0000
     14 C14         -1.2925 -24.0610  12.5611 C.3            1 <1>                0.0000
     15 C15         -0.7821 -23.7305  14.9844 C.3            1 <1>                0.0000
     16 C16         -2.6849 -22.5020  13.9297 C.3            1 <1>                0.0000
     17 C17          0.1794 -15.9452  13.5569 C.2            1 <1>                0.0000
     18 O18          0.2019 -15.0127  12.7719 O.co2          1 <1>                0.0000
     19 O19          0.5735 -15.7893  14.7001 O.co2          1 <1>               -1.0000
     20 H20         -2.0697 -18.5174   9.4010 H              1 <1>                0.0000
     21 H21         -0.7997 -17.4883  10.1053 H              1 <1>                0.0000
     22 H22         -0.6564 -18.0533   8.4235 H              1 <1>                0.0000
     23 H23         -1.6591 -19.5003  11.4351 H              1 <1>                0.0000
     24 H24         -0.7287 -21.0008  11.2086 H              1 <1>                0.0000
     25 H25          2.0505 -19.9861  10.9976 H              1 <1>                0.0000
     26 H26          2.3996 -19.8314  12.7362 H              1 <1>                0.0000
     27 H27          1.5025 -21.2446  12.1308 H              1 <1>                0.0000
     28 H28          1.6264 -17.6517  12.2130 H              1 <1>                0.0000
     29 H29          0.2768 -17.5817  11.0328 H              1 <1>                0.0000
     30 H30         -1.3640 -17.2164  12.7606 H              1 <1>                0.0000
     31 H31          0.6953 -18.1620  14.8292 H              1 <1>                0.0000
     32 H32         -1.0888 -18.2915  14.9013 H              1 <1>                0.0000
     33 H33         -0.2865 -24.4492  12.4021 H              1 <1>                0.0000
     34 H34         -1.9630 -24.8822  12.8142 H              1 <1>                0.0000
     35 H35         -1.6421 -23.5741  11.6506 H              1 <1>                0.0000
     36 H36         -0.7680 -23.0081  15.8005 H              1 <1>                0.0000
     37 H37         -1.4527 -24.5517  15.2376 H              1 <1>                0.0000
     38 H38          0.2239 -24.1187  14.8254 H              1 <1>                0.0000
     39 H39         -3.0345 -22.0150  13.0192 H              1 <1>                0.0000
     40 H40         -3.3555 -23.3232  14.1828 H              1 <1>                0.0000
     41 H41         -2.6709 -21.7797  14.7457 H              1 <1>                0.0000
@<TRIPOS>BOND
    1    1    2 1     
    2    1   20 1     
    3    1   21 1     
    4    1   22 1     
    5    2    3 1     
    6    3    4 1     
    7    3   23 1     
    8    3   24 1     
    9    4    5 1     
   10    4    6 1     
   11    4    9 1     
   12    5   25 1     
   13    5   26 1     
   14    5   27 1     
   15    6    7 1     
   16    6   28 1     
   17    6   29 1     
   18    7    8 1     
   19    7   17 1     
   20    7   30 1     
   21    8    9 1     
   22    8   31 1     
   23    8   32 1     
   24    9   10 am    
   25   10   11 2     
   26   10   12 1     
   27   12   13 1     
   28   13   14 1     
   29   13   15 1     
   30   13   16 1     
   31   14   33 1     
   32   14   34 1     
   33   14   35 1     
   34   15   36 1     
   35   15   37 1     
   36   15   38 1     
   37   16   39 1     
   38   16   40 1     
   39   16   41 1     
   40   17   18 ar    
   41   17   19 ar    
@<TRIPOS>SUBSTRUCTURE
      1 ****           1
@<TRIPOS>COMMENT
> <Gold.Version>
2022.2.0

> <Gold.Id.Protein>
3pbl|protein|mol2

> <Gold.Protein.RotatedTorsions>
[ 1303 1298 1297 1294 ] final  -19.27 input  179.99 | X-H torsion
[ 2461 2456 2455 2452 ] final -107.34 input   30.03 | X-H torsion
[ 2515 2510 2509 2506 ] final  -92.01 input  -89.99 | X-H torsion
[ 3721 3712 3711 3710 ] final   46.86 input -179.91 | X-H torsion
[ 3841 3832 3831 3830 ] final  -36.33 input -179.91 | X-H torsion
[ 3767 3762 3761 3758 ] final  -43.91 input  -89.99 | X-H torsion
[ 2472 2467 2466 2463 ] final  139.23 input  -89.97 | X-H torsion

> <Gold.Protein.ActiveResidues>
 VAL82   VAL86   LEU89   PHE106  VAL107  ASP110  VAL111  MET112  CYS114  THR115 
 CYS181  SER182  ILE183  PHE188  VAL189  ILE190  SER192  SER193  SER196  TRP342 
 PHE345  PHE346  HIS349  VAL350  TYR365  THR369  GLY372  TYR373 

> <Gold.Protein.RotatedAtoms>
    3.3302   -9.5981    3.9020 H   0  0  0  0  0  0  0  0  0  0  0  0  # atno 1303 bound_to 1298
    0.4552   -9.0770    7.9139 H   0  0  0  0  0  0  0  0  0  0  0  0  # atno 2461 bound_to 2456
   -5.5041   -5.1865    8.4141 H   0  0  0  0  0  0  0  0  0  0  0  0  # atno 2472 bound_to 2467
    2.8169   -8.9565    4.6322 H   0  0  0  0  0  0  0  0  0  0  0  0  # atno 2515 bound_to 2510
   -2.5310  -17.9864   13.5556 H   0  0  0  0  0  0  0  0  0  0  0  0  # atno 3721 bound_to 3712
   -5.5093  -22.2022   10.5921 H   0  0  0  0  0  0  0  0  0  0  0  0  # atno 3767 bound_to 3762
    1.5621  -20.0572    9.2821 H   0  0  0  0  0  0  0  0  0  0  0  0  # atno 3841 bound_to 3832
    4.4855   -8.5083    4.2813 LP  0  0  0  0  0  0  0  0  0  0  0  0  # atno 4297 bound_to 1298
    4.5467  -10.0148    4.9084 LP  0  0  0  0  0  0  0  0  0  0  0  0  # atno 4298 bound_to 1298
    2.0408   -8.7948    8.1853 LP  0  0  0  0  0  0  0  0  0  0  0  0  # atno 4299 bound_to 2456
    1.2416   -7.9365    7.0490 LP  0  0  0  0  0  0  0  0  0  0  0  0  # atno 4300 bound_to 2456
    2.1340   -8.6124    6.0747 LP  0  0  0  0  0  0  0  0  0  0  0  0  # atno 4301 bound_to 2510
    2.3456   -7.4299    4.9686 LP  0  0  0  0  0  0  0  0  0  0  0  0  # atno 4302 bound_to 2510
   -3.0934  -17.2297   14.8552 LP  0  0  0  0  0  0  0  0  0  0  0  0  # atno 4306 bound_to 3712
   -3.5122  -16.7311   13.3577 LP  0  0  0  0  0  0  0  0  0  0  0  0  # atno 4307 bound_to 3712
    2.6774  -19.8997    8.1387 LP  0  0  0  0  0  0  0  0  0  0  0  0  # atno 4314 bound_to 3832
    2.7475  -21.1365    9.2027 LP  0  0  0  0  0  0  0  0  0  0  0  0  # atno 4315 bound_to 3832
   -4.2622  -22.3415   11.6372 LP  0  0  0  0  0  0  0  0  0  0  0  0  # atno 4318 bound_to 3762
   -4.3562  -23.3312   10.3417 LP  0  0  0  0  0  0  0  0  0  0  0  0  # atno 4319 bound_to 3762
   -4.0154   -4.8196    7.8524 LP  0  0  0  0  0  0  0  0  0  0  0  0  # atno 4320 bound_to 2467
   -4.1975   -5.3875    9.3726 LP  0  0  0  0  0  0  0  0  0  0  0  0  # atno 4321 bound_to 2467

> <Gold.Score>
     Score     S(PLP)   S(hbond)     S(cho)   S(metal)  DE(clash)   DE(tors)     intcor
     40.60     -36.03       1.98       0.00       0.00       0.00       0.93       0.49

> <Gold.PLP.Fitness>
40.5991

> <Gold.PLP.PLP>
-36.0319

> <Gold.PLP.part.hbond>
-2.0000

> <Gold.PLP.part.metal>
0.0000

> <Gold.PLP.part.buried>
-3.3366

> <Gold.PLP.part.nonpolar>
-31.2063

> <Gold.PLP.part.repulsive>
0.2095

> <Gold.PLP.ligand.clash>
0.0000

> <Gold.PLP.ligand.torsion>
0.9273

> <Gold.PLP.Chemscore.Hbond>
1.9760

> <Gold.PLP.Chemscore.CHOScore>
0.0000

> <Gold.PLP.Chemscore.Metal>
0.0000

> <Gold.Chemscore.Hbonds>
donor molecule, donor type, donor heavy atom, donor atom, acceptor molecule, acceptor atom, score
      P1  H  2305  2313       L1    19  1.00
      P1  H  3832  3841       L1     2  0.98

> <Gold.PLP.Chemscore.Internal.Correction>
0.4937

