#       Name:                EN300-26978906_i004
#       Creating user name   fsindt
#       Creation time:       Wed Mar  1 05:42:53 2023


#       File generated by GOLD software.
#

@<TRIPOS>MOLECULE
EN300-26978906_i004|acide_1|mol2|6892|dock4
    41    41     1
SMALL
USER_CHARGES


@<TRIPOS>ATOM
      1 C1           0.2043 -16.1259   7.7996 C.3            1 <1>                0.0000
      2 O2           0.6423 -14.7665   7.8432 O.3            1 <1>                0.0000
      3 C3          -0.4191 -13.8173   7.9632 C.3            1 <1>                0.0000
      4 C4          -0.0884 -12.8202   9.0756 C.3            1 <1>                0.0000
      5 C5           1.4121 -12.5208   9.0765 C.3            1 <1>                0.0000
      6 C6          -0.8839 -11.5148   8.8639 C.3            1 <1>                0.0000
      7 C7          -2.1075 -11.6979   9.8003 C.3            1 <1>                0.0000
      8 C8          -1.4762 -12.4612  10.9913 C.3            1 <1>                0.0000
      9 N9          -0.4888 -13.3730  10.3777 N.am           1 <1>                0.0000
     10 C10         -0.0353 -14.5201  10.9209 C.2            1 <1>                0.0000
     11 O11          0.7804 -15.1942  10.3235 O.2            1 <1>                0.0000
     12 O12         -0.4859 -14.9190  12.1252 O.3            1 <1>                0.0000
     13 C13          0.2509 -15.9815  12.7859 C.3            1 <1>                0.0000
     14 C14          0.1044 -17.2774  11.9860 C.3            1 <1>                0.0000
     15 C15          1.7300 -15.5995  12.8716 C.3            1 <1>                0.0000
     16 C16         -0.3053 -16.1871  14.1963 C.3            1 <1>                0.0000
     17 C17         -2.6539 -10.3647  10.2418 C.2            1 <1>                0.0000
     18 O18         -1.9312  -9.5709  10.8197 O.co2          1 <1>                0.0000
     19 O19         -3.8187 -10.0798  10.0210 O.co2          1 <1>               -1.0000
     20 H20         -0.3369 -16.3627   8.7156 H              1 <1>                0.0000
     21 H21         -0.4531 -16.2686   6.9420 H              1 <1>                0.0000
     22 H22          1.0688 -16.7835   7.7081 H              1 <1>                0.0000
     23 H23         -0.5376 -13.2835   7.0202 H              1 <1>                0.0000
     24 H24         -1.3460 -14.3374   8.2052 H              1 <1>                0.0000
     25 H25          1.6959 -12.0834   8.1193 H              1 <1>                0.0000
     26 H26          1.6421 -11.8199   9.8789 H              1 <1>                0.0000
     27 H27          1.9670 -13.4461   9.2320 H              1 <1>                0.0000
     28 H28         -0.2932 -10.6500   9.1659 H              1 <1>                0.0000
     29 H29         -1.2032 -11.4218   7.8259 H              1 <1>                0.0000
     30 H30         -2.8816 -12.2958   9.3193 H              1 <1>                0.0000
     31 H31         -0.9791 -11.7654  11.6673 H              1 <1>                0.0000
     32 H32         -2.2383 -13.0300  11.5241 H              1 <1>                0.0000
     33 H33          0.5006 -17.1310  10.9812 H              1 <1>                0.0000
     34 H34          0.6574 -18.0751  12.4819 H              1 <1>                0.0000
     35 H35         -0.9494 -17.5497  11.9249 H              1 <1>                0.0000
     36 H36          1.8343 -14.6762  13.4415 H              1 <1>                0.0000
     37 H37          2.2830 -16.3972  13.3676 H              1 <1>                0.0000
     38 H38          2.1261 -15.4531  11.8668 H              1 <1>                0.0000
     39 H39         -1.3591 -16.4593  14.1352 H              1 <1>                0.0000
     40 H40          0.2477 -16.9847  14.6923 H              1 <1>                0.0000
     41 H41         -0.2010 -15.2639  14.7662 H              1 <1>                0.0000
@<TRIPOS>BOND
    1    1    2 1     
    2    1   20 1     
    3    1   21 1     
    4    1   22 1     
    5    2    3 1     
    6    3    4 1     
    7    3   23 1     
    8    3   24 1     
    9    4    5 1     
   10    4    6 1     
   11    4    9 1     
   12    5   25 1     
   13    5   26 1     
   14    5   27 1     
   15    6    7 1     
   16    6   28 1     
   17    6   29 1     
   18    7    8 1     
   19    7   17 1     
   20    7   30 1     
   21    8    9 1     
   22    8   31 1     
   23    8   32 1     
   24    9   10 am    
   25   10   11 2     
   26   10   12 1     
   27   12   13 1     
   28   13   14 1     
   29   13   15 1     
   30   13   16 1     
   31   14   33 1     
   32   14   34 1     
   33   14   35 1     
   34   15   36 1     
   35   15   37 1     
   36   15   38 1     
   37   16   39 1     
   38   16   40 1     
   39   16   41 1     
   40   17   18 ar    
   41   17   19 ar    
@<TRIPOS>SUBSTRUCTURE
      1 ****           1
@<TRIPOS>COMMENT
> <Gold.Version>
2022.2.0

> <Gold.Id.Protein>
3pbl|protein|mol2

> <Gold.Protein.RotatedTorsions>
[ 1303 1298 1297 1294 ] final   26.14 input  179.99 | X-H torsion
[ 2461 2456 2455 2452 ] final  121.96 input   30.03 | X-H torsion
[ 2515 2510 2509 2506 ] final  112.42 input  -89.99 | X-H torsion
[ 3721 3712 3711 3710 ] final  -55.61 input -179.91 | X-H torsion
[ 3841 3832 3831 3830 ] final   93.41 input -179.91 | X-H torsion
[ 3767 3762 3761 3758 ] final  149.00 input  -89.99 | X-H torsion
[ 2472 2467 2466 2463 ] final   83.60 input  -89.97 | X-H torsion

> <Gold.Protein.ActiveResidues>
 VAL82   VAL86   LEU89   PHE106  VAL107  ASP110  VAL111  MET112  CYS114  THR115 
 CYS181  SER182  ILE183  PHE188  VAL189  ILE190  SER192  SER193  SER196  TRP342 
 PHE345  PHE346  HIS349  VAL350  TYR365  THR369  GLY372  TYR373 

> <Gold.Protein.RotatedAtoms>
    3.5909  -10.1506    4.2975 H   0  0  0  0  0  0  0  0  0  0  0  0  # atno 1303 bound_to 1298
    2.1115   -8.6692    8.0846 H   0  0  0  0  0  0  0  0  0  0  0  0  # atno 2461 bound_to 2456
   -5.0115   -4.8920    7.7471 H   0  0  0  0  0  0  0  0  0  0  0  0  # atno 2472 bound_to 2467
    2.0317   -8.0477    6.0290 H   0  0  0  0  0  0  0  0  0  0  0  0  # atno 2515 bound_to 2510
   -2.7680  -17.3883   14.7433 H   0  0  0  0  0  0  0  0  0  0  0  0  # atno 3721 bound_to 3712
   -3.9166  -22.9087   11.2819 H   0  0  0  0  0  0  0  0  0  0  0  0  # atno 3767 bound_to 3762
    2.8778  -20.9075    9.2287 H   0  0  0  0  0  0  0  0  0  0  0  0  # atno 3841 bound_to 3832
    3.8767   -8.5949    3.8919 LP  0  0  0  0  0  0  0  0  0  0  0  0  # atno 4297 bound_to 1298
    4.8947   -9.3756    4.9022 LP  0  0  0  0  0  0  0  0  0  0  0  0  # atno 4298 bound_to 1298
    1.0717   -7.9783    7.0315 LP  0  0  0  0  0  0  0  0  0  0  0  0  # atno 4299 bound_to 2456
    0.5549   -9.1607    8.0322 LP  0  0  0  0  0  0  0  0  0  0  0  0  # atno 4300 bound_to 2456
    2.5911   -7.7140    4.5319 LP  0  0  0  0  0  0  0  0  0  0  0  0  # atno 4301 bound_to 2510
    2.6741   -9.2375    5.1139 LP  0  0  0  0  0  0  0  0  0  0  0  0  # atno 4302 bound_to 2510
   -3.5549  -16.6236   13.5712 LP  0  0  0  0  0  0  0  0  0  0  0  0  # atno 4306 bound_to 3712
   -2.7771  -18.0276   13.2705 LP  0  0  0  0  0  0  0  0  0  0  0  0  # atno 4307 bound_to 3712
    1.4054  -20.2692    9.2571 LP  0  0  0  0  0  0  0  0  0  0  0  0  # atno 4314 bound_to 3832
    2.4996  -19.7848    8.1459 LP  0  0  0  0  0  0  0  0  0  0  0  0  # atno 4315 bound_to 3832
   -4.9962  -23.0473   10.0645 LP  0  0  0  0  0  0  0  0  0  0  0  0  # atno 4318 bound_to 3762
   -5.2143  -21.9191   11.2248 LP  0  0  0  0  0  0  0  0  0  0  0  0  # atno 4319 bound_to 3762
   -3.6352   -5.0512    8.6114 LP  0  0  0  0  0  0  0  0  0  0  0  0  # atno 4320 bound_to 2467
   -5.0703   -5.4503    9.2805 LP  0  0  0  0  0  0  0  0  0  0  0  0  # atno 4321 bound_to 2467

> <Gold.Score>
     Score     S(PLP)   S(hbond)     S(cho)   S(metal)  DE(clash)   DE(tors)     intcor
     47.90     -49.21       0.00       0.00       0.00       0.04       0.94       0.61

> <Gold.PLP.Fitness>
47.9046

> <Gold.PLP.PLP>
-49.2054

> <Gold.PLP.part.hbond>
0.0000

> <Gold.PLP.part.metal>
0.0000

> <Gold.PLP.part.buried>
-7.6954

> <Gold.PLP.part.nonpolar>
-44.1353

> <Gold.PLP.part.repulsive>
1.3205

> <Gold.PLP.ligand.clash>
0.0360

> <Gold.PLP.ligand.torsion>
0.9363

> <Gold.PLP.Chemscore.Hbond>
0.0000

> <Gold.PLP.Chemscore.CHOScore>
0.0000

> <Gold.PLP.Chemscore.Metal>
0.0000

> <Gold.PLP.Chemscore.Internal.Correction>
0.6079

