#       Name:                EN300-26978906_i004
#       Creating user name   fsindt
#       Creation time:       Wed Mar  1 05:42:58 2023


#       File generated by GOLD software.
#

@<TRIPOS>MOLECULE
EN300-26978906_i004|acide_1|mol2|6892|dock8
    41    41     1
SMALL
USER_CHARGES


@<TRIPOS>ATOM
      1 C1          -0.6457 -17.5268   8.4005 C.3            1 <1>                0.0000
      2 O2           0.1582 -16.3836   8.1023 O.3            1 <1>                0.0000
      3 C3          -0.5658 -15.1517   8.0876 C.3            1 <1>                0.0000
      4 C4           0.1959 -14.1028   8.9003 C.3            1 <1>                0.0000
      5 C5           1.7009 -14.2630   8.6759 C.3            1 <1>                0.0000
      6 C6          -0.2498 -12.6868   8.4784 C.3            1 <1>                0.0000
      7 C7          -1.3061 -12.3201   9.5542 C.3            1 <1>                0.0000
      8 C8          -0.7114 -12.9932  10.8162 C.3            1 <1>                0.0000
      9 N9          -0.1156 -14.2544  10.3291 N.am           1 <1>                0.0000
     10 C10          0.1018 -15.3584  11.0709 C.2            1 <1>                0.0000
     11 O11          0.5999 -16.3434  10.5628 O.2            1 <1>                0.0000
     12 O12         -0.2328 -15.3699  12.3750 O.3            1 <1>                0.0000
     13 C13          0.2981 -16.4536  13.1823 C.3            1 <1>                0.0000
     14 C14          1.8186 -16.5111  13.0225 C.3            1 <1>                0.0000
     15 C15         -0.0514 -16.2132  14.6523 C.3            1 <1>                0.0000
     16 C16         -0.3134 -17.7787  12.7229 C.3            1 <1>                0.0000
     17 C17         -1.3999 -10.8265   9.7320 C.2            1 <1>                0.0000
     18 O18         -2.0766 -10.3613  10.6331 O.co2          1 <1>                0.0000
     19 O19         -0.7991 -10.0835   8.9748 O.co2          1 <1>               -1.0000
     20 H20         -1.0966 -17.4069   9.3856 H              1 <1>                0.0000
     21 H21         -1.4310 -17.6243   7.6509 H              1 <1>                0.0000
     22 H22         -0.0228 -18.4212   8.3925 H              1 <1>                0.0000
     23 H23         -0.6743 -14.8063   7.0594 H              1 <1>                0.0000
     24 H24         -1.5522 -15.3047   8.5254 H              1 <1>                0.0000
     25 H25          1.9280 -14.1193   7.6195 H              1 <1>                0.0000
     26 H26          2.2373 -13.5210   9.2672 H              1 <1>                0.0000
     27 H27          2.0092 -15.2630   8.9811 H              1 <1>                0.0000
     28 H28          0.5900 -11.9927   8.5102 H              1 <1>                0.0000
     29 H29         -0.7001 -12.7039   7.4860 H              1 <1>                0.0000
     30 H30         -2.2792 -12.7444   9.3069 H              1 <1>                0.0000
     31 H31          0.0566 -12.3586  11.2585 H              1 <1>                0.0000
     32 H32         -1.4978 -13.2004  11.5420 H              1 <1>                0.0000
     33 H33          2.2543 -15.5671  13.3498 H              1 <1>                0.0000
     34 H34          2.2172 -17.3247  13.6284 H              1 <1>                0.0000
     35 H35          2.0677 -16.6825  11.9752 H              1 <1>                0.0000
     36 H36         -1.1347 -16.1722  14.7662 H              1 <1>                0.0000
     37 H37          0.3472 -17.0268  15.2583 H              1 <1>                0.0000
     38 H38          0.3843 -15.2692  14.9796 H              1 <1>                0.0000
     39 H39         -0.0644 -17.9500  11.6755 H              1 <1>                0.0000
     40 H40          0.0852 -18.5924  13.3288 H              1 <1>                0.0000
     41 H41         -1.3967 -17.7378  12.8368 H              1 <1>                0.0000
@<TRIPOS>BOND
    1    1    2 1     
    2    1   20 1     
    3    1   21 1     
    4    1   22 1     
    5    2    3 1     
    6    3    4 1     
    7    3   23 1     
    8    3   24 1     
    9    4    5 1     
   10    4    6 1     
   11    4    9 1     
   12    5   25 1     
   13    5   26 1     
   14    5   27 1     
   15    6    7 1     
   16    6   28 1     
   17    6   29 1     
   18    7    8 1     
   19    7   17 1     
   20    7   30 1     
   21    8    9 1     
   22    8   31 1     
   23    8   32 1     
   24    9   10 am    
   25   10   11 2     
   26   10   12 1     
   27   12   13 1     
   28   13   14 1     
   29   13   15 1     
   30   13   16 1     
   31   14   33 1     
   32   14   34 1     
   33   14   35 1     
   34   15   36 1     
   35   15   37 1     
   36   15   38 1     
   37   16   39 1     
   38   16   40 1     
   39   16   41 1     
   40   17   18 ar    
   41   17   19 ar    
@<TRIPOS>SUBSTRUCTURE
      1 ****           1
@<TRIPOS>COMMENT
> <Gold.Version>
2022.2.0

> <Gold.Id.Protein>
3pbl|protein|mol2

> <Gold.Protein.RotatedTorsions>
[ 1303 1298 1297 1294 ] final  159.74 input  179.99 | X-H torsion
[ 2461 2456 2455 2452 ] final -126.03 input   30.03 | X-H torsion
[ 2515 2510 2509 2506 ] final -158.29 input  -89.99 | X-H torsion
[ 3721 3712 3711 3710 ] final  -88.07 input -179.91 | X-H torsion
[ 3841 3832 3831 3830 ] final  119.54 input -179.91 | X-H torsion
[ 3767 3762 3761 3758 ] final -104.08 input  -89.99 | X-H torsion
[ 2472 2467 2466 2463 ] final  -77.02 input  -89.97 | X-H torsion

> <Gold.Protein.ActiveResidues>
 VAL82   VAL86   LEU89   PHE106  VAL107  ASP110  VAL111  MET112  CYS114  THR115 
 CYS181  SER182  ILE183  PHE188  VAL189  ILE190  SER192  SER193  SER196  TRP342 
 PHE345  PHE346  HIS349  VAL350  TYR365  THR369  GLY372  TYR373 

> <Gold.Protein.RotatedAtoms>
    4.9114   -9.1644    4.8325 H   0  0  0  0  0  0  0  0  0  0  0  0  # atno 1303 bound_to 1298
    0.6449   -9.2109    8.1138 H   0  0  0  0  0  0  0  0  0  0  0  0  # atno 2461 bound_to 2456
   -3.8830   -5.2813    9.1718 H   0  0  0  0  0  0  0  0  0  0  0  0  # atno 2472 bound_to 2467
    2.4753   -9.2087    5.5709 H   0  0  0  0  0  0  0  0  0  0  0  0  # atno 2515 bound_to 2510
   -3.0108  -16.9720   14.6963 H   0  0  0  0  0  0  0  0  0  0  0  0  # atno 3721 bound_to 3712
   -5.0599  -21.9188   11.3741 H   0  0  0  0  0  0  0  0  0  0  0  0  # atno 3767 bound_to 3762
    3.0790  -20.7291    8.9443 H   0  0  0  0  0  0  0  0  0  0  0  0  # atno 3841 bound_to 3832
    3.7439  -10.2350    4.4360 LP  0  0  0  0  0  0  0  0  0  0  0  0  # atno 4297 bound_to 1298
    3.7066   -8.7220    3.8229 LP  0  0  0  0  0  0  0  0  0  0  0  0  # atno 4298 bound_to 1298
    2.1443   -8.5736    8.0005 LP  0  0  0  0  0  0  0  0  0  0  0  0  # atno 4299 bound_to 2456
    0.9484   -8.0239    7.0339 LP  0  0  0  0  0  0  0  0  0  0  0  0  # atno 4300 bound_to 2456
    2.0631   -7.6384    5.7449 LP  0  0  0  0  0  0  0  0  0  0  0  0  # atno 4301 bound_to 2510
    2.7583   -8.1516    4.3593 LP  0  0  0  0  0  0  0  0  0  0  0  0  # atno 4302 bound_to 2510
   -3.4229  -16.9199   13.1454 LP  0  0  0  0  0  0  0  0  0  0  0  0  # atno 4306 bound_to 3712
   -2.6288  -18.2120   13.7506 LP  0  0  0  0  0  0  0  0  0  0  0  0  # atno 4307 bound_to 3712
    1.5656  -20.6130    9.4659 LP  0  0  0  0  0  0  0  0  0  0  0  0  # atno 4314 bound_to 3832
    2.1070  -19.6471    8.2657 LP  0  0  0  0  0  0  0  0  0  0  0  0  # atno 4315 bound_to 3832
   -3.9092  -23.0492   11.1196 LP  0  0  0  0  0  0  0  0  0  0  0  0  # atno 4318 bound_to 3762
   -5.1584  -22.9068   10.0776 LP  0  0  0  0  0  0  0  0  0  0  0  0  # atno 4319 bound_to 3762
   -5.4676   -5.3132    8.7789 LP  0  0  0  0  0  0  0  0  0  0  0  0  # atno 4320 bound_to 2467
   -4.3662   -4.7991    7.6885 LP  0  0  0  0  0  0  0  0  0  0  0  0  # atno 4321 bound_to 2467

> <Gold.Score>
     Score     S(PLP)   S(hbond)     S(cho)   S(metal)  DE(clash)   DE(tors)     intcor
     44.30     -42.61       0.99       0.00       0.00       0.02       0.92       0.58

> <Gold.PLP.Fitness>
44.3042

> <Gold.PLP.PLP>
-42.6118

> <Gold.PLP.part.hbond>
-1.0000

> <Gold.PLP.part.metal>
0.0000

> <Gold.PLP.part.buried>
-4.2984

> <Gold.PLP.part.nonpolar>
-42.6425

> <Gold.PLP.part.repulsive>
4.3282

> <Gold.PLP.ligand.clash>
0.0152

> <Gold.PLP.ligand.torsion>
0.9230

> <Gold.PLP.Chemscore.Hbond>
0.9920

> <Gold.PLP.Chemscore.CHOScore>
0.0000

> <Gold.PLP.Chemscore.Metal>
0.0000

> <Gold.Chemscore.Hbonds>
donor molecule, donor type, donor heavy atom, donor atom, acceptor molecule, acceptor atom, score
      P1  H  2456  2461       L1    19  0.99

> <Gold.PLP.Chemscore.Internal.Correction>
0.5776

