#       Name:                EN300-26978906_i004
#       Creating user name   fsindt
#       Creation time:       Wed Mar  1 05:42:57 2023


#       File generated by GOLD software.
#

@<TRIPOS>MOLECULE
EN300-26978906_i004|acide_1|mol2|6892|dock7
    41    41     1
SMALL
USER_CHARGES


@<TRIPOS>ATOM
      1 C1           0.7992 -12.3251   6.2662 C.3            1 <1>                0.0000
      2 O2           0.9187 -13.4875   7.0887 O.3            1 <1>                0.0000
      3 C3          -0.1523 -13.6530   8.0202 C.3            1 <1>                0.0000
      4 C4          -0.0436 -12.5911   9.1163 C.3            1 <1>                0.0000
      5 C5           1.3936 -12.0723   9.1972 C.3            1 <1>                0.0000
      6 C6          -1.0066 -11.4237   8.8135 C.3            1 <1>                0.0000
      7 C7          -2.2478 -11.7635   9.6803 C.3            1 <1>                0.0000
      8 C8          -1.5894 -12.3954  10.9320 C.3            1 <1>                0.0000
      9 N9          -0.4416 -13.1652  10.4099 N.am           1 <1>                0.0000
     10 C10          0.1393 -14.2186  11.0175 C.2            1 <1>                0.0000
     11 O11          1.0817 -14.7786  10.4932 O.2            1 <1>                0.0000
     12 O12         -0.3245 -14.6506  12.2054 O.3            1 <1>                0.0000
     13 C13          0.2503 -15.8757  12.7315 C.3            1 <1>                0.0000
     14 C14         -0.4362 -16.2358  14.0506 C.3            1 <1>                0.0000
     15 C15          0.0456 -17.0089  11.7241 C.3            1 <1>                0.0000
     16 C16          1.7473 -15.6734  12.9743 C.3            1 <1>                0.0000
     17 C17         -3.0111 -10.5158  10.0431 C.2            1 <1>                0.0000
     18 O18         -2.4365  -9.5842  10.5799 O.co2          1 <1>                0.0000
     19 O19         -4.2033 -10.4380   9.7997 O.co2          1 <1>               -1.0000
     20 H20         -0.1234 -12.3821   5.6886 H              1 <1>                0.0000
     21 H21          0.7798 -11.4353   6.8952 H              1 <1>                0.0000
     22 H22          1.6502 -12.2716   5.5871 H              1 <1>                0.0000
     23 H23         -1.1049 -13.5438   7.5017 H              1 <1>                0.0000
     24 H24         -0.0941 -14.6449   8.4683 H              1 <1>                0.0000
     25 H25          1.6712 -11.6210   8.2447 H              1 <1>                0.0000
     26 H26          1.4662 -11.3256   9.9880 H              1 <1>                0.0000
     27 H27          2.0670 -12.9008   9.4168 H              1 <1>                0.0000
     28 H28         -0.5698 -10.4737   9.1211 H              1 <1>                0.0000
     29 H29         -1.2686 -11.4045   7.7556 H              1 <1>                0.0000
     30 H30         -2.8933 -12.4812   9.1740 H              1 <1>                0.0000
     31 H31         -1.2443 -11.6172  11.6129 H              1 <1>                0.0000
     32 H32         -2.2926 -13.0578  11.4369 H              1 <1>                0.0000
     33 H33         -1.5026 -16.3799  13.8777 H              1 <1>                0.0000
     34 H34         -0.0046 -17.1555  14.4456 H              1 <1>                0.0000
     35 H35         -0.2903 -15.4285  14.7684 H              1 <1>                0.0000
     36 H36          0.5346 -16.7523  10.7843 H              1 <1>                0.0000
     37 H37          0.4771 -17.9285  12.1191 H              1 <1>                0.0000
     38 H38         -1.0209 -17.1529  11.5512 H              1 <1>                0.0000
     39 H39          1.8932 -14.8661  13.6921 H              1 <1>                0.0000
     40 H40          2.1789 -16.5931  13.3693 H              1 <1>                0.0000
     41 H41          2.2364 -15.4169  12.0346 H              1 <1>                0.0000
@<TRIPOS>BOND
    1    1    2 1     
    2    1   20 1     
    3    1   21 1     
    4    1   22 1     
    5    2    3 1     
    6    3    4 1     
    7    3   23 1     
    8    3   24 1     
    9    4    5 1     
   10    4    6 1     
   11    4    9 1     
   12    5   25 1     
   13    5   26 1     
   14    5   27 1     
   15    6    7 1     
   16    6   28 1     
   17    6   29 1     
   18    7    8 1     
   19    7   17 1     
   20    7   30 1     
   21    8    9 1     
   22    8   31 1     
   23    8   32 1     
   24    9   10 am    
   25   10   11 2     
   26   10   12 1     
   27   12   13 1     
   28   13   14 1     
   29   13   15 1     
   30   13   16 1     
   31   14   33 1     
   32   14   34 1     
   33   14   35 1     
   34   15   36 1     
   35   15   37 1     
   36   15   38 1     
   37   16   39 1     
   38   16   40 1     
   39   16   41 1     
   40   17   18 ar    
   41   17   19 ar    
@<TRIPOS>SUBSTRUCTURE
      1 ****           1
@<TRIPOS>COMMENT
> <Gold.Version>
2022.2.0

> <Gold.Id.Protein>
3pbl|protein|mol2

> <Gold.Protein.RotatedTorsions>
[ 1303 1298 1297 1294 ] final   71.89 input  179.99 | X-H torsion
[ 2461 2456 2455 2452 ] final  -81.92 input   30.03 | X-H torsion
[ 2515 2510 2509 2506 ] final   64.67 input  -89.99 | X-H torsion
[ 3721 3712 3711 3710 ] final  141.69 input -179.91 | X-H torsion
[ 3841 3832 3831 3830 ] final   14.25 input -179.91 | X-H torsion
[ 3767 3762 3761 3758 ] final  104.61 input  -89.99 | X-H torsion
[ 2472 2467 2466 2463 ] final   79.13 input  -89.97 | X-H torsion

> <Gold.Protein.ActiveResidues>
 VAL82   VAL86   LEU89   PHE106  VAL107  ASP110  VAL111  MET112  CYS114  THR115 
 CYS181  SER182  ILE183  PHE188  VAL189  ILE190  SER192  SER193  SER196  TRP342 
 PHE345  PHE346  HIS349  VAL350  TYR365  THR369  GLY372  TYR373 

> <Gold.Protein.RotatedAtoms>
    4.1718  -10.2386    4.7354 H   0  0  0  0  0  0  0  0  0  0  0  0  # atno 1303 bound_to 1298
    0.3336   -8.8184    7.6131 H   0  0  0  0  0  0  0  0  0  0  0  0  # atno 2461 bound_to 2456
   -4.9456   -4.8748    7.7194 H   0  0  0  0  0  0  0  0  0  0  0  0  # atno 2472 bound_to 2467
    2.1275   -7.4903    5.5170 H   0  0  0  0  0  0  0  0  0  0  0  0  # atno 2515 bound_to 2510
   -3.1572  -16.9592   13.1316 H   0  0  0  0  0  0  0  0  0  0  0  0  # atno 3721 bound_to 3712
   -4.0545  -23.2834   10.6919 H   0  0  0  0  0  0  0  0  0  0  0  0  # atno 3767 bound_to 3762
    1.8774  -20.6408    9.6094 H   0  0  0  0  0  0  0  0  0  0  0  0  # atno 3841 bound_to 3832
    3.4114   -9.1508    3.7842 LP  0  0  0  0  0  0  0  0  0  0  0  0  # atno 4297 bound_to 1298
    4.7790   -8.7316    4.5719 LP  0  0  0  0  0  0  0  0  0  0  0  0  # atno 4298 bound_to 1298
    1.7690   -9.0588    8.3542 LP  0  0  0  0  0  0  0  0  0  0  0  0  # atno 4299 bound_to 2456
    1.6348   -7.9311    7.1808 LP  0  0  0  0  0  0  0  0  0  0  0  0  # atno 4300 bound_to 2456
    2.8137   -8.4254    4.3679 LP  0  0  0  0  0  0  0  0  0  0  0  0  # atno 4301 bound_to 2510
    2.3556   -9.0838    5.7903 LP  0  0  0  0  0  0  0  0  0  0  0  0  # atno 4302 bound_to 2510
   -2.6082  -18.2138   13.9697 LP  0  0  0  0  0  0  0  0  0  0  0  0  # atno 4306 bound_to 3712
   -3.2744  -16.9328   14.7327 LP  0  0  0  0  0  0  0  0  0  0  0  0  # atno 4307 bound_to 3712
    1.9359  -19.6345    8.3604 LP  0  0  0  0  0  0  0  0  0  0  0  0  # atno 4314 bound_to 3832
    3.1247  -20.7275    8.6029 LP  0  0  0  0  0  0  0  0  0  0  0  0  # atno 4315 bound_to 3832
   -5.4382  -22.5270   10.2675 LP  0  0  0  0  0  0  0  0  0  0  0  0  # atno 4318 bound_to 3762
   -4.6344  -22.0649   11.6117 LP  0  0  0  0  0  0  0  0  0  0  0  0  # atno 4319 bound_to 3762
   -3.6407   -5.0766    8.6801 LP  0  0  0  0  0  0  0  0  0  0  0  0  # atno 4320 bound_to 2467
   -5.1307   -5.4421    9.2394 LP  0  0  0  0  0  0  0  0  0  0  0  0  # atno 4321 bound_to 2467

> <Gold.Score>
     Score     S(PLP)   S(hbond)     S(cho)   S(metal)  DE(clash)   DE(tors)     intcor
     47.86     -50.18       0.00       0.00       0.00       1.08       0.91       0.58

> <Gold.PLP.Fitness>
47.8598

> <Gold.PLP.PLP>
-50.1757

> <Gold.PLP.part.hbond>
0.0000

> <Gold.PLP.part.metal>
0.0000

> <Gold.PLP.part.buried>
-8.0337

> <Gold.PLP.part.nonpolar>
-44.7397

> <Gold.PLP.part.repulsive>
1.4115

> <Gold.PLP.ligand.clash>
1.0780

> <Gold.PLP.ligand.torsion>
0.9078

> <Gold.PLP.Chemscore.Hbond>
0.0000

> <Gold.PLP.Chemscore.CHOScore>
0.0000

> <Gold.PLP.Chemscore.Metal>
0.0000

> <Gold.PLP.Chemscore.Internal.Correction>
0.5776

