#       Name:                EN300-26978906_i004
#       Creating user name   fsindt
#       Creation time:       Wed Mar  1 05:43:11 2023


#       File generated by GOLD software.
#

@<TRIPOS>MOLECULE
EN300-26978906_i004|acide_1|mol2|6892|dock17
    41    41     1
SMALL
USER_CHARGES


@<TRIPOS>ATOM
      1 C1          -0.0944 -14.9903   7.5178 C.3            1 <1>                0.0000
      2 O2          -0.7738 -13.7869   7.8812 O.3            1 <1>                0.0000
      3 C3           0.0491 -12.6194   7.8389 C.3            1 <1>                0.0000
      4 C4          -0.1528 -11.8065   9.1193 C.3            1 <1>                0.0000
      5 C5           1.1532 -11.1079   9.5033 C.3            1 <1>                0.0000
      6 C6          -1.2653 -10.7585   8.9057 C.3            1 <1>                0.0000
      7 C7          -2.5168 -11.4534   9.5044 C.3            1 <1>                0.0000
      8 C8          -1.9019 -12.2280  10.6966 C.3            1 <1>                0.0000
      9 N9          -0.5860 -12.6916  10.2104 N.am           1 <1>                0.0000
     10 C10          0.0988 -13.7503  10.6863 C.2            1 <1>                0.0000
     11 O11          1.1772 -14.0412  10.2078 O.2            1 <1>                0.0000
     12 O12         -0.4119 -14.4856  11.6919 O.3            1 <1>                0.0000
     13 C13          0.1775 -15.7932  11.9178 C.3            1 <1>                0.0000
     14 C14          0.1787 -16.5850  10.6087 C.3            1 <1>                0.0000
     15 C15          1.6152 -15.6257  12.4139 C.3            1 <1>                0.0000
     16 C16         -0.6402 -16.5465  12.9688 C.3            1 <1>                0.0000
     17 C17         -3.5224 -10.4373   9.9814 C.2            1 <1>                0.0000
     18 O18         -4.5623 -10.8059  10.5001 O.co2          1 <1>                0.0000
     19 O19         -3.2960  -9.2467   9.8486 O.co2          1 <1>               -1.0000
     20 H20          0.2844 -14.9004   6.4997 H              1 <1>                0.0000
     21 H21          0.7376 -15.1585   8.2015 H              1 <1>                0.0000
     22 H22         -0.7870 -15.8300   7.5749 H              1 <1>                0.0000
     23 H23          1.0951 -12.9149   7.7574 H              1 <1>                0.0000
     24 H24         -0.2253 -12.0124   6.9761 H              1 <1>                0.0000
     25 H25          1.4521 -10.4309   8.7030 H              1 <1>                0.0000
     26 H26          1.0053 -10.5411  10.4225 H              1 <1>                0.0000
     27 H27          1.9324 -11.8542   9.6580 H              1 <1>                0.0000
     28 H28         -1.0387  -9.8397   9.4465 H              1 <1>                0.0000
     29 H29         -1.4069 -10.5574   7.8438 H              1 <1>                0.0000
     30 H30         -2.9661 -12.1371   8.7842 H              1 <1>                0.0000
     31 H31         -1.7765 -11.5671  11.5543 H              1 <1>                0.0000
     32 H32         -2.5302 -13.0787  10.9607 H              1 <1>                0.0000
     33 H33          0.7612 -16.0484   9.8599 H              1 <1>                0.0000
     34 H34          0.6211 -17.5667  10.7782 H              1 <1>                0.0000
     35 H35         -0.8455 -16.7044  10.2552 H              1 <1>                0.0000
     36 H36          1.6143 -15.0615  13.3465 H              1 <1>                0.0000
     37 H37          2.0576 -16.6074  12.5834 H              1 <1>                0.0000
     38 H38          2.1976 -15.0890  11.6651 H              1 <1>                0.0000
     39 H39         -1.6645 -16.6658  12.6154 H              1 <1>                0.0000
     40 H40         -0.1978 -17.5281  13.1384 H              1 <1>                0.0000
     41 H41         -0.6411 -15.9824  13.9015 H              1 <1>                0.0000
@<TRIPOS>BOND
    1    1    2 1     
    2    1   20 1     
    3    1   21 1     
    4    1   22 1     
    5    2    3 1     
    6    3    4 1     
    7    3   23 1     
    8    3   24 1     
    9    4    5 1     
   10    4    6 1     
   11    4    9 1     
   12    5   25 1     
   13    5   26 1     
   14    5   27 1     
   15    6    7 1     
   16    6   28 1     
   17    6   29 1     
   18    7    8 1     
   19    7   17 1     
   20    7   30 1     
   21    8    9 1     
   22    8   31 1     
   23    8   32 1     
   24    9   10 am    
   25   10   11 2     
   26   10   12 1     
   27   12   13 1     
   28   13   14 1     
   29   13   15 1     
   30   13   16 1     
   31   14   33 1     
   32   14   34 1     
   33   14   35 1     
   34   15   36 1     
   35   15   37 1     
   36   15   38 1     
   37   16   39 1     
   38   16   40 1     
   39   16   41 1     
   40   17   18 ar    
   41   17   19 ar    
@<TRIPOS>SUBSTRUCTURE
      1 ****           1
@<TRIPOS>COMMENT
> <Gold.Version>
2022.2.0

> <Gold.Id.Protein>
3pbl|protein|mol2

> <Gold.Protein.RotatedTorsions>
[ 1303 1298 1297 1294 ] final  -42.48 input  179.99 | X-H torsion
[ 2461 2456 2455 2452 ] final  -98.01 input   30.03 | X-H torsion
[ 2515 2510 2509 2506 ] final  148.51 input  -89.99 | X-H torsion
[ 3721 3712 3711 3710 ] final  -74.97 input -179.91 | X-H torsion
[ 3841 3832 3831 3830 ] final   60.98 input -179.91 | X-H torsion
[ 3767 3762 3761 3758 ] final -169.06 input  -89.99 | X-H torsion
[ 2472 2467 2466 2463 ] final  -49.21 input  -89.97 | X-H torsion

> <Gold.Protein.ActiveResidues>
 VAL82   VAL86   LEU89   PHE106  VAL107  ASP110  VAL111  MET112  CYS114  THR115 
 CYS181  SER182  ILE183  PHE188  VAL189  ILE190  SER192  SER193  SER196  TRP342 
 PHE345  PHE346  HIS349  VAL350  TYR365  THR369  GLY372  TYR373 

> <Gold.Protein.RotatedAtoms>
    3.3803   -9.2372    3.7967 H   0  0  0  0  0  0  0  0  0  0  0  0  # atno 1303 bound_to 1298
    0.3908   -8.9904    7.8049 H   0  0  0  0  0  0  0  0  0  0  0  0  # atno 2461 bound_to 2456
   -3.6659   -5.1255    8.8057 H   0  0  0  0  0  0  0  0  0  0  0  0  # atno 2472 bound_to 2467
    2.1368   -8.6204    6.0726 H   0  0  0  0  0  0  0  0  0  0  0  0  # atno 2515 bound_to 2510
   -2.9125  -17.1354   14.7482 H   0  0  0  0  0  0  0  0  0  0  0  0  # atno 3721 bound_to 3712
   -4.2037  -22.4006   11.6208 H   0  0  0  0  0  0  0  0  0  0  0  0  # atno 3767 bound_to 3762
    2.4841  -20.9456    9.5066 H   0  0  0  0  0  0  0  0  0  0  0  0  # atno 3841 bound_to 3832
    4.7328   -8.6732    4.5171 LP  0  0  0  0  0  0  0  0  0  0  0  0  # atno 4297 bound_to 1298
    4.2493  -10.2110    4.7779 LP  0  0  0  0  0  0  0  0  0  0  0  0  # atno 4298 bound_to 1298
    1.9566   -8.8990    8.2601 LP  0  0  0  0  0  0  0  0  0  0  0  0  # atno 4299 bound_to 2456
    1.3900   -7.9189    7.0832 LP  0  0  0  0  0  0  0  0  0  0  0  0  # atno 4300 bound_to 2456
    2.3420   -7.4281    4.9762 LP  0  0  0  0  0  0  0  0  0  0  0  0  # atno 4301 bound_to 2510
    2.8180   -8.9504    4.6260 LP  0  0  0  0  0  0  0  0  0  0  0  0  # atno 4302 bound_to 2510
   -3.4921  -16.7761   13.2946 LP  0  0  0  0  0  0  0  0  0  0  0  0  # atno 4306 bound_to 3712
   -2.6731  -18.1671   13.5415 LP  0  0  0  0  0  0  0  0  0  0  0  0  # atno 4307 bound_to 3712
    1.4498  -19.8862    8.8868 LP  0  0  0  0  0  0  0  0  0  0  0  0  # atno 4314 bound_to 3832
    2.9100  -20.1238    8.1953 LP  0  0  0  0  0  0  0  0  0  0  0  0  # atno 4315 bound_to 3832
   -4.4221  -23.3212   10.2897 LP  0  0  0  0  0  0  0  0  0  0  0  0  # atno 4318 bound_to 3762
   -5.5014  -22.1532   10.6608 LP  0  0  0  0  0  0  0  0  0  0  0  0  # atno 4319 bound_to 3762
   -5.2339   -5.4219    9.1518 LP  0  0  0  0  0  0  0  0  0  0  0  0  # atno 4320 bound_to 2467
   -4.8169   -4.8462    7.6817 LP  0  0  0  0  0  0  0  0  0  0  0  0  # atno 4321 bound_to 2467

> <Gold.Score>
     Score     S(PLP)   S(hbond)     S(cho)   S(metal)  DE(clash)   DE(tors)     intcor
     40.94     -42.96       0.00       0.00       0.00       0.00       1.28       0.54

> <Gold.PLP.Fitness>
40.9436

> <Gold.PLP.PLP>
-42.9582

> <Gold.PLP.part.hbond>
0.0000

> <Gold.PLP.part.metal>
0.0000

> <Gold.PLP.part.buried>
2.0433

> <Gold.PLP.part.nonpolar>
-48.1667

> <Gold.PLP.part.repulsive>
2.4772

> <Gold.PLP.ligand.clash>
0.0000

> <Gold.PLP.ligand.torsion>
1.2760

> <Gold.PLP.Chemscore.Hbond>
0.0000

> <Gold.PLP.Chemscore.CHOScore>
0.0000

> <Gold.PLP.Chemscore.Metal>
0.0000

> <Gold.PLP.Chemscore.Internal.Correction>
0.5373

