#       Name:                EN300-26978906_i004
#       Creating user name   fsindt
#       Creation time:       Wed Mar  1 05:43:09 2023


#       File generated by GOLD software.
#

@<TRIPOS>MOLECULE
EN300-26978906_i004|acide_1|mol2|6892|dock16
    41    41     1
SMALL
USER_CHARGES


@<TRIPOS>ATOM
      1 C1           0.5008 -13.5483   6.6005 C.3            1 <1>                0.0000
      2 O2           1.0774 -14.3124   7.6615 O.3            1 <1>                0.0000
      3 C3           0.1993 -14.5247   8.7687 C.3            1 <1>                0.0000
      4 C4           0.3375 -13.3663   9.7586 C.3            1 <1>                0.0000
      5 C5           1.8121 -13.1522  10.1061 C.3            1 <1>                0.0000
      6 C6          -0.2492 -12.0779   9.1442 C.3            1 <1>                0.0000
      7 C7          -1.6795 -12.0272   9.7436 C.3            1 <1>                0.0000
      8 C8          -1.4425 -12.6013  11.1626 C.3            1 <1>                0.0000
      9 N9          -0.4268 -13.6586  10.9801 N.am           1 <1>                0.0000
     10 C10         -0.2368 -14.7145  11.7957 C.2            1 <1>                0.0000
     11 O11         -0.9348 -14.8549  12.7804 O.2            1 <1>                0.0000
     12 O12          0.7264 -15.6139  11.5195 O.3            1 <1>                0.0000
     13 C13          1.0809 -16.5454  12.5753 C.3            1 <1>                0.0000
     14 C14          1.4294 -15.7675  13.8459 C.3            1 <1>                0.0000
     15 C15         -0.1023 -17.4743  12.8545 C.3            1 <1>                0.0000
     16 C16          2.2893 -17.3759  12.1382 C.3            1 <1>                0.0000
     17 C17         -2.1864 -10.6097   9.8120 C.2            1 <1>                0.0000
     18 O18         -1.5080  -9.6978   9.3709 O.co2          1 <1>                0.0000
     19 O19         -3.2750 -10.3748  10.3084 O.co2          1 <1>               -1.0000
     20 H20         -0.3799 -14.0643   6.2182 H              1 <1>                0.0000
     21 H21          0.2125 -12.5662   6.9751 H              1 <1>                0.0000
     22 H22          1.2301 -13.4317   5.7989 H              1 <1>                0.0000
     23 H23         -0.8294 -14.5769   8.4118 H              1 <1>                0.0000
     24 H24          0.4596 -15.4597   9.2648 H              1 <1>                0.0000
     25 H25          2.3668 -12.9062   9.2007 H              1 <1>                0.0000
     26 H26          1.9018 -12.3342  10.8208 H              1 <1>                0.0000
     27 H27          2.2180 -14.0640  10.5445 H              1 <1>                0.0000
     28 H28          0.3287 -11.2064   9.4513 H              1 <1>                0.0000
     29 H29         -0.2890 -12.1524   8.0574 H              1 <1>                0.0000
     30 H30         -2.3635 -12.6582   9.1760 H              1 <1>                0.0000
     31 H31         -1.0645 -11.8249  11.8278 H              1 <1>                0.0000
     32 H32         -2.3649 -13.0256  11.5591 H              1 <1>                0.0000
     33 H33          0.5686 -15.1759  14.1573 H              1 <1>                0.0000
     34 H34          1.6957 -16.4668  14.6385 H              1 <1>                0.0000
     35 H35          2.2724 -15.1057  13.6471 H              1 <1>                0.0000
     36 H36         -0.3506 -18.0285  11.9493 H              1 <1>                0.0000
     37 H37          0.1639 -18.1736  13.6471 H              1 <1>                0.0000
     38 H38         -0.9631 -16.8826  13.1659 H              1 <1>                0.0000
     39 H39          3.1323 -16.7140  11.9393 H              1 <1>                0.0000
     40 H40          2.5555 -18.0751  12.9308 H              1 <1>                0.0000
     41 H41          2.0410 -17.9301  11.2330 H              1 <1>                0.0000
@<TRIPOS>BOND
    1    1    2 1     
    2    1   20 1     
    3    1   21 1     
    4    1   22 1     
    5    2    3 1     
    6    3    4 1     
    7    3   23 1     
    8    3   24 1     
    9    4    5 1     
   10    4    6 1     
   11    4    9 1     
   12    5   25 1     
   13    5   26 1     
   14    5   27 1     
   15    6    7 1     
   16    6   28 1     
   17    6   29 1     
   18    7    8 1     
   19    7   17 1     
   20    7   30 1     
   21    8    9 1     
   22    8   31 1     
   23    8   32 1     
   24    9   10 am    
   25   10   11 2     
   26   10   12 1     
   27   12   13 1     
   28   13   14 1     
   29   13   15 1     
   30   13   16 1     
   31   14   33 1     
   32   14   34 1     
   33   14   35 1     
   34   15   36 1     
   35   15   37 1     
   36   15   38 1     
   37   16   39 1     
   38   16   40 1     
   39   16   41 1     
   40   17   18 ar    
   41   17   19 ar    
@<TRIPOS>SUBSTRUCTURE
      1 ****           1
@<TRIPOS>COMMENT
> <Gold.Version>
2022.2.0

> <Gold.Id.Protein>
3pbl|protein|mol2

> <Gold.Protein.RotatedTorsions>
[ 1303 1298 1297 1294 ] final   13.02 input  179.99 | X-H torsion
[ 2461 2456 2455 2452 ] final  -27.20 input   30.03 | X-H torsion
[ 2515 2510 2509 2506 ] final  -13.08 input  -89.99 | X-H torsion
[ 3721 3712 3711 3710 ] final  159.33 input -179.91 | X-H torsion
[ 3841 3832 3831 3830 ] final -134.36 input -179.91 | X-H torsion
[ 3767 3762 3761 3758 ] final    7.39 input  -89.99 | X-H torsion
[ 2472 2467 2466 2463 ] final -133.97 input  -89.97 | X-H torsion

> <Gold.Protein.ActiveResidues>
 VAL82   VAL86   LEU89   PHE106  VAL107  ASP110  VAL111  MET112  CYS114  THR115 
 CYS181  SER182  ILE183  PHE188  VAL189  ILE190  SER192  SER193  SER196  TRP342 
 PHE345  PHE346  HIS349  VAL350  TYR365  THR369  GLY372  TYR373 

> <Gold.Protein.RotatedAtoms>
    3.4713  -10.0279    4.1668 H   0  0  0  0  0  0  0  0  0  0  0  0  # atno 1303 bound_to 1298
    0.6558   -8.1956    7.1034 H   0  0  0  0  0  0  0  0  0  0  0  0  # atno 2461 bound_to 2456
   -4.7293   -5.4621    9.4151 H   0  0  0  0  0  0  0  0  0  0  0  0  # atno 2472 bound_to 2467
    2.6261   -7.7830    4.4848 H   0  0  0  0  0  0  0  0  0  0  0  0  # atno 2515 bound_to 2510
   -3.2524  -16.7685   13.2901 H   0  0  0  0  0  0  0  0  0  0  0  0  # atno 3721 bound_to 3712
   -5.2517  -22.8066   10.1074 H   0  0  0  0  0  0  0  0  0  0  0  0  # atno 3767 bound_to 3762
    2.4201  -19.6487    8.3850 H   0  0  0  0  0  0  0  0  0  0  0  0  # atno 3841 bound_to 3832
    4.0541   -8.5136    3.9835 LP  0  0  0  0  0  0  0  0  0  0  0  0  # atno 4297 bound_to 1298
    4.8371   -9.5796    4.9413 LP  0  0  0  0  0  0  0  0  0  0  0  0  # atno 4298 bound_to 1298
    0.9349   -9.2843    8.2883 LP  0  0  0  0  0  0  0  0  0  0  0  0  # atno 4299 bound_to 2456
    2.1470   -8.3281    7.7562 LP  0  0  0  0  0  0  0  0  0  0  0  0  # atno 4300 bound_to 2456
    2.6419   -9.2518    5.1975 LP  0  0  0  0  0  0  0  0  0  0  0  0  # atno 4301 bound_to 2510
    2.0286   -7.9646    5.9934 LP  0  0  0  0  0  0  0  0  0  0  0  0  # atno 4302 bound_to 2510
   -2.6412  -18.2015   13.6783 LP  0  0  0  0  0  0  0  0  0  0  0  0  # atno 4306 bound_to 3712
   -3.1315  -17.1653   14.8412 LP  0  0  0  0  0  0  0  0  0  0  0  0  # atno 4307 bound_to 3712
    2.9551  -21.0376    8.9856 LP  0  0  0  0  0  0  0  0  0  0  0  0  # atno 4314 bound_to 3832
    1.4787  -20.4705    9.3921 LP  0  0  0  0  0  0  0  0  0  0  0  0  # atno 4315 bound_to 3832
   -4.9495  -21.9394   11.4578 LP  0  0  0  0  0  0  0  0  0  0  0  0  # atno 4318 bound_to 3762
   -3.9264  -23.1291   11.0055 LP  0  0  0  0  0  0  0  0  0  0  0  0  # atno 4319 bound_to 3762
   -5.2945   -4.9974    7.9554 LP  0  0  0  0  0  0  0  0  0  0  0  0  # atno 4320 bound_to 2467
   -3.6931   -4.9342    8.2688 LP  0  0  0  0  0  0  0  0  0  0  0  0  # atno 4321 bound_to 2467

> <Gold.Score>
     Score     S(PLP)   S(hbond)     S(cho)   S(metal)  DE(clash)   DE(tors)     intcor
     36.87     -37.28       0.00       0.00       0.00       0.05       0.45       0.54

> <Gold.PLP.Fitness>
36.8699

> <Gold.PLP.PLP>
-37.2803

> <Gold.PLP.part.hbond>
-0.6754

> <Gold.PLP.part.metal>
0.0000

> <Gold.PLP.part.buried>
1.1649

> <Gold.PLP.part.nonpolar>
-39.2542

> <Gold.PLP.part.repulsive>
0.4822

> <Gold.PLP.ligand.clash>
0.0504

> <Gold.PLP.ligand.torsion>
0.4487

> <Gold.PLP.Chemscore.Hbond>
0.0000

> <Gold.PLP.Chemscore.CHOScore>
0.0000

> <Gold.PLP.Chemscore.Metal>
0.0000

> <Gold.PLP.Chemscore.Internal.Correction>
0.5373

