#       Name:                EN300-26978906_i004
#       Creating user name   fsindt
#       Creation time:       Wed Mar  1 05:43:15 2023


#       File generated by GOLD software.
#

@<TRIPOS>MOLECULE
EN300-26978906_i004|acide_1|mol2|6892|dock20
    41    41     1
SMALL
USER_CHARGES


@<TRIPOS>ATOM
      1 C1           2.6050 -17.9927  12.7208 C.3            1 <1>                0.0000
      2 O2           2.6057 -16.9122  13.6559 O.3            1 <1>                0.0000
      3 C3           1.5655 -16.9882  14.6327 C.3            1 <1>                0.0000
      4 C4           0.2248 -16.6504  13.9774 C.3            1 <1>                0.0000
      5 C5          -0.8551 -16.4986  15.0506 C.3            1 <1>                0.0000
      6 C6           0.3502 -15.3411  13.1702 C.3            1 <1>                0.0000
      7 C7           0.5912 -15.8468  11.7232 C.3            1 <1>                0.0000
      8 C8          -0.2890 -17.1209  11.6884 C.3            1 <1>                0.0000
      9 N9          -0.1529 -17.7137  13.0349 N.am           1 <1>                0.0000
     10 C10         -0.3406 -19.0119  13.3442 C.2            1 <1>                0.0000
     11 O11         -0.2004 -19.3897  14.4906 O.2            1 <1>                0.0000
     12 O12         -0.6836 -19.8903  12.3831 O.3            1 <1>                0.0000
     13 C13         -0.4648 -21.2972  12.6674 C.3            1 <1>                0.0000
     14 C14          0.9725 -21.5026  13.1497 C.3            1 <1>                0.0000
     15 C15         -1.4382 -21.7551  13.7554 C.3            1 <1>                0.0000
     16 C16         -0.6983 -22.1166  11.3965 C.3            1 <1>                0.0000
     17 C17          0.1175 -14.8351  10.7116 C.2            1 <1>                0.0000
     18 O18          0.2559 -15.0536   9.5202 O.co2          1 <1>                0.0000
     19 O19         -0.4043 -13.7983  11.0847 O.co2          1 <1>               -1.0000
     20 H20          2.7326 -18.9348  13.2540 H              1 <1>                0.0000
     21 H21          1.6579 -18.0059  12.1815 H              1 <1>                0.0000
     22 H22          3.4239 -17.8617  12.0135 H              1 <1>                0.0000
     23 H23          1.5253 -17.9972  15.0431 H              1 <1>                0.0000
     24 H24          1.7672 -16.2777  15.4343 H              1 <1>                0.0000
     25 H25         -0.5832 -15.6888  15.7276 H              1 <1>                0.0000
     26 H26         -1.8094 -16.2704  14.5759 H              1 <1>                0.0000
     27 H27         -0.9420 -17.4285  15.6127 H              1 <1>                0.0000
     28 H28         -0.5717 -14.7626  13.2279 H              1 <1>                0.0000
     29 H29          1.1987 -14.7526  13.5193 H              1 <1>                0.0000
     30 H30          1.6412 -16.0928  11.5651 H              1 <1>                0.0000
     31 H31         -1.3291 -16.8584  11.4944 H              1 <1>                0.0000
     32 H32          0.0761 -17.8136  10.9301 H              1 <1>                0.0000
     33 H33          1.1389 -20.9189  14.0551 H              1 <1>                0.0000
     34 H34          1.1368 -22.5588  13.3631 H              1 <1>                0.0000
     35 H35          1.6661 -21.1764  12.3746 H              1 <1>                0.0000
     36 H36         -2.4622 -21.6087  13.4118 H              1 <1>                0.0000
     37 H37         -1.2739 -22.8113  13.9688 H              1 <1>                0.0000
     38 H38         -1.2718 -21.1713  14.6608 H              1 <1>                0.0000
     39 H39         -0.0048 -21.7903  10.6214 H              1 <1>                0.0000
     40 H40         -0.5340 -23.1728  11.6099 H              1 <1>                0.0000
     41 H41         -1.7223 -21.9703  11.0529 H              1 <1>                0.0000
@<TRIPOS>BOND
    1    1    2 1     
    2    1   20 1     
    3    1   21 1     
    4    1   22 1     
    5    2    3 1     
    6    3    4 1     
    7    3   23 1     
    8    3   24 1     
    9    4    5 1     
   10    4    6 1     
   11    4    9 1     
   12    5   25 1     
   13    5   26 1     
   14    5   27 1     
   15    6    7 1     
   16    6   28 1     
   17    6   29 1     
   18    7    8 1     
   19    7   17 1     
   20    7   30 1     
   21    8    9 1     
   22    8   31 1     
   23    8   32 1     
   24    9   10 am    
   25   10   11 2     
   26   10   12 1     
   27   12   13 1     
   28   13   14 1     
   29   13   15 1     
   30   13   16 1     
   31   14   33 1     
   32   14   34 1     
   33   14   35 1     
   34   15   36 1     
   35   15   37 1     
   36   15   38 1     
   37   16   39 1     
   38   16   40 1     
   39   16   41 1     
   40   17   18 ar    
   41   17   19 ar    
@<TRIPOS>SUBSTRUCTURE
      1 ****           1
@<TRIPOS>COMMENT
> <Gold.Version>
2022.2.0

> <Gold.Id.Protein>
3pbl|protein|mol2

> <Gold.Protein.RotatedTorsions>
[ 1303 1298 1297 1294 ] final -140.84 input  179.99 | X-H torsion
[ 2461 2456 2455 2452 ] final   81.86 input   30.03 | X-H torsion
[ 2515 2510 2509 2506 ] final   20.83 input  -89.99 | X-H torsion
[ 3721 3712 3711 3710 ] final   -1.98 input -179.91 | X-H torsion
[ 3841 3832 3831 3830 ] final   76.77 input -179.91 | X-H torsion
[ 3767 3762 3761 3758 ] final    7.61 input  -89.99 | X-H torsion
[ 2472 2467 2466 2463 ] final   37.25 input  -89.97 | X-H torsion

> <Gold.Protein.ActiveResidues>
 VAL82   VAL86   LEU89   PHE106  VAL107  ASP110  VAL111  MET112  CYS114  THR115 
 CYS181  SER182  ILE183  PHE188  VAL189  ILE190  SER192  SER193  SER196  TRP342 
 PHE345  PHE346  HIS349  VAL350  TYR365  THR369  GLY372  TYR373 

> <Gold.Protein.RotatedAtoms>
    4.5043   -8.5153    4.2977 H   0  0  0  0  0  0  0  0  0  0  0  0  # atno 1303 bound_to 1298
    2.1003   -8.2137    7.6257 H   0  0  0  0  0  0  0  0  0  0  0  0  # atno 2461 bound_to 2456
   -4.2760   -4.7995    7.7151 H   0  0  0  0  0  0  0  0  0  0  0  0  # atno 2472 bound_to 2467
    2.3956   -7.4620    4.8671 H   0  0  0  0  0  0  0  0  0  0  0  0  # atno 2515 bound_to 2510
   -2.4913  -17.9447   14.2695 H   0  0  0  0  0  0  0  0  0  0  0  0  # atno 3721 bound_to 3712
   -5.2494  -22.8093   10.1064 H   0  0  0  0  0  0  0  0  0  0  0  0  # atno 3767 bound_to 3762
    2.6895  -20.9543    9.3872 H   0  0  0  0  0  0  0  0  0  0  0  0  # atno 3841 bound_to 3832
    4.5281  -10.0320    4.9022 LP  0  0  0  0  0  0  0  0  0  0  0  0  # atno 4297 bound_to 1298
    3.3296   -9.5744    3.8918 LP  0  0  0  0  0  0  0  0  0  0  0  0  # atno 4298 bound_to 1298
    0.5339   -8.3079    7.1730 LP  0  0  0  0  0  0  0  0  0  0  0  0  # atno 4299 bound_to 2456
    1.1039   -9.2864    8.3495 LP  0  0  0  0  0  0  0  0  0  0  0  0  # atno 4300 bound_to 2456
    2.7987   -9.0370    4.7160 LP  0  0  0  0  0  0  0  0  0  0  0  0  # atno 4301 bound_to 2510
    2.1024   -8.5006    6.0923 LP  0  0  0  0  0  0  0  0  0  0  0  0  # atno 4302 bound_to 2510
   -3.4528  -16.6687   14.4277 LP  0  0  0  0  0  0  0  0  0  0  0  0  # atno 4306 bound_to 3712
   -3.1985  -17.3401   12.9610 LP  0  0  0  0  0  0  0  0  0  0  0  0  # atno 4307 bound_to 3712
    1.3938  -20.0594    9.0765 LP  0  0  0  0  0  0  0  0  0  0  0  0  # atno 4314 bound_to 3832
    2.7287  -19.9405    8.1435 LP  0  0  0  0  0  0  0  0  0  0  0  0  # atno 4315 bound_to 3832
   -4.9524  -21.9387   11.4558 LP  0  0  0  0  0  0  0  0  0  0  0  0  # atno 4318 bound_to 3762
   -3.9258  -23.1272   11.0086 LP  0  0  0  0  0  0  0  0  0  0  0  0  # atno 4319 bound_to 3762
   -3.9499   -5.3094    9.2317 LP  0  0  0  0  0  0  0  0  0  0  0  0  # atno 4320 bound_to 2467
   -5.4910   -5.2845    8.6922 LP  0  0  0  0  0  0  0  0  0  0  0  0  # atno 4321 bound_to 2467

> <Gold.Score>
     Score     S(PLP)   S(hbond)     S(cho)   S(metal)  DE(clash)   DE(tors)     intcor
     39.18     -39.73       0.00       0.00       0.00       0.00       0.52       0.49

> <Gold.PLP.Fitness>
39.1788

> <Gold.PLP.PLP>
-39.7279

> <Gold.PLP.part.hbond>
0.0000

> <Gold.PLP.part.metal>
0.0000

> <Gold.PLP.part.buried>
-2.5268

> <Gold.PLP.part.nonpolar>
-37.7415

> <Gold.PLP.part.repulsive>
0.1804

> <Gold.PLP.ligand.clash>
0.0000

> <Gold.PLP.ligand.torsion>
0.5214

> <Gold.PLP.Chemscore.Hbond>
0.0000

> <Gold.PLP.Chemscore.CHOScore>
0.0000

> <Gold.PLP.Chemscore.Metal>
0.0000

> <Gold.PLP.Chemscore.Internal.Correction>
0.4937

