#       Name:                EN300-26978906_i004
#       Creating user name   fsindt
#       Creation time:       Wed Mar  1 05:42:55 2023


#       File generated by GOLD software.
#

@<TRIPOS>MOLECULE
EN300-26978906_i004|acide_1|mol2|6892|dock6
    41    41     1
SMALL
USER_CHARGES


@<TRIPOS>ATOM
      1 C1           0.4671 -14.2385   7.0088 C.3            1 <1>                0.0000
      2 O2           0.9966 -15.1431   7.9800 O.3            1 <1>                0.0000
      3 C3           0.1703 -15.3054   9.1345 C.3            1 <1>                0.0000
      4 C4           0.5608 -14.2697  10.1909 C.3            1 <1>                0.0000
      5 C5           2.0538 -14.3847  10.5051 C.3            1 <1>                0.0000
      6 C6           0.2404 -12.8500   9.6776 C.3            1 <1>                0.0000
      7 C7          -1.1382 -12.5501  10.3233 C.3            1 <1>                0.0000
      8 C8          -0.9992 -13.2558  11.6952 C.3            1 <1>                0.0000
      9 N9          -0.2256 -14.4828  11.4146 N.am           1 <1>                0.0000
     10 C10         -0.2422 -15.6085  12.1556 C.2            1 <1>                0.0000
     11 O11         -0.9367 -15.6705  13.1507 O.2            1 <1>                0.0000
     12 O12          0.5108 -16.6642  11.7933 O.3            1 <1>                0.0000
     13 C13          0.1812 -17.9454  12.3917 C.3            1 <1>                0.0000
     14 C14          1.0127 -19.0462  11.7302 C.3            1 <1>                0.0000
     15 C15          0.4902 -17.9032  13.8896 C.3            1 <1>                0.0000
     16 C16         -1.3067 -18.2367  12.1858 C.3            1 <1>                0.0000
     17 C17         -1.3421 -11.0670  10.4969 C.2            1 <1>                0.0000
     18 O18         -2.2965 -10.5176   9.9738 O.co2          1 <1>                0.0000
     19 O19         -0.5526 -10.4167  11.1604 O.co2          1 <1>               -1.0000
     20 H20         -0.5005 -14.6022   6.6632 H              1 <1>                0.0000
     21 H21          0.3455 -13.2531   7.4583 H              1 <1>                0.0000
     22 H22          1.1525 -14.1705   6.1639 H              1 <1>                0.0000
     23 H23         -0.8742 -15.1647   8.8564 H              1 <1>                0.0000
     24 H24          0.3063 -16.3077   9.5407 H              1 <1>                0.0000
     25 H25          2.6312 -14.1957   9.6001 H              1 <1>                0.0000
     26 H26          2.3221 -13.6528  11.2669 H              1 <1>                0.0000
     27 H27          2.2715 -15.3878  10.8722 H              1 <1>                0.0000
     28 H28          0.9903 -12.1375  10.0210 H              1 <1>                0.0000
     29 H29          0.1671 -12.8405   8.5901 H              1 <1>                0.0000
     30 H30         -1.9471 -12.9883   9.7386 H              1 <1>                0.0000
     31 H31         -0.4582 -12.6198  12.3960 H              1 <1>                0.0000
     32 H32         -1.9821 -13.5093  12.0926 H              1 <1>                0.0000
     33 H33          2.0726 -18.8387  11.8769 H              1 <1>                0.0000
     34 H34          0.7652 -20.0080  12.1794 H              1 <1>                0.0000
     35 H35          0.7926 -19.0763  10.6631 H              1 <1>                0.0000
     36 H36         -0.1022 -17.1189  14.3608 H              1 <1>                0.0000
     37 H37          0.2427 -18.8650  14.3388 H              1 <1>                0.0000
     38 H38          1.5501 -17.6957  14.0362 H              1 <1>                0.0000
     39 H39         -1.5268 -18.2667  11.1186 H              1 <1>                0.0000
     40 H40         -1.5541 -19.1985  12.6350 H              1 <1>                0.0000
     41 H41         -1.8991 -17.4524  12.6571 H              1 <1>                0.0000
@<TRIPOS>BOND
    1    1    2 1     
    2    1   20 1     
    3    1   21 1     
    4    1   22 1     
    5    2    3 1     
    6    3    4 1     
    7    3   23 1     
    8    3   24 1     
    9    4    5 1     
   10    4    6 1     
   11    4    9 1     
   12    5   25 1     
   13    5   26 1     
   14    5   27 1     
   15    6    7 1     
   16    6   28 1     
   17    6   29 1     
   18    7    8 1     
   19    7   17 1     
   20    7   30 1     
   21    8    9 1     
   22    8   31 1     
   23    8   32 1     
   24    9   10 am    
   25   10   11 2     
   26   10   12 1     
   27   12   13 1     
   28   13   14 1     
   29   13   15 1     
   30   13   16 1     
   31   14   33 1     
   32   14   34 1     
   33   14   35 1     
   34   15   36 1     
   35   15   37 1     
   36   15   38 1     
   37   16   39 1     
   38   16   40 1     
   39   16   41 1     
   40   17   18 ar    
   41   17   19 ar    
@<TRIPOS>SUBSTRUCTURE
      1 ****           1
@<TRIPOS>COMMENT
> <Gold.Version>
2022.2.0

> <Gold.Id.Protein>
3pbl|protein|mol2

> <Gold.Protein.RotatedTorsions>
[ 1303 1298 1297 1294 ] final  133.30 input  179.99 | X-H torsion
[ 2461 2456 2455 2452 ] final  -19.42 input   30.03 | X-H torsion
[ 2515 2510 2509 2506 ] final    6.03 input  -89.99 | X-H torsion
[ 3721 3712 3711 3710 ] final  -83.25 input -179.91 | X-H torsion
[ 3841 3832 3831 3830 ] final  160.36 input -179.91 | X-H torsion
[ 3767 3762 3761 3758 ] final  -23.07 input  -89.99 | X-H torsion
[ 2472 2467 2466 2463 ] final  -67.03 input  -89.97 | X-H torsion

> <Gold.Protein.ActiveResidues>
 VAL82   VAL86   LEU89   PHE106  VAL107  ASP110  VAL111  MET112  CYS114  THR115 
 CYS181  SER182  ILE183  PHE188  VAL189  ILE190  SER192  SER193  SER196  TRP342 
 PHE345  PHE346  HIS349  VAL350  TYR365  THR369  GLY372  TYR373 

> <Gold.Protein.RotatedAtoms>
    4.8383   -9.5750    4.9410 H   0  0  0  0  0  0  0  0  0  0  0  0  # atno 1303 bound_to 1298
    0.7560   -8.1246    7.0674 H   0  0  0  0  0  0  0  0  0  0  0  0  # atno 2461 bound_to 2456
   -3.7831   -5.2275    9.0531 H   0  0  0  0  0  0  0  0  0  0  0  0  # atno 2472 bound_to 2467
    2.4995   -7.5700    4.6760 H   0  0  0  0  0  0  0  0  0  0  0  0  # atno 2515 bound_to 2510
   -2.9750  -17.0306   14.7204 H   0  0  0  0  0  0  0  0  0  0  0  0  # atno 3721 bound_to 3712
   -5.4762  -22.4332   10.3432 H   0  0  0  0  0  0  0  0  0  0  0  0  # atno 3767 bound_to 3762
    3.0887  -20.2823    8.5384 H   0  0  0  0  0  0  0  0  0  0  0  0  # atno 3841 bound_to 3832
    3.4736  -10.0313    4.1691 LP  0  0  0  0  0  0  0  0  0  0  0  0  # atno 4297 bound_to 1298
    4.0500   -8.5150    3.9812 LP  0  0  0  0  0  0  0  0  0  0  0  0  # atno 4298 bound_to 1298
    0.8212   -9.2677    8.2321 LP  0  0  0  0  0  0  0  0  0  0  0  0  # atno 4299 bound_to 2456
    2.1605   -8.4157    7.8485 LP  0  0  0  0  0  0  0  0  0  0  0  0  # atno 4300 bound_to 2456
    2.7433   -9.1668    4.9137 LP  0  0  0  0  0  0  0  0  0  0  0  0  # atno 4301 bound_to 2510
    2.0539   -8.2626    6.0858 LP  0  0  0  0  0  0  0  0  0  0  0  0  # atno 4302 bound_to 2510
   -3.4506  -16.8637   13.1960 LP  0  0  0  0  0  0  0  0  0  0  0  0  # atno 4306 bound_to 3712
   -2.6424  -18.2004   13.6721 LP  0  0  0  0  0  0  0  0  0  0  0  0  # atno 4307 bound_to 3712
    2.0770  -21.0376    9.5294 LP  0  0  0  0  0  0  0  0  0  0  0  0  # atno 4314 bound_to 3832
    1.5844  -19.7385    8.6712 LP  0  0  0  0  0  0  0  0  0  0  0  0  # atno 4315 bound_to 3832
   -4.5284  -22.1283   11.6376 LP  0  0  0  0  0  0  0  0  0  0  0  0  # atno 4318 bound_to 3762
   -4.1230  -23.3135   10.5900 LP  0  0  0  0  0  0  0  0  0  0  0  0  # atno 4319 bound_to 3762
   -5.4056   -5.3587    8.9240 LP  0  0  0  0  0  0  0  0  0  0  0  0  # atno 4320 bound_to 2467
   -4.5280   -4.8073    7.6621 LP  0  0  0  0  0  0  0  0  0  0  0  0  # atno 4321 bound_to 2467

> <Gold.Score>
     Score     S(PLP)   S(hbond)     S(cho)   S(metal)  DE(clash)   DE(tors)     intcor
     38.35     -38.78       0.00       0.00       0.00       0.00       0.50       0.58

> <Gold.PLP.Fitness>
38.3545

> <Gold.PLP.PLP>
-38.7845

> <Gold.PLP.part.hbond>
-0.8819

> <Gold.PLP.part.metal>
0.0000

> <Gold.PLP.part.buried>
0.3684

> <Gold.PLP.part.nonpolar>
-40.4217

> <Gold.PLP.part.repulsive>
0.4765

> <Gold.PLP.ligand.clash>
0.0000

> <Gold.PLP.ligand.torsion>
0.5038

> <Gold.PLP.Chemscore.Hbond>
0.0000

> <Gold.PLP.Chemscore.CHOScore>
0.0000

> <Gold.PLP.Chemscore.Metal>
0.0000

> <Gold.PLP.Chemscore.Internal.Correction>
0.5776

