#       Name:                EN300-26978906_i004
#       Creating user name   fsindt
#       Creation time:       Wed Mar  1 05:42:49 2023


#       File generated by GOLD software.
#

@<TRIPOS>MOLECULE
EN300-26978906_i004|acide_1|mol2|6892|dock1
    41    41     1
SMALL
USER_CHARGES


@<TRIPOS>ATOM
      1 C1           0.8124 -13.1782   6.6792 C.3            1 <1>                0.0000
      2 O2          -0.3811 -13.7828   7.1811 O.3            1 <1>                0.0000
      3 C3          -0.2079 -14.4670   8.4236 C.3            1 <1>                0.0000
      4 C4           0.1937 -13.4637   9.5067 C.3            1 <1>                0.0000
      5 C5           1.7160 -13.3127   9.5372 C.3            1 <1>                0.0000
      6 C6          -0.4637 -12.0961   9.2250 C.3            1 <1>                0.0000
      7 C7          -1.7210 -12.1212  10.1339 C.3            1 <1>                0.0000
      8 C8          -1.1963 -12.8946  11.3692 C.3            1 <1>                0.0000
      9 N9          -0.2898 -13.9224  10.8171 N.am           1 <1>                0.0000
     10 C10          0.0353 -15.0858  11.4147 C.2            1 <1>                0.0000
     11 O11          0.7941 -15.8597  10.8653 O.2            1 <1>                0.0000
     12 O12         -0.4806 -15.3905  12.6204 O.3            1 <1>                0.0000
     13 C13          0.1852 -16.4355  13.3773 C.3            1 <1>                0.0000
     14 C14         -0.3976 -16.4916  14.7908 C.3            1 <1>                0.0000
     15 C15         -0.0284 -17.7825  12.6838 C.3            1 <1>                0.0000
     16 C16          1.6831 -16.1336  13.4548 C.3            1 <1>                0.0000
     17 C17         -2.1432 -10.7244  10.5104 C.2            1 <1>                0.0000
     18 O18         -3.2762 -10.3442  10.2692 O.co2          1 <1>                0.0000
     19 O19         -1.3518  -9.9745  11.0561 O.co2          1 <1>               -1.0000
     20 H20          1.1805 -12.4480   7.3998 H              1 <1>                0.0000
     21 H21          1.5697 -13.9459   6.5206 H              1 <1>                0.0000
     22 H22          0.5973 -12.6794   5.7342 H              1 <1>                0.0000
     23 H23         -1.1431 -14.9509   8.7053 H              1 <1>                0.0000
     24 H24          0.5733 -15.2198   8.3181 H              1 <1>                0.0000
     25 H25          2.0639 -12.9436   8.5725 H              1 <1>                0.0000
     26 H26          1.9953 -12.6064  10.3189 H              1 <1>                0.0000
     27 H27          2.1729 -14.2809   9.7421 H              1 <1>                0.0000
     28 H28          0.2023 -11.2819   9.5104 H              1 <1>                0.0000
     29 H29         -0.7479 -12.0136   8.1759 H              1 <1>                0.0000
     30 H30         -2.5389 -12.6590   9.6545 H              1 <1>                0.0000
     31 H31         -0.6489 -12.2245  12.0321 H              1 <1>                0.0000
     32 H32         -2.0232 -13.3644  11.9019 H              1 <1>                0.0000
     33 H33         -1.4647 -16.7067  14.7357 H              1 <1>                0.0000
     34 H34          0.1023 -17.2761  15.3591 H              1 <1>                0.0000
     35 H35         -0.2454 -15.5320  15.2850 H              1 <1>                0.0000
     36 H36          0.3867 -17.7425  11.6768 H              1 <1>                0.0000
     37 H37          0.4715 -18.5670  13.2520 H              1 <1>                0.0000
     38 H38         -1.0955 -17.9976  12.6286 H              1 <1>                0.0000
     39 H39          1.8352 -15.1740  13.9489 H              1 <1>                0.0000
     40 H40          2.1829 -16.9181  14.0230 H              1 <1>                0.0000
     41 H41          2.0983 -16.0937  12.4478 H              1 <1>                0.0000
@<TRIPOS>BOND
    1    1    2 1     
    2    1   20 1     
    3    1   21 1     
    4    1   22 1     
    5    2    3 1     
    6    3    4 1     
    7    3   23 1     
    8    3   24 1     
    9    4    5 1     
   10    4    6 1     
   11    4    9 1     
   12    5   25 1     
   13    5   26 1     
   14    5   27 1     
   15    6    7 1     
   16    6   28 1     
   17    6   29 1     
   18    7    8 1     
   19    7   17 1     
   20    7   30 1     
   21    8    9 1     
   22    8   31 1     
   23    8   32 1     
   24    9   10 am    
   25   10   11 2     
   26   10   12 1     
   27   12   13 1     
   28   13   14 1     
   29   13   15 1     
   30   13   16 1     
   31   14   33 1     
   32   14   34 1     
   33   14   35 1     
   34   15   36 1     
   35   15   37 1     
   36   15   38 1     
   37   16   39 1     
   38   16   40 1     
   39   16   41 1     
   40   17   18 ar    
   41   17   19 ar    
@<TRIPOS>SUBSTRUCTURE
      1 ****           1
@<TRIPOS>COMMENT
> <Gold.Version>
2022.2.0

> <Gold.Id.Protein>
3pbl|protein|mol2

> <Gold.Protein.RotatedTorsions>
[ 1303 1298 1297 1294 ] final  -39.00 input  179.99 | X-H torsion
[ 2461 2456 2455 2452 ] final -122.82 input   30.03 | X-H torsion
[ 2515 2510 2509 2506 ] final   77.95 input  -89.99 | X-H torsion
[ 3721 3712 3711 3710 ] final  136.30 input -179.91 | X-H torsion
[ 3841 3832 3831 3830 ] final  -10.11 input -179.91 | X-H torsion
[ 3767 3762 3761 3758 ] final -174.72 input  -89.99 | X-H torsion
[ 2472 2467 2466 2463 ] final -152.19 input  -89.97 | X-H torsion

> <Gold.Protein.ActiveResidues>
 VAL82   VAL86   LEU89   PHE106  VAL107  ASP110  VAL111  MET112  CYS114  THR115 
 CYS181  SER182  ILE183  PHE188  VAL189  ILE190  SER192  SER193  SER196  TRP342 
 PHE345  PHE346  HIS349  VAL350  TYR365  THR369  GLY372  TYR373 

> <Gold.Protein.RotatedAtoms>
    3.3647   -9.2914    3.8069 H   0  0  0  0  0  0  0  0  0  0  0  0  # atno 1303 bound_to 1298
    0.6071   -9.1922    8.0820 H   0  0  0  0  0  0  0  0  0  0  0  0  # atno 2461 bound_to 2456
   -5.0105   -5.4569    9.3150 H   0  0  0  0  0  0  0  0  0  0  0  0  # atno 2472 bound_to 2467
    2.0749   -7.6002    5.6978 H   0  0  0  0  0  0  0  0  0  0  0  0  # atno 2515 bound_to 2510
   -3.1229  -17.0245   13.0969 H   0  0  0  0  0  0  0  0  0  0  0  0  # atno 3721 bound_to 3712
   -4.1447  -22.4682   11.5959 H   0  0  0  0  0  0  0  0  0  0  0  0  # atno 3767 bound_to 3762
    1.6593  -20.3686    9.5007 H   0  0  0  0  0  0  0  0  0  0  0  0  # atno 3841 bound_to 3832
    4.7012   -8.6403    4.4824 LP  0  0  0  0  0  0  0  0  0  0  0  0  # atno 4297 bound_to 1298
    4.2966  -10.1896    4.8025 LP  0  0  0  0  0  0  0  0  0  0  0  0  # atno 4298 bound_to 1298
    2.1331   -8.6120    8.0350 LP  0  0  0  0  0  0  0  0  0  0  0  0  # atno 4299 bound_to 2456
    0.9973   -8.0042    7.0313 LP  0  0  0  0  0  0  0  0  0  0  0  0  # atno 4300 bound_to 2456
    2.7732   -8.2115    4.3545 LP  0  0  0  0  0  0  0  0  0  0  0  0  # atno 4301 bound_to 2510
    2.4487   -9.1878    5.6227 LP  0  0  0  0  0  0  0  0  0  0  0  0  # atno 4302 bound_to 2510
   -2.6071  -18.2019   14.0591 LP  0  0  0  0  0  0  0  0  0  0  0  0  # atno 4306 bound_to 3712
   -3.3151  -16.8693   14.6834 LP  0  0  0  0  0  0  0  0  0  0  0  0  # atno 4307 bound_to 3712
    2.2977  -19.6955    8.1910 LP  0  0  0  0  0  0  0  0  0  0  0  0  # atno 4314 bound_to 3832
    3.0149  -20.9810    8.8979 LP  0  0  0  0  0  0  0  0  0  0  0  0  # atno 4315 bound_to 3832
   -4.4974  -23.3037   10.2378 LP  0  0  0  0  0  0  0  0  0  0  0  0  # atno 4318 bound_to 3762
   -5.4851  -22.1031   10.7376 LP  0  0  0  0  0  0  0  0  0  0  0  0  # atno 4319 bound_to 3762
   -5.0712   -4.9089    7.7780 LP  0  0  0  0  0  0  0  0  0  0  0  0  # atno 4320 bound_to 2467
   -3.6352   -5.0278    8.5463 LP  0  0  0  0  0  0  0  0  0  0  0  0  # atno 4321 bound_to 2467

> <Gold.Score>
     Score     S(PLP)   S(hbond)     S(cho)   S(metal)  DE(clash)   DE(tors)     intcor
     46.47     -47.55       0.00       0.00       0.00       0.00       0.85       0.61

> <Gold.PLP.Fitness>
46.4715

> <Gold.PLP.PLP>
-47.5546

> <Gold.PLP.part.hbond>
0.0000

> <Gold.PLP.part.metal>
0.0000

> <Gold.PLP.part.buried>
-7.0616

> <Gold.PLP.part.nonpolar>
-43.3499

> <Gold.PLP.part.repulsive>
2.4032

> <Gold.PLP.ligand.clash>
0.0000

> <Gold.PLP.ligand.torsion>
0.8455

> <Gold.PLP.Chemscore.Hbond>
0.0000

> <Gold.PLP.Chemscore.CHOScore>
0.0000

> <Gold.PLP.Chemscore.Metal>
0.0000

> <Gold.PLP.Chemscore.Internal.Correction>
0.6079

