#       Name:                plp ligand
#       Creating user name   fsindt
#       Creation time:       Wed Mar  1 05:42:48 2023


#       File generated by GOLD software.
#

@<TRIPOS>MOLECULE
plp ligand
    41    41     1
SMALL
USER_CHARGES


@<TRIPOS>ATOM
      1 C1           0.7576   3.3392  -1.2640 NONPOLAR       1 <1>                0.0000
      2 O2           0.2739   2.3236  -0.3828 ACCEPTOR       1 <1>                0.0000
      3 C3          -1.1412   2.1325  -0.4372 NONPOLAR       1 <1>                0.0000
      4 C4          -1.5447   1.0279   0.5416 NONPOLAR       1 <1>                0.0000
      5 C5          -1.2401   1.4667   1.9754 NONPOLAR       1 <1>                0.0000
      6 C6          -3.0501   0.7212   0.3953 NONPOLAR       1 <1>                0.0000
      7 C7          -3.0632  -0.5156  -0.5416 NONPOLAR       1 <1>                0.0000
      8 C8          -1.7916  -1.2696  -0.0790 NONPOLAR       1 <1>                0.0000
      9 N9          -0.8118  -0.2080   0.2305 NONPOLAR       1 <1>                0.0000
     10 C10          0.5284  -0.3501   0.2247 NONPOLAR       1 <1>                0.0000
     11 O11          1.2408   0.5961   0.4962 ACCEPTOR       1 <1>                0.0000
     12 O12          1.0779  -1.5404  -0.0819 ACCEPTOR       1 <1>                0.0000
     13 C13          2.5276  -1.6203  -0.0683 NONPOLAR       1 <1>                0.0000
     14 C14          3.0442  -1.2771   1.3303 NONPOLAR       1 <1>                0.0000
     15 C15          2.9637  -3.0392  -0.4391 NONPOLAR       1 <1>                0.0000
     16 C16          3.1025  -0.6288  -1.0819 NONPOLAR       1 <1>                0.0000
     17 C17         -4.2978  -1.3501  -0.3171 NONPOLAR       1 <1>                0.0000
     18 O18         -4.8795  -1.8458  -1.2670 ACCEPTOR       1 <1>                0.0000
     19 O19         -4.7149  -1.5296   0.8144 ACCEPTOR       1 <1>               -1.0000
     20 H20          0.5077   3.0773  -2.2921                1 <1>                0.0000
     21 H21          0.2944   4.2923  -1.0090                1 <1>                0.0000
     22 H22          1.8397   3.4226  -1.1631                1 <1>                0.0000
     23 H23         -1.6439   3.0606  -0.1650                1 <1>                0.0000
     24 H24         -1.4305   1.8456  -1.4482                1 <1>                0.0000
     25 H25         -1.8100   2.3660   2.2090                1 <1>                0.0000
     26 H26         -1.5184   0.6705   2.6658                1 <1>                0.0000
     27 H27         -0.1748   1.6761   2.0726                1 <1>                0.0000
     28 H28         -3.4897   0.4771   1.3623                1 <1>                0.0000
     29 H29         -3.5715   1.5599  -0.0660                1 <1>                0.0000
     30 H30         -2.9811  -0.2153  -1.5862                1 <1>                0.0000
     31 H31         -2.0037  -1.8598   0.8126                1 <1>                0.0000
     32 H32         -1.4181  -1.9095  -0.8785                1 <1>                0.0000
     33 H33          2.6347  -1.9834   2.0524                1 <1>                0.0000
     34 H34          4.1325  -1.3370   1.3405                1 <1>                0.0000
     35 H35          2.7336  -0.2662   1.5945                1 <1>                0.0000
     36 H36          2.5956  -3.2837  -1.4355                1 <1>                0.0000
     37 H37          4.0520  -3.0991  -0.4289                1 <1>                0.0000
     38 H38          2.5541  -3.7455   0.2830                1 <1>                0.0000
     39 H39          2.7918   0.3821  -0.8177                1 <1>                0.0000
     40 H40          4.1908  -0.6887  -1.0717                1 <1>                0.0000
     41 H41          2.7345  -0.8733  -2.0783                1 <1>                0.0000
@<TRIPOS>BOND
    1    1    2 1     
    2    1   20 1     
    3    1   21 1     
    4    1   22 1     
    5    2    3 1     
    6    3    4 1     
    7    3   23 1     
    8    3   24 1     
    9    4    5 1     
   10    4    6 1     
   11    4    9 1     
   12    5   25 1     
   13    5   26 1     
   14    5   27 1     
   15    6    7 1     
   16    6   28 1     
   17    6   29 1     
   18    7    8 1     
   19    7   17 1     
   20    7   30 1     
   21    8    9 1     
   22    8   31 1     
   23    8   32 1     
   24    9   10 am    
   25   10   11 2     
   26   10   12 1     
   27   12   13 1     
   28   13   14 1     
   29   13   15 1     
   30   13   16 1     
   31   14   33 1     
   32   14   34 1     
   33   14   35 1     
   34   15   36 1     
   35   15   37 1     
   36   15   38 1     
   37   16   39 1     
   38   16   40 1     
   39   16   41 1     
   40   17   18 ar    
   41   17   19 ar    
@<TRIPOS>SUBSTRUCTURE
      1 ****           1
@<TRIPOS>SET
DONOR_HYDROGENS      STATIC     ATOMS    <user>   **** ""
0
ATOM$RED        STATIC     ATOMS    COLORGROUP SYSTEM
0
