#       Name:                amine_i002
#       Creating user name   fsindt
#       Creation time:       Fri Aug 11 18:08:12 2023


#       File generated by GOLD software.
#

@<TRIPOS>MOLECULE
amine_i002|amine|mol2|2|dock19
    26    26     1
SMALL
NO_CHARGES


@<TRIPOS>ATOM
      1 C1           2.2930 -17.2137  14.6366 C.3            1 <1>                0.0000
      2 C2           2.7346 -17.3803  13.1812 C.3            1 <1>                0.0000
      3 N3           1.6162 -17.0468  12.2890 N.4            1 <1>                0.0000
      4 H4           1.8595 -17.2781  11.3375 H              1 <1>                0.0000
      5 C5           1.3138 -15.6031  12.3884 C.3            1 <1>                0.0000
      6 C6          -0.2272 -15.5119  12.2586 C.3            1 <1>                0.0000
      7 C7          -0.6822 -16.7786  13.0300 C.3            1 <1>                0.0000
      8 C8           0.4169 -17.8037  12.6925 C.3            1 <1>                0.0000
      9 C9          -0.0418 -18.6978  11.5388 C.3            1 <1>                0.0000
     10 N10          1.0690 -19.5617  11.1173 N.3            1 <1>                0.0000
     11 H11          1.9869 -16.1817  14.8076 H              1 <1>                0.0000
     12 H12          1.4545 -17.8798  14.8403 H              1 <1>                0.0000
     13 H13          3.1227 -17.4611  15.2987 H              1 <1>                0.0000
     14 H14          3.5730 -16.7142  12.9775 H              1 <1>                0.0000
     15 H15          3.0406 -18.4124  13.0101 H              1 <1>                0.0000
     16 H16          1.6371 -15.2133  13.3536 H              1 <1>                0.0000
     17 H17          1.7959 -15.0577  11.5771 H              1 <1>                0.0000
     18 H18         -0.6062 -14.6076  12.7347 H              1 <1>                0.0000
     19 H19         -0.5344 -15.5593  11.2139 H              1 <1>                0.0000
     20 H20         -0.7124 -16.5867  14.1024 H              1 <1>                0.0000
     21 H21         -1.6529 -17.1204  12.6710 H              1 <1>                0.0000
     22 H22          0.6391 -18.4113  13.5696 H              1 <1>                0.0000
     23 H23         -0.8776 -19.3152  11.8678 H              1 <1>                0.0000
     24 H24         -0.3570 -18.0763  10.7006 H              1 <1>                0.0000
     25 H25          0.7379 -20.4829  10.8724 H              1 <1>                0.0000
     26 H26          1.5803 -19.1462  10.3532 H              1 <1>                0.0000
@<TRIPOS>BOND
    1    1    2 1     
    2    1   11 1     
    3    1   12 1     
    4    1   13 1     
    5    2    3 1     
    6    2   14 1     
    7    2   15 1     
    8    3    4 1     
    9    3    8 1     
   10    3    5 1     
   11    5    6 1     
   12    5   16 1     
   13    5   17 1     
   14    6    7 1     
   15    6   18 1     
   16    6   19 1     
   17    7    8 1     
   18    7   20 1     
   19    7   21 1     
   20    8    9 1     
   21    8   22 1     
   22    9   10 1     
   23    9   23 1     
   24    9   24 1     
   25   10   25 1     
   26   10   26 1     
@<TRIPOS>SUBSTRUCTURE
      1 ****           1
@<TRIPOS>SET
DONOR_HYDROGENS      STATIC     ATOMS    <user>   **** ""
3 4 25 26
ATOM$RED        STATIC     ATOMS    COLORGROUP SYSTEM
3 4 25 26
@<TRIPOS>COMMENT
> <Gold.Version>
2022.2.0

> <Gold.Id.Protein>
3pbl|protein|mol2

> <Gold.Protein.RotatedTorsions>
[ 1303 1298 1297 1294 ] final  148.40 input  179.99 | X-H torsion
[ 2461 2456 2455 2452 ] final  -54.05 input   30.03 | X-H torsion
[ 2515 2510 2509 2506 ] final  -39.39 input  -89.99 | X-H torsion
[ 3721 3712 3711 3710 ] final  -84.68 input -179.91 | X-H torsion
[ 3841 3832 3831 3830 ] final   -4.42 input -179.91 | X-H torsion
[ 3767 3762 3761 3758 ] final  172.82 input  -89.99 | X-H torsion
[ 2472 2467 2466 2463 ] final    6.75 input  -89.97 | X-H torsion

> <Gold.Protein.ActiveResidues>
 VAL82   VAL86   LEU89   PHE106  VAL107  ASP110  VAL111  MET112  CYS114  THR115 
 CYS181  SER182  ILE183  PHE188  VAL189  ILE190  SER192  SER193  SER196  TRP342 
 PHE345  PHE346  HIS349  VAL350  TYR365  THR369  GLY372  TYR373 

> <Gold.Protein.RotatedAtoms>
    4.9002   -9.3402    4.8929 H   0  0  0  0  0  0  0  0  0  0  0  0  # atno 1303 bound_to 1298
    0.4032   -8.4889    7.3082 H   0  0  0  0  0  0  0  0  0  0  0  0  # atno 2461 bound_to 2456
   -3.8654   -4.8527    7.9881 H   0  0  0  0  0  0  0  0  0  0  0  0  # atno 2472 bound_to 2467
    2.7629   -8.1691    4.3579 H   0  0  0  0  0  0  0  0  0  0  0  0  # atno 2515 bound_to 2510
   -2.9857  -17.0130   14.7138 H   0  0  0  0  0  0  0  0  0  0  0  0  # atno 3721 bound_to 3712
   -4.0349  -22.6214   11.5163 H   0  0  0  0  0  0  0  0  0  0  0  0  # atno 3767 bound_to 3762
    1.7004  -20.4357    9.5353 H   0  0  0  0  0  0  0  0  0  0  0  0  # atno 3841 bound_to 3832
    3.6145  -10.1680    4.3200 LP  0  0  0  0  0  0  0  0  0  0  0  0  # atno 4297 bound_to 1298
    3.8472   -8.6132    3.8784 LP  0  0  0  0  0  0  0  0  0  0  0  0  # atno 4298 bound_to 1298
    1.3572   -9.2454    8.3969 LP  0  0  0  0  0  0  0  0  0  0  0  0  # atno 4299 bound_to 2456
    1.9771   -8.0739    7.4429 LP  0  0  0  0  0  0  0  0  0  0  0  0  # atno 4300 bound_to 2456
    2.4674   -9.2032    5.5864 LP  0  0  0  0  0  0  0  0  0  0  0  0  # atno 4301 bound_to 2510
    2.0663   -7.6269    5.7314 LP  0  0  0  0  0  0  0  0  0  0  0  0  # atno 4302 bound_to 2510
   -3.4427  -16.8800   13.1804 LP  0  0  0  0  0  0  0  0  0  0  0  0  # atno 4306 bound_to 3712
   -2.6380  -18.2044   13.6953 LP  0  0  0  0  0  0  0  0  0  0  0  0  # atno 4307 bound_to 3712
    2.2114  -19.6693    8.2210 LP  0  0  0  0  0  0  0  0  0  0  0  0  # atno 4314 bound_to 3832
    3.0538  -20.9297    8.8279 LP  0  0  0  0  0  0  0  0  0  0  0  0  # atno 4315 bound_to 3832
   -4.6692  -23.2422   10.1455 LP  0  0  0  0  0  0  0  0  0  0  0  0  # atno 4318 bound_to 3762
   -5.4230  -22.0115   10.9096 LP  0  0  0  0  0  0  0  0  0  0  0  0  # atno 4319 bound_to 3762
   -4.3920   -5.4271    9.4232 LP  0  0  0  0  0  0  0  0  0  0  0  0  # atno 4320 bound_to 2467
   -5.4594   -5.1137    8.2278 LP  0  0  0  0  0  0  0  0  0  0  0  0  # atno 4321 bound_to 2467

> <Gold.Score>
     Score     S(PLP)   S(hbond)     S(cho)   S(metal)  DE(clash)   DE(tors)     intcor
     33.76     -24.85       3.00       0.00       0.00       0.00       0.05       0.00

> <Gold.PLP.Fitness>
33.7574

> <Gold.PLP.PLP>
-24.8544

> <Gold.PLP.part.hbond>
-3.0000

> <Gold.PLP.part.metal>
0.0000

> <Gold.PLP.part.buried>
-0.4986

> <Gold.PLP.part.nonpolar>
-21.2247

> <Gold.PLP.part.repulsive>
0.0000

> <Gold.PLP.ligand.clash>
0.0000

> <Gold.PLP.ligand.torsion>
0.0493

> <Gold.PLP.Chemscore.Hbond>
3.0000

> <Gold.PLP.Chemscore.CHOScore>
0.0000

> <Gold.PLP.Chemscore.Metal>
0.0000

> <Gold.Chemscore.Hbonds>
donor molecule, donor type, donor heavy atom, donor atom, acceptor molecule, acceptor atom, score
      L1  H     3     4       P1  1227  2.00
      L1  H    10    26       P1  1227  1.00

> <Gold.PLP.Chemscore.Internal.Correction>
0.0015

