#       Name:                amine_i002
#       Creating user name   fsindt
#       Creation time:       Fri Aug 11 18:08:05 2023


#       File generated by GOLD software.
#

@<TRIPOS>MOLECULE
amine_i002|amine|mol2|2|dock8
    26    26     1
SMALL
NO_CHARGES


@<TRIPOS>ATOM
      1 C1          -4.9255 -10.6491   9.8960 C.3            1 <1>                0.0000
      2 C2          -3.5557 -10.0823   9.5176 C.3            1 <1>                0.0000
      3 N3          -2.5022 -10.9887   9.9938 N.4            1 <1>                0.0000
      4 H4          -2.6656 -11.9179   9.6363 H              1 <1>                0.0000
      5 C5          -2.5012 -11.0172  11.4719 C.3            1 <1>                0.0000
      6 C6          -1.0075 -11.1377  11.8643 C.3            1 <1>                0.0000
      7 C7          -0.3284 -10.2495  10.7887 C.3            1 <1>                0.0000
      8 C8          -1.1870 -10.5049   9.5356 C.3            1 <1>                0.0000
      9 C9          -0.5231 -11.5676   8.6575 C.3            1 <1>                0.0000
     10 N10          0.7464 -11.0464   8.1335 N.3            1 <1>                0.0000
     11 H11         -5.0533 -11.6286   9.4353 H              1 <1>                0.0000
     12 H12         -4.9919 -10.7458  10.9797 H              1 <1>                0.0000
     13 H13         -5.7071  -9.9766   9.5426 H              1 <1>                0.0000
     14 H14         -3.4893  -9.9857   8.4339 H              1 <1>                0.0000
     15 H15         -3.4278  -9.1027   9.9783 H              1 <1>                0.0000
     16 H16         -2.9249 -10.0950  11.8696 H              1 <1>                0.0000
     17 H17         -3.0597 -11.8799  11.8352 H              1 <1>                0.0000
     18 H18         -0.8334 -10.7413  12.8646 H              1 <1>                0.0000
     19 H19         -0.6664 -12.1702  11.7903 H              1 <1>                0.0000
     20 H20         -0.3691  -9.1986  11.0749 H              1 <1>                0.0000
     21 H21          0.7016 -10.5653  10.6225 H              1 <1>                0.0000
     22 H22         -1.3073  -9.5788   8.9736 H              1 <1>                0.0000
     23 H23         -0.3316 -12.4615   9.2510 H              1 <1>                0.0000
     24 H24         -1.1837 -11.8172   7.8272 H              1 <1>                0.0000
     25 H25          0.8671 -11.2965   7.1635 H              1 <1>                0.0000
     26 H26          0.8067 -10.0472   8.2596 H              1 <1>                0.0000
@<TRIPOS>BOND
    1    1    2 1     
    2    1   11 1     
    3    1   12 1     
    4    1   13 1     
    5    2    3 1     
    6    2   14 1     
    7    2   15 1     
    8    3    4 1     
    9    3    8 1     
   10    3    5 1     
   11    5    6 1     
   12    5   16 1     
   13    5   17 1     
   14    6    7 1     
   15    6   18 1     
   16    6   19 1     
   17    7    8 1     
   18    7   20 1     
   19    7   21 1     
   20    8    9 1     
   21    8   22 1     
   22    9   10 1     
   23    9   23 1     
   24    9   24 1     
   25   10   25 1     
   26   10   26 1     
@<TRIPOS>SUBSTRUCTURE
      1 ****           1
@<TRIPOS>SET
DONOR_HYDROGENS      STATIC     ATOMS    <user>   **** ""
3 4 25 26
ATOM$RED        STATIC     ATOMS    COLORGROUP SYSTEM
3 4 25 26
@<TRIPOS>COMMENT
> <Gold.Version>
2022.2.0

> <Gold.Id.Protein>
3pbl|protein|mol2

> <Gold.Protein.RotatedTorsions>
[ 1303 1298 1297 1294 ] final  -66.73 input  179.99 | X-H torsion
[ 2461 2456 2455 2452 ] final   70.49 input   30.03 | X-H torsion
[ 2515 2510 2509 2506 ] final  160.53 input  -89.99 | X-H torsion
[ 3721 3712 3711 3710 ] final  -23.57 input -179.91 | X-H torsion
[ 3841 3832 3831 3830 ] final -135.85 input -179.91 | X-H torsion
[ 3767 3762 3761 3758 ] final -147.94 input  -89.99 | X-H torsion
[ 2472 2467 2466 2463 ] final -160.54 input  -89.97 | X-H torsion

> <Gold.Protein.ActiveResidues>
 VAL82   VAL86   LEU89   PHE106  VAL107  ASP110  VAL111  MET112  CYS114  THR115 
 CYS181  SER182  ILE183  PHE188  VAL189  ILE190  SER192  SER193  SER196  TRP342 
 PHE345  PHE346  HIS349  VAL350  TYR365  THR369  GLY372  TYR373 

> <Gold.Protein.RotatedAtoms>
    3.5602   -8.8847    3.7850 H   0  0  0  0  0  0  0  0  0  0  0  0  # atno 1303 bound_to 1298
    2.0186   -8.1099    7.4935 H   0  0  0  0  0  0  0  0  0  0  0  0  # atno 2461 bound_to 2456
   -5.1263   -5.4435    9.2424 H   0  0  0  0  0  0  0  0  0  0  0  0  # atno 2472 bound_to 2467
    2.2004   -8.7970    6.0120 H   0  0  0  0  0  0  0  0  0  0  0  0  # atno 2515 bound_to 2510
   -2.5700  -17.7672   14.5295 H   0  0  0  0  0  0  0  0  0  0  0  0  # atno 3721 bound_to 3712
   -4.4621  -22.1727   11.6467 H   0  0  0  0  0  0  0  0  0  0  0  0  # atno 3767 bound_to 3762
    2.4405  -19.6567    8.3796 H   0  0  0  0  0  0  0  0  0  0  0  0  # atno 3841 bound_to 3832
    4.8848   -8.9659    4.7363 LP  0  0  0  0  0  0  0  0  0  0  0  0  # atno 4297 bound_to 1298
    3.9174  -10.2709    4.5705 LP  0  0  0  0  0  0  0  0  0  0  0  0  # atno 4298 bound_to 1298
    0.4345   -8.4358    7.2660 LP  0  0  0  0  0  0  0  0  0  0  0  0  # atno 4299 bound_to 2456
    1.2850   -9.2623    8.3886 LP  0  0  0  0  0  0  0  0  0  0  0  0  # atno 4300 bound_to 2456
    2.2621   -7.4083    5.1556 LP  0  0  0  0  0  0  0  0  0  0  0  0  # atno 4301 bound_to 2510
    2.8343   -8.7936    4.5073 LP  0  0  0  0  0  0  0  0  0  0  0  0  # atno 4302 bound_to 2510
   -3.5418  -16.5649   14.0961 LP  0  0  0  0  0  0  0  0  0  0  0  0  # atno 4306 bound_to 3712
   -3.0188  -17.6489   12.9925 LP  0  0  0  0  0  0  0  0  0  0  0  0  # atno 4307 bound_to 3712
    2.9412  -21.0481    9.0036 LP  0  0  0  0  0  0  0  0  0  0  0  0  # atno 4314 bound_to 3832
    1.4689  -20.4507    9.3804 LP  0  0  0  0  0  0  0  0  0  0  0  0  # atno 4315 bound_to 3832
   -4.1716  -23.3260   10.5276 LP  0  0  0  0  0  0  0  0  0  0  0  0  # atno 4318 bound_to 3762
   -5.4936  -22.3763   10.3971 LP  0  0  0  0  0  0  0  0  0  0  0  0  # atno 4319 bound_to 3762
   -4.9507   -4.8753    7.7217 LP  0  0  0  0  0  0  0  0  0  0  0  0  # atno 4320 bound_to 2467
   -3.6401   -5.0748    8.6752 LP  0  0  0  0  0  0  0  0  0  0  0  0  # atno 4321 bound_to 2467

> <Gold.Score>
     Score     S(PLP)   S(hbond)     S(cho)   S(metal)  DE(clash)   DE(tors)     intcor
     38.56     -35.61       1.00       0.00       0.00       0.00       0.03       0.00

> <Gold.PLP.Fitness>
38.5646

> <Gold.PLP.PLP>
-35.6145

> <Gold.PLP.part.hbond>
-1.0000

> <Gold.PLP.part.metal>
0.0000

> <Gold.PLP.part.buried>
-4.6667

> <Gold.PLP.part.nonpolar>
-31.5346

> <Gold.PLP.part.repulsive>
0.0125

> <Gold.PLP.ligand.clash>
0.0000

> <Gold.PLP.ligand.torsion>
0.0257

> <Gold.PLP.Chemscore.Hbond>
1.0000

> <Gold.PLP.Chemscore.CHOScore>
0.0000

> <Gold.PLP.Chemscore.Metal>
0.0000

> <Gold.Chemscore.Hbonds>
donor molecule, donor type, donor heavy atom, donor atom, acceptor molecule, acceptor atom, score
      L1  H    10    26       P1  2456  1.00

> <Gold.PLP.Chemscore.Internal.Correction>
0.0015

