#       Name:                amine_i002
#       Creating user name   fsindt
#       Creation time:       Fri Aug 11 18:08:04 2023


#       File generated by GOLD software.
#

@<TRIPOS>MOLECULE
amine_i002|amine|mol2|2|dock6
    26    26     1
SMALL
NO_CHARGES


@<TRIPOS>ATOM
      1 C1           0.7962 -19.8273  11.7208 C.3            1 <1>                0.0000
      2 C2          -0.0446 -18.5492  11.7031 C.3            1 <1>                0.0000
      3 N3           0.8231 -17.3889  11.9453 N.4            1 <1>                0.0000
      4 H4           1.4560 -17.2693  11.1687 H              1 <1>                0.0000
      5 C5           1.5950 -17.5959  13.1890 C.3            1 <1>                0.0000
      6 C6           1.6905 -16.1906  13.8339 C.3            1 <1>                0.0000
      7 C7           0.2966 -15.5972  13.4997 C.3            1 <1>                0.0000
      8 C8          -0.0017 -16.1771  12.1042 C.3            1 <1>                0.0000
      9 C9           0.3676 -15.1560  11.0264 C.3            1 <1>                0.0000
     10 N10          0.2089 -15.7657   9.6994 N.3            1 <1>                0.0000
     11 H11          1.5563 -19.7730  10.9415 H              1 <1>                0.0000
     12 H12          1.2790 -19.9311  12.6926 H              1 <1>                0.0000
     13 H13          0.1524 -20.6883  11.5411 H              1 <1>                0.0000
     14 H14         -0.5273 -18.4454  10.7313 H              1 <1>                0.0000
     15 H15         -0.8048 -18.6034  12.4824 H              1 <1>                0.0000
     16 H16          1.0692 -18.2828  13.8521 H              1 <1>                0.0000
     17 H17          2.5903 -17.9762  12.9590 H              1 <1>                0.0000
     18 H18          1.8351 -16.2647  14.9118 H              1 <1>                0.0000
     19 H19          2.4854 -15.6033  13.3744 H              1 <1>                0.0000
     20 H20         -0.4479 -15.9316  14.2221 H              1 <1>                0.0000
     21 H21          0.3396 -14.5086  13.4648 H              1 <1>                0.0000
     22 H22         -1.0581 -16.4345  12.0278 H              1 <1>                0.0000
     23 H23         -0.2871 -14.2884  11.1082 H              1 <1>                0.0000
     24 H24          1.4032 -14.8438  11.1613 H              1 <1>                0.0000
     25 H25          0.1609 -15.0595   8.9803 H              1 <1>                0.0000
     26 H26          0.9516 -16.4226   9.5121 H              1 <1>                0.0000
@<TRIPOS>BOND
    1    1    2 1     
    2    1   11 1     
    3    1   12 1     
    4    1   13 1     
    5    2    3 1     
    6    2   14 1     
    7    2   15 1     
    8    3    4 1     
    9    3    8 1     
   10    3    5 1     
   11    5    6 1     
   12    5   16 1     
   13    5   17 1     
   14    6    7 1     
   15    6   18 1     
   16    6   19 1     
   17    7    8 1     
   18    7   20 1     
   19    7   21 1     
   20    8    9 1     
   21    8   22 1     
   22    9   10 1     
   23    9   23 1     
   24    9   24 1     
   25   10   25 1     
   26   10   26 1     
@<TRIPOS>SUBSTRUCTURE
      1 ****           1
@<TRIPOS>SET
DONOR_HYDROGENS      STATIC     ATOMS    <user>   **** ""
3 4 25 26
ATOM$RED        STATIC     ATOMS    COLORGROUP SYSTEM
3 4 25 26
@<TRIPOS>COMMENT
> <Gold.Version>
2022.2.0

> <Gold.Id.Protein>
3pbl|protein|mol2

> <Gold.Protein.RotatedTorsions>
[ 1303 1298 1297 1294 ] final  106.80 input  179.99 | X-H torsion
[ 2461 2456 2455 2452 ] final  165.54 input   30.03 | X-H torsion
[ 2515 2510 2509 2506 ] final  -31.26 input  -89.99 | X-H torsion
[ 3721 3712 3711 3710 ] final   29.41 input -179.91 | X-H torsion
[ 3841 3832 3831 3830 ] final -118.36 input -179.91 | X-H torsion
[ 3767 3762 3761 3758 ] final   84.70 input  -89.99 | X-H torsion
[ 2472 2467 2466 2463 ] final   48.01 input  -89.97 | X-H torsion

> <Gold.Protein.ActiveResidues>
 VAL82   VAL86   LEU89   PHE106  VAL107  ASP110  VAL111  MET112  CYS114  THR115 
 CYS181  SER182  ILE183  PHE188  VAL189  ILE190  SER192  SER193  SER196  TRP342 
 PHE345  PHE346  HIS349  VAL350  TYR365  THR369  GLY372  TYR373 

> <Gold.Protein.RotatedAtoms>
    4.6144   -9.9445    4.9288 H   0  0  0  0  0  0  0  0  0  0  0  0  # atno 1303 bound_to 1298
    1.6671   -9.1216    8.3814 H   0  0  0  0  0  0  0  0  0  0  0  0  # atno 2461 bound_to 2456
   -4.4472   -4.8027    7.6716 H   0  0  0  0  0  0  0  0  0  0  0  0  # atno 2472 bound_to 2467
    2.7268   -8.0421    4.3784 H   0  0  0  0  0  0  0  0  0  0  0  0  # atno 2515 bound_to 2510
   -2.4815  -18.0333   13.8093 H   0  0  0  0  0  0  0  0  0  0  0  0  # atno 3721 bound_to 3712
   -4.2518  -23.3349   10.4374 H   0  0  0  0  0  0  0  0  0  0  0  0  # atno 3767 bound_to 3762
    2.2017  -19.5898    8.4676 H   0  0  0  0  0  0  0  0  0  0  0  0  # atno 3841 bound_to 3832
    3.3385   -9.6889    3.9423 LP  0  0  0  0  0  0  0  0  0  0  0  0  # atno 4297 bound_to 1298
    4.4092   -8.4877    4.2203 LP  0  0  0  0  0  0  0  0  0  0  0  0  # atno 4298 bound_to 1298
    1.7392   -7.9548    7.2409 LP  0  0  0  0  0  0  0  0  0  0  0  0  # atno 4299 bound_to 2456
    0.3316   -8.7320    7.5260 LP  0  0  0  0  0  0  0  0  0  0  0  0  # atno 4300 bound_to 2456
    2.5239   -9.2387    5.4706 LP  0  0  0  0  0  0  0  0  0  0  0  0  # atno 4301 bound_to 2510
    2.0459   -7.7184    5.8267 LP  0  0  0  0  0  0  0  0  0  0  0  0  # atno 4302 bound_to 2510
   -3.2371  -16.9921   14.7701 LP  0  0  0  0  0  0  0  0  0  0  0  0  # atno 4306 bound_to 3712
   -3.4256  -16.9145   13.1499 LP  0  0  0  0  0  0  0  0  0  0  0  0  # atno 4307 bound_to 3712
    3.0716  -20.8995    8.7899 LP  0  0  0  0  0  0  0  0  0  0  0  0  # atno 4314 bound_to 3832
    1.6145  -20.6765    9.4925 LP  0  0  0  0  0  0  0  0  0  0  0  0  # atno 4315 bound_to 3832
   -5.5086  -22.2932   10.4835 LP  0  0  0  0  0  0  0  0  0  0  0  0  # atno 4318 bound_to 3762
   -4.3668  -22.2472   11.6501 LP  0  0  0  0  0  0  0  0  0  0  0  0  # atno 4319 bound_to 3762
   -3.8300   -5.2539    9.1144 LP  0  0  0  0  0  0  0  0  0  0  0  0  # atno 4320 bound_to 2467
   -5.4397   -5.3369    8.8530 LP  0  0  0  0  0  0  0  0  0  0  0  0  # atno 4321 bound_to 2467

> <Gold.Score>
     Score     S(PLP)   S(hbond)     S(cho)   S(metal)  DE(clash)   DE(tors)     intcor
     34.67     -25.74       3.00       0.00       0.00       0.00       0.04       0.00

> <Gold.PLP.Fitness>
34.6656

> <Gold.PLP.PLP>
-25.7362

> <Gold.PLP.part.hbond>
-2.0000

> <Gold.PLP.part.metal>
0.0000

> <Gold.PLP.part.buried>
-2.9554

> <Gold.PLP.part.nonpolar>
-20.7923

> <Gold.PLP.part.repulsive>
0.0000

> <Gold.PLP.ligand.clash>
0.0000

> <Gold.PLP.ligand.torsion>
0.0361

> <Gold.PLP.Chemscore.Hbond>
3.0000

> <Gold.PLP.Chemscore.CHOScore>
0.0000

> <Gold.PLP.Chemscore.Metal>
0.0000

> <Gold.Chemscore.Hbonds>
donor molecule, donor type, donor heavy atom, donor atom, acceptor molecule, acceptor atom, score
      L1  H     3     4       P1  1227  2.00
      L1  H    10    26       P1  1227  1.00

> <Gold.PLP.Chemscore.Internal.Correction>
0.0015

