#       Name:                amine_i002
#       Creating user name   fsindt
#       Creation time:       Fri Aug 11 18:08:10 2023


#       File generated by GOLD software.
#

@<TRIPOS>MOLECULE
amine_i002|amine|mol2|2|dock15
    26    26     1
SMALL
NO_CHARGES


@<TRIPOS>ATOM
      1 C1           0.0379 -19.6987  11.3661 C.3            1 <1>                0.0000
      2 C2           1.2173 -19.4092  12.2967 C.3            1 <1>                0.0000
      3 N3           1.4806 -17.9641  12.3185 N.4            1 <1>                0.0000
      4 H4           1.8469 -17.6714  11.4251 H              1 <1>                0.0000
      5 C5           2.4577 -17.6524  13.3833 C.3            1 <1>                0.0000
      6 C6           2.0026 -16.2843  13.9497 C.3            1 <1>                0.0000
      7 C7           0.4582 -16.4185  13.8900 C.3            1 <1>                0.0000
      8 C8           0.2306 -17.2363  12.6047 C.3            1 <1>                0.0000
      9 C9          -0.0984 -16.2978  11.4420 C.3            1 <1>                0.0000
     10 N10          1.0803 -15.4808  11.1237 N.3            1 <1>                0.0000
     11 H11         -0.8466 -19.1735  11.7264 H              1 <1>                0.0000
     12 H12          0.2777 -19.3577  10.3589 H              1 <1>                0.0000
     13 H13         -0.1574 -20.7709  11.3499 H              1 <1>                0.0000
     14 H14          0.9775 -19.7501  13.3039 H              1 <1>                0.0000
     15 H15          2.1020 -19.9342  11.9364 H              1 <1>                0.0000
     16 H16          2.4268 -18.4147  14.1617 H              1 <1>                0.0000
     17 H17          3.4618 -17.5753  12.9661 H              1 <1>                0.0000
     18 H18          2.3438 -16.1539  14.9767 H              1 <1>                0.0000
     19 H19          2.3482 -15.4658  13.3183 H              1 <1>                0.0000
     20 H20          0.0844 -16.9580  14.7601 H              1 <1>                0.0000
     21 H21         -0.0111 -15.4378  13.8124 H              1 <1>                0.0000
     22 H22         -0.5848 -17.9439  12.7551 H              1 <1>                0.0000
     23 H23         -0.3793 -16.8861  10.5686 H              1 <1>                0.0000
     24 H24         -0.9263 -15.6470  11.7236 H              1 <1>                0.0000
     25 H25          1.4620 -15.0571  11.9561 H              1 <1>                0.0000
     26 H26          1.7793 -16.0267  10.6426 H              1 <1>                0.0000
@<TRIPOS>BOND
    1    1    2 1     
    2    1   11 1     
    3    1   12 1     
    4    1   13 1     
    5    2    3 1     
    6    2   14 1     
    7    2   15 1     
    8    3    4 1     
    9    3    8 1     
   10    3    5 1     
   11    5    6 1     
   12    5   16 1     
   13    5   17 1     
   14    6    7 1     
   15    6   18 1     
   16    6   19 1     
   17    7    8 1     
   18    7   20 1     
   19    7   21 1     
   20    8    9 1     
   21    8   22 1     
   22    9   10 1     
   23    9   23 1     
   24    9   24 1     
   25   10   25 1     
   26   10   26 1     
@<TRIPOS>SUBSTRUCTURE
      1 ****           1
@<TRIPOS>SET
DONOR_HYDROGENS      STATIC     ATOMS    <user>   **** ""
3 4 25 26
ATOM$RED        STATIC     ATOMS    COLORGROUP SYSTEM
3 4 25 26
@<TRIPOS>COMMENT
> <Gold.Version>
2022.2.0

> <Gold.Id.Protein>
3pbl|protein|mol2

> <Gold.Protein.RotatedTorsions>
[ 1303 1298 1297 1294 ] final   34.24 input  179.99 | X-H torsion
[ 2461 2456 2455 2452 ] final -151.86 input   30.03 | X-H torsion
[ 2515 2510 2509 2506 ] final  -79.06 input  -89.99 | X-H torsion
[ 3721 3712 3711 3710 ] final   47.11 input -179.91 | X-H torsion
[ 3841 3832 3831 3830 ] final  -22.66 input -179.91 | X-H torsion
[ 3767 3762 3761 3758 ] final   98.81 input  -89.99 | X-H torsion
[ 2472 2467 2466 2463 ] final  -14.99 input  -89.97 | X-H torsion

> <Gold.Protein.ActiveResidues>
 VAL82   VAL86   LEU89   PHE106  VAL107  ASP110  VAL111  MET112  CYS114  THR115 
 CYS181  SER182  ILE183  PHE188  VAL189  ILE190  SER192  SER193  SER196  TRP342 
 PHE345  PHE346  HIS349  VAL350  TYR365  THR369  GLY372  TYR373 

> <Gold.Protein.RotatedAtoms>
    3.6790  -10.2063    4.3804 H   0  0  0  0  0  0  0  0  0  0  0  0  # atno 1303 bound_to 1298
    1.0058   -9.2885    8.3173 H   0  0  0  0  0  0  0  0  0  0  0  0  # atno 2461 bound_to 2456
   -3.6873   -4.9396    8.2836 H   0  0  0  0  0  0  0  0  0  0  0  0  # atno 2472 bound_to 2467
    2.8345   -8.7876    4.5041 H   0  0  0  0  0  0  0  0  0  0  0  0  # atno 2515 bound_to 2510
   -2.5320  -17.9852   13.5521 H   0  0  0  0  0  0  0  0  0  0  0  0  # atno 3721 bound_to 3712
   -4.1049  -23.3070   10.6142 H   0  0  0  0  0  0  0  0  0  0  0  0  # atno 3767 bound_to 3762
    1.5931  -20.2182    9.4070 H   0  0  0  0  0  0  0  0  0  0  0  0  # atno 3841 bound_to 3832
    3.7731   -8.6657    3.8473 LP  0  0  0  0  0  0  0  0  0  0  0  0  # atno 4297 bound_to 1298
    4.9103   -9.2490    4.8639 LP  0  0  0  0  0  0  0  0  0  0  0  0  # atno 4298 bound_to 1298
    2.1309   -8.2779    7.7005 LP  0  0  0  0  0  0  0  0  0  0  0  0  # atno 4299 bound_to 2456
    0.6010   -8.2420    7.1305 LP  0  0  0  0  0  0  0  0  0  0  0  0  # atno 4300 bound_to 2456
    2.2026   -8.8030    6.0095 LP  0  0  0  0  0  0  0  0  0  0  0  0  # atno 4301 bound_to 2510
    2.2594   -7.4083    5.1619 LP  0  0  0  0  0  0  0  0  0  0  0  0  # atno 4302 bound_to 2510
   -3.0913  -17.2333   14.8558 LP  0  0  0  0  0  0  0  0  0  0  0  0  # atno 4306 bound_to 3712
   -3.5132  -16.7288   13.3611 LP  0  0  0  0  0  0  0  0  0  0  0  0  # atno 4307 bound_to 3712
    2.4854  -19.7772    8.1479 LP  0  0  0  0  0  0  0  0  0  0  0  0  # atno 4314 bound_to 3832
    2.9036  -21.0730    9.0492 LP  0  0  0  0  0  0  0  0  0  0  0  0  # atno 4315 bound_to 3832
   -5.4683  -22.4563   10.3242 LP  0  0  0  0  0  0  0  0  0  0  0  0  # atno 4318 bound_to 3762
   -4.5539  -22.1120   11.6326 LP  0  0  0  0  0  0  0  0  0  0  0  0  # atno 4319 bound_to 3762
   -4.7458   -5.4620    9.4120 LP  0  0  0  0  0  0  0  0  0  0  0  0  # atno 4320 bound_to 2467
   -5.2836   -4.9919    7.9435 LP  0  0  0  0  0  0  0  0  0  0  0  0  # atno 4321 bound_to 2467

> <Gold.Score>
     Score     S(PLP)   S(hbond)     S(cho)   S(metal)  DE(clash)   DE(tors)     intcor
     33.70     -24.85       3.00       0.00       0.00       0.00       0.08       0.00

> <Gold.PLP.Fitness>
33.7011

> <Gold.PLP.PLP>
-24.8498

> <Gold.PLP.part.hbond>
-2.0000

> <Gold.PLP.part.metal>
0.0000

> <Gold.PLP.part.buried>
-3.1622

> <Gold.PLP.part.nonpolar>
-19.8843

> <Gold.PLP.part.repulsive>
0.0000

> <Gold.PLP.ligand.clash>
0.0000

> <Gold.PLP.ligand.torsion>
0.0751

> <Gold.PLP.Chemscore.Hbond>
3.0000

> <Gold.PLP.Chemscore.CHOScore>
0.0000

> <Gold.PLP.Chemscore.Metal>
0.0000

> <Gold.Chemscore.Hbonds>
donor molecule, donor type, donor heavy atom, donor atom, acceptor molecule, acceptor atom, score
      L1  H     3     4       P1  1227  2.00
      L1  H    10    26       P1  1227  1.00

> <Gold.PLP.Chemscore.Internal.Correction>
0.0015

