#       Name:                amine_i002
#       Creating user name   fsindt
#       Creation time:       Fri Aug 11 18:08:11 2023


#       File generated by GOLD software.
#

@<TRIPOS>MOLECULE
amine_i002|amine|mol2|2|dock17
    26    26     1
SMALL
NO_CHARGES


@<TRIPOS>ATOM
      1 C1          -0.7005 -18.5885  10.1768 C.3            1 <1>                0.0000
      2 C2           0.0421 -19.1487  11.3914 C.3            1 <1>                0.0000
      3 N3           0.8943 -18.1014  11.9702 N.4            1 <1>                0.0000
      4 H4           1.5126 -17.7357  11.2617 H              1 <1>                0.0000
      5 C5           1.6893 -18.6648  13.0820 C.3            1 <1>                0.0000
      6 C6           1.7718 -17.5243  14.1271 C.3            1 <1>                0.0000
      7 C7           0.3630 -16.8858  14.0059 C.3            1 <1>                0.0000
      8 C8           0.0521 -17.0146  12.5028 C.3            1 <1>                0.0000
      9 C9           0.3871 -15.7040  11.7879 C.3            1 <1>                0.0000
     10 N10          1.8420 -15.5996  11.6133 N.3            1 <1>                0.0000
     11 H11         -1.3193 -17.7461  10.4860 H              1 <1>                0.0000
     12 H12          0.0216 -18.2545   9.4317 H              1 <1>                0.0000
     13 H13         -1.3328 -19.3655   9.7473 H              1 <1>                0.0000
     14 H14         -0.6800 -19.4826  12.1365 H              1 <1>                0.0000
     15 H15          0.6611 -19.9910  11.0823 H              1 <1>                0.0000
     16 H16          1.1857 -19.5331  13.5068 H              1 <1>                0.0000
     17 H17          2.6870 -18.9353  12.7360 H              1 <1>                0.0000
     18 H18          1.9348 -17.9232  15.1283 H              1 <1>                0.0000
     19 H19          2.5494 -16.8078  13.8626 H              1 <1>                0.0000
     20 H20         -0.3641 -17.4415  14.5978 H              1 <1>                0.0000
     21 H21          0.3874 -15.8386  14.3073 H              1 <1>                0.0000
     22 H22         -1.0010 -17.2578  12.3616 H              1 <1>                0.0000
     23 H23         -0.0980 -15.6882  10.8120 H              1 <1>                0.0000
     24 H24          0.0315 -14.8637  12.3842 H              1 <1>                0.0000
     25 H25          2.2034 -16.3940  11.1071 H              1 <1>                0.0000
     26 H26          2.0900 -14.7355  11.1551 H              1 <1>                0.0000
@<TRIPOS>BOND
    1    1    2 1     
    2    1   11 1     
    3    1   12 1     
    4    1   13 1     
    5    2    3 1     
    6    2   14 1     
    7    2   15 1     
    8    3    4 1     
    9    3    8 1     
   10    3    5 1     
   11    5    6 1     
   12    5   16 1     
   13    5   17 1     
   14    6    7 1     
   15    6   18 1     
   16    6   19 1     
   17    7    8 1     
   18    7   20 1     
   19    7   21 1     
   20    8    9 1     
   21    8   22 1     
   22    9   10 1     
   23    9   23 1     
   24    9   24 1     
   25   10   25 1     
   26   10   26 1     
@<TRIPOS>SUBSTRUCTURE
      1 ****           1
@<TRIPOS>SET
DONOR_HYDROGENS      STATIC     ATOMS    <user>   **** ""
3 4 25 26
ATOM$RED        STATIC     ATOMS    COLORGROUP SYSTEM
3 4 25 26
@<TRIPOS>COMMENT
> <Gold.Version>
2022.2.0

> <Gold.Id.Protein>
3pbl|protein|mol2

> <Gold.Protein.RotatedTorsions>
[ 1303 1298 1297 1294 ] final  115.58 input  179.99 | X-H torsion
[ 2461 2456 2455 2452 ] final  -18.94 input   30.03 | X-H torsion
[ 2515 2510 2509 2506 ] final   47.61 input  -89.99 | X-H torsion
[ 3721 3712 3711 3710 ] final  159.92 input -179.91 | X-H torsion
[ 3841 3832 3831 3830 ] final -175.82 input -179.91 | X-H torsion
[ 3767 3762 3761 3758 ] final   27.88 input  -89.99 | X-H torsion
[ 2472 2467 2466 2463 ] final   41.71 input  -89.97 | X-H torsion

> <Gold.Protein.ActiveResidues>
 VAL82   VAL86   LEU89   PHE106  VAL107  ASP110  VAL111  MET112  CYS114  THR115 
 CYS181  SER182  ILE183  PHE188  VAL189  ILE190  SER192  SER193  SER196  TRP342 
 PHE345  PHE346  HIS349  VAL350  TYR365  THR369  GLY372  TYR373 

> <Gold.Protein.RotatedAtoms>
    4.7029   -9.8319    4.9467 H   0  0  0  0  0  0  0  0  0  0  0  0  # atno 1303 bound_to 1298
    0.7624   -8.1205    7.0656 H   0  0  0  0  0  0  0  0  0  0  0  0  # atno 2461 bound_to 2456
   -4.3460   -4.7994    7.6934 H   0  0  0  0  0  0  0  0  0  0  0  0  # atno 2472 bound_to 2467
    2.2185   -7.4159    5.2632 H   0  0  0  0  0  0  0  0  0  0  0  0  # atno 2515 bound_to 2510
   -3.2551  -16.7629   13.2965 H   0  0  0  0  0  0  0  0  0  0  0  0  # atno 3721 bound_to 3712
   -5.0106  -23.0355   10.0634 H   0  0  0  0  0  0  0  0  0  0  0  0  # atno 3767 bound_to 3762
    2.9201  -20.0030    8.3927 H   0  0  0  0  0  0  0  0  0  0  0  0  # atno 3841 bound_to 3832
    3.3657   -9.8137    4.0097 LP  0  0  0  0  0  0  0  0  0  0  0  0  # atno 4297 bound_to 1298
    4.2933   -8.4756    4.1350 LP  0  0  0  0  0  0  0  0  0  0  0  0  # atno 4298 bound_to 1298
    0.8144   -9.2663    8.2283 LP  0  0  0  0  0  0  0  0  0  0  0  0  # atno 4299 bound_to 2456
    2.1607   -8.4212    7.8541 LP  0  0  0  0  0  0  0  0  0  0  0  0  # atno 4300 bound_to 2456
    2.8356   -8.6914    4.4519 LP  0  0  0  0  0  0  0  0  0  0  0  0  # atno 4301 bound_to 2510
    2.2427   -8.8923    5.9601 LP  0  0  0  0  0  0  0  0  0  0  0  0  # atno 4302 bound_to 2510
   -2.6430  -18.1998   13.6688 LP  0  0  0  0  0  0  0  0  0  0  0  0  # atno 4306 bound_to 3712
   -3.1266  -17.1735   14.8433 LP  0  0  0  0  0  0  0  0  0  0  0  0  # atno 4307 bound_to 3712
    2.4358  -21.1489    9.4068 LP  0  0  0  0  0  0  0  0  0  0  0  0  # atno 4314 bound_to 3832
    1.4204  -19.9499    8.9620 LP  0  0  0  0  0  0  0  0  0  0  0  0  # atno 4315 bound_to 3832
   -5.2021  -21.9177   11.2385 LP  0  0  0  0  0  0  0  0  0  0  0  0  # atno 4318 bound_to 3762
   -3.9148  -22.9220   11.2689 LP  0  0  0  0  0  0  0  0  0  0  0  0  # atno 4319 bound_to 3762
   -3.8973   -5.2871    9.1858 LP  0  0  0  0  0  0  0  0  0  0  0  0  # atno 4320 bound_to 2467
   -5.4736   -5.3070    8.7598 LP  0  0  0  0  0  0  0  0  0  0  0  0  # atno 4321 bound_to 2467

> <Gold.Score>
     Score     S(PLP)   S(hbond)     S(cho)   S(metal)  DE(clash)   DE(tors)     intcor
     33.00     -24.32       3.00       0.00       0.00       0.00       0.16       0.00

> <Gold.PLP.Fitness>
32.9968

> <Gold.PLP.PLP>
-24.3192

> <Gold.PLP.part.hbond>
-2.0000

> <Gold.PLP.part.metal>
0.0000

> <Gold.PLP.part.buried>
-3.3852

> <Gold.PLP.part.nonpolar>
-18.8254

> <Gold.PLP.part.repulsive>
0.0000

> <Gold.PLP.ligand.clash>
0.0000

> <Gold.PLP.ligand.torsion>
0.1619

> <Gold.PLP.Chemscore.Hbond>
3.0000

> <Gold.PLP.Chemscore.CHOScore>
0.0000

> <Gold.PLP.Chemscore.Metal>
0.0000

> <Gold.Chemscore.Hbonds>
donor molecule, donor type, donor heavy atom, donor atom, acceptor molecule, acceptor atom, score
      L1  H     3     4       P1  1227  2.00
      L1  H    10    25       P1  1227  1.00

> <Gold.PLP.Chemscore.Internal.Correction>
0.0015

