#       Name:                amine_i002
#       Creating user name   fsindt
#       Creation time:       Fri Aug 11 18:08:07 2023


#       File generated by GOLD software.
#

@<TRIPOS>MOLECULE
amine_i002|amine|mol2|2|dock11
    26    26     1
SMALL
NO_CHARGES


@<TRIPOS>ATOM
      1 C1          -1.4576 -11.9617  10.4740 C.3            1 <1>                0.0000
      2 C2          -1.1404 -11.6151   9.0180 C.3            1 <1>                0.0000
      3 N3           0.1936 -12.1243   8.6728 N.4            1 <1>                0.0000
      4 H4           0.8742 -11.7654   9.3255 H              1 <1>                0.0000
      5 C5           0.5481 -11.7014   7.3013 C.3            1 <1>                0.0000
      6 C6           1.3418 -12.8941   6.7122 C.3            1 <1>                0.0000
      7 C7           0.5860 -14.1046   7.3207 C.3            1 <1>                0.0000
      8 C8           0.1897 -13.5980   8.7203 C.3            1 <1>                0.0000
      9 C9           1.2050 -14.0840   9.7566 C.3            1 <1>                0.0000
     10 N10          0.9846 -15.5111  10.0260 N.3            1 <1>                0.0000
     11 H11         -1.4372 -13.0439  10.6026 H              1 <1>                0.0000
     12 H12         -0.7139 -11.5044  11.1267 H              1 <1>                0.0000
     13 H13         -2.4473 -11.5839  10.7302 H              1 <1>                0.0000
     14 H14         -1.8840 -12.0725   8.3654 H              1 <1>                0.0000
     15 H15         -1.1606 -10.5328   8.8894 H              1 <1>                0.0000
     16 H16         -0.3529 -11.5188   6.7157 H              1 <1>                0.0000
     17 H17          1.1713 -10.8075   7.3290 H              1 <1>                0.0000
     18 H18          1.2820 -12.9035   5.6239 H              1 <1>                0.0000
     19 H19          2.3797 -12.8746   7.0444 H              1 <1>                0.0000
     20 H20         -0.3004 -14.3408   6.7322 H              1 <1>                0.0000
     21 H21          1.2429 -14.9712   7.3950 H              1 <1>                0.0000
     22 H22         -0.8065 -13.9585   8.9767 H              1 <1>                0.0000
     23 H23          2.2145 -13.9385   9.3722 H              1 <1>                0.0000
     24 H24          1.0822 -13.5168  10.6793 H              1 <1>                0.0000
     25 H25          0.1039 -15.8197   9.6426 H              1 <1>                0.0000
     26 H26          1.7480 -16.0680   9.6722 H              1 <1>                0.0000
@<TRIPOS>BOND
    1    1    2 1     
    2    1   11 1     
    3    1   12 1     
    4    1   13 1     
    5    2    3 1     
    6    2   14 1     
    7    2   15 1     
    8    3    4 1     
    9    3    8 1     
   10    3    5 1     
   11    5    6 1     
   12    5   16 1     
   13    5   17 1     
   14    6    7 1     
   15    6   18 1     
   16    6   19 1     
   17    7    8 1     
   18    7   20 1     
   19    7   21 1     
   20    8    9 1     
   21    8   22 1     
   22    9   10 1     
   23    9   23 1     
   24    9   24 1     
   25   10   25 1     
   26   10   26 1     
@<TRIPOS>SUBSTRUCTURE
      1 ****           1
@<TRIPOS>SET
DONOR_HYDROGENS      STATIC     ATOMS    <user>   **** ""
3 4 25 26
ATOM$RED        STATIC     ATOMS    COLORGROUP SYSTEM
3 4 25 26
@<TRIPOS>COMMENT
> <Gold.Version>
2022.2.0

> <Gold.Id.Protein>
3pbl|protein|mol2

> <Gold.Protein.RotatedTorsions>
[ 1303 1298 1297 1294 ] final -115.53 input  179.99 | X-H torsion
[ 2461 2456 2455 2452 ] final -159.86 input   30.03 | X-H torsion
[ 2515 2510 2509 2506 ] final   -6.60 input  -89.99 | X-H torsion
[ 3721 3712 3711 3710 ] final   58.09 input -179.91 | X-H torsion
[ 3841 3832 3831 3830 ] final -155.78 input -179.91 | X-H torsion
[ 3767 3762 3761 3758 ] final  -70.88 input  -89.99 | X-H torsion
[ 2472 2467 2466 2463 ] final  -80.38 input  -89.97 | X-H torsion

> <Gold.Protein.ActiveResidues>
 VAL82   VAL86   LEU89   PHE106  VAL107  ASP110  VAL111  MET112  CYS114  THR115 
 CYS181  SER182  ILE183  PHE188  VAL189  ILE190  SER192  SER193  SER196  TRP342 
 PHE345  PHE346  HIS349  VAL350  TYR365  THR369  GLY372  TYR373 

> <Gold.Protein.RotatedAtoms>
    4.1716   -8.4848    4.0547 H   0  0  0  0  0  0  0  0  0  0  0  0  # atno 1303 bound_to 1298
    1.1311   -9.2847    8.3572 H   0  0  0  0  0  0  0  0  0  0  0  0  # atno 2461 bound_to 2456
   -3.9213   -5.2984    9.2076 H   0  0  0  0  0  0  0  0  0  0  0  0  # atno 2472 bound_to 2467
    2.5849   -7.7026    4.5414 H   0  0  0  0  0  0  0  0  0  0  0  0  # atno 2515 bound_to 2510
   -2.5814  -17.9214   13.4074 H   0  0  0  0  0  0  0  0  0  0  0  0  # atno 3721 bound_to 3712
   -5.3976  -21.9890   10.9602 H   0  0  0  0  0  0  0  0  0  0  0  0  # atno 3767 bound_to 3762
    2.7009  -19.8013    8.3477 H   0  0  0  0  0  0  0  0  0  0  0  0  # atno 3841 bound_to 3832
    4.7791   -9.7073    4.9506 LP  0  0  0  0  0  0  0  0  0  0  0  0  # atno 4297 bound_to 1298
    3.4114   -9.9296    4.0864 LP  0  0  0  0  0  0  0  0  0  0  0  0  # atno 4298 bound_to 1298
    2.0898   -8.1971    7.6053 LP  0  0  0  0  0  0  0  0  0  0  0  0  # atno 4299 bound_to 2456
    0.5169   -8.3266    7.1857 LP  0  0  0  0  0  0  0  0  0  0  0  0  # atno 4300 bound_to 2456
    2.6795   -9.2341    5.0993 LP  0  0  0  0  0  0  0  0  0  0  0  0  # atno 4301 bound_to 2510
    2.0322   -8.0627    6.0349 LP  0  0  0  0  0  0  0  0  0  0  0  0  # atno 4302 bound_to 2510
   -2.9997  -17.3917   14.8642 LP  0  0  0  0  0  0  0  0  0  0  0  0  # atno 4306 bound_to 3712
   -3.5477  -16.6441   13.5198 LP  0  0  0  0  0  0  0  0  0  0  0  0  # atno 4307 bound_to 3712
    2.7168  -21.1434    9.2279 LP  0  0  0  0  0  0  0  0  0  0  0  0  # atno 4314 bound_to 3832
    1.3926  -20.1885    9.1929 LP  0  0  0  0  0  0  0  0  0  0  0  0  # atno 4315 bound_to 3832
   -4.0088  -22.6678   11.4867 LP  0  0  0  0  0  0  0  0  0  0  0  0  # atno 4318 bound_to 3762
   -4.7212  -23.2180   10.1242 LP  0  0  0  0  0  0  0  0  0  0  0  0  # atno 4319 bound_to 3762
   -5.4824   -5.2967    8.7285 LP  0  0  0  0  0  0  0  0  0  0  0  0  # atno 4320 bound_to 2467
   -4.3131   -4.7985    7.7032 LP  0  0  0  0  0  0  0  0  0  0  0  0  # atno 4321 bound_to 2467

> <Gold.Score>
     Score     S(PLP)   S(hbond)     S(cho)   S(metal)  DE(clash)   DE(tors)     intcor
     34.24     -31.46       1.00       0.00       0.00       0.00       0.11       0.00

> <Gold.PLP.Fitness>
34.2447

> <Gold.PLP.PLP>
-31.4635

> <Gold.PLP.part.hbond>
-1.0000

> <Gold.PLP.part.metal>
0.0000

> <Gold.PLP.part.buried>
-3.3952

> <Gold.PLP.part.nonpolar>
-27.3005

> <Gold.PLP.part.repulsive>
0.0000

> <Gold.PLP.ligand.clash>
0.0000

> <Gold.PLP.ligand.torsion>
0.1102

> <Gold.PLP.Chemscore.Hbond>
1.0000

> <Gold.PLP.Chemscore.CHOScore>
0.0000

> <Gold.PLP.Chemscore.Metal>
0.0000

> <Gold.Chemscore.Hbonds>
donor molecule, donor type, donor heavy atom, donor atom, acceptor molecule, acceptor atom, score
      L1  H    10    26       P1  1227  1.00

> <Gold.PLP.Chemscore.Internal.Correction>
0.0015

