#       Name:                amine_i002
#       Creating user name   fsindt
#       Creation time:       Fri Aug 11 18:08:05 2023


#       File generated by GOLD software.
#

@<TRIPOS>MOLECULE
amine_i002|amine|mol2|2|dock7
    26    26     1
SMALL
NO_CHARGES


@<TRIPOS>ATOM
      1 C1          -0.6463 -14.3330  11.9687 C.3            1 <1>                0.0000
      2 C2           0.5077 -14.9050  11.1428 C.3            1 <1>                0.0000
      3 N3           0.8019 -16.2719  11.5934 N.4            1 <1>                0.0000
      4 H4           1.5550 -16.6568  11.0432 H              1 <1>                0.0000
      5 C5          -0.4036 -17.1148  11.4457 C.3            1 <1>                0.0000
      6 C6          -0.3672 -18.0739  12.6616 C.3            1 <1>                0.0000
      7 C7           0.1876 -17.1470  13.7752 C.3            1 <1>                0.0000
      8 C8           1.1866 -16.2531  13.0166 C.3            1 <1>                0.0000
      9 C9           2.6044 -16.8058  13.1757 C.3            1 <1>                0.0000
     10 N10          2.7621 -17.9989  12.3335 N.3            1 <1>                0.0000
     11 H11         -1.5305 -14.9569  11.8383 H              1 <1>                0.0000
     12 H12         -0.3658 -14.3160  13.0219 H              1 <1>                0.0000
     13 H13         -0.8646 -13.3188  11.6344 H              1 <1>                0.0000
     14 H14          0.2271 -14.9221  10.0897 H              1 <1>                0.0000
     15 H15          1.3920 -14.2812  11.2732 H              1 <1>                0.0000
     16 H16         -1.3028 -16.4994  11.4745 H              1 <1>                0.0000
     17 H17         -0.3595 -17.6803  10.5149 H              1 <1>                0.0000
     18 H18         -1.3679 -18.4272  12.9103 H              1 <1>                0.0000
     19 H19          0.3064 -18.9109  12.4786 H              1 <1>                0.0000
     20 H20         -0.6113 -16.5470  14.2107 H              1 <1>                0.0000
     21 H21          0.6961 -17.7295  14.5435 H              1 <1>                0.0000
     22 H22          1.1382 -15.2342  13.4008 H              1 <1>                0.0000
     23 H23          3.3261 -16.0479  12.8710 H              1 <1>                0.0000
     24 H24          2.7756 -17.0721  14.2188 H              1 <1>                0.0000
     25 H25          2.7564 -17.7540  11.3547 H              1 <1>                0.0000
     26 H26          3.6018 -18.5036  12.5750 H              1 <1>                0.0000
@<TRIPOS>BOND
    1    1    2 1     
    2    1   11 1     
    3    1   12 1     
    4    1   13 1     
    5    2    3 1     
    6    2   14 1     
    7    2   15 1     
    8    3    4 1     
    9    3    8 1     
   10    3    5 1     
   11    5    6 1     
   12    5   16 1     
   13    5   17 1     
   14    6    7 1     
   15    6   18 1     
   16    6   19 1     
   17    7    8 1     
   18    7   20 1     
   19    7   21 1     
   20    8    9 1     
   21    8   22 1     
   22    9   10 1     
   23    9   23 1     
   24    9   24 1     
   25   10   25 1     
   26   10   26 1     
@<TRIPOS>SUBSTRUCTURE
      1 ****           1
@<TRIPOS>SET
DONOR_HYDROGENS      STATIC     ATOMS    <user>   **** ""
3 4 25 26
ATOM$RED        STATIC     ATOMS    COLORGROUP SYSTEM
3 4 25 26
@<TRIPOS>COMMENT
> <Gold.Version>
2022.2.0

> <Gold.Id.Protein>
3pbl|protein|mol2

> <Gold.Protein.RotatedTorsions>
[ 1303 1298 1297 1294 ] final  -78.44 input  179.99 | X-H torsion
[ 2461 2456 2455 2452 ] final  -97.37 input   30.03 | X-H torsion
[ 2515 2510 2509 2506 ] final  -78.60 input  -89.99 | X-H torsion
[ 3721 3712 3711 3710 ] final  -87.83 input -179.91 | X-H torsion
[ 3841 3832 3831 3830 ] final   86.30 input -179.91 | X-H torsion
[ 3767 3762 3761 3758 ] final -112.37 input  -89.99 | X-H torsion
[ 2472 2467 2466 2463 ] final  -24.77 input  -89.97 | X-H torsion

> <Gold.Protein.ActiveResidues>
 VAL82   VAL86   LEU89   PHE106  VAL107  ASP110  VAL111  MET112  CYS114  THR115 
 CYS181  SER182  ILE183  PHE188  VAL189  ILE190  SER192  SER193  SER196  TRP342 
 PHE345  PHE346  HIS349  VAL350  TYR365  THR369  GLY372  TYR373 

> <Gold.Protein.RotatedAtoms>
    3.6852   -8.7420    3.8165 H   0  0  0  0  0  0  0  0  0  0  0  0  # atno 1303 bound_to 1298
    0.3873   -8.9841    7.7974 H   0  0  0  0  0  0  0  0  0  0  0  0  # atno 2461 bound_to 2456
   -3.6475   -4.9885    8.4313 H   0  0  0  0  0  0  0  0  0  0  0  0  # atno 2472 bound_to 2467
    2.8348   -8.7812    4.5003 H   0  0  0  0  0  0  0  0  0  0  0  0  # atno 2515 bound_to 2510
   -3.0090  -16.9749   14.6976 H   0  0  0  0  0  0  0  0  0  0  0  0  # atno 3721 bound_to 3712
   -4.9523  -21.9380   11.4554 H   0  0  0  0  0  0  0  0  0  0  0  0  # atno 3767 bound_to 3762
    2.8019  -20.9344    9.2998 H   0  0  0  0  0  0  0  0  0  0  0  0  # atno 3841 bound_to 3832
    4.9107   -9.1368    4.8207 LP  0  0  0  0  0  0  0  0  0  0  0  0  # atno 4297 bound_to 1298
    3.7664  -10.2428    4.4547 LP  0  0  0  0  0  0  0  0  0  0  0  0  # atno 4298 bound_to 1298
    1.9502   -8.9058    8.2646 LP  0  0  0  0  0  0  0  0  0  0  0  0  # atno 4299 bound_to 2456
    1.4000   -7.9184    7.0861 LP  0  0  0  0  0  0  0  0  0  0  0  0  # atno 4300 bound_to 2456
    2.2052   -8.8093    6.0065 LP  0  0  0  0  0  0  0  0  0  0  0  0  # atno 4301 bound_to 2510
    2.2565   -7.4084    5.1689 LP  0  0  0  0  0  0  0  0  0  0  0  0  # atno 4302 bound_to 2510
   -3.4244  -16.9170   13.1478 LP  0  0  0  0  0  0  0  0  0  0  0  0  # atno 4306 bound_to 3712
   -2.6294  -18.2116   13.7466 LP  0  0  0  0  0  0  0  0  0  0  0  0  # atno 4307 bound_to 3712
    1.3915  -20.1772    9.1834 LP  0  0  0  0  0  0  0  0  0  0  0  0  # atno 4314 bound_to 3832
    2.6011  -19.8457    8.1376 LP  0  0  0  0  0  0  0  0  0  0  0  0  # atno 4315 bound_to 3832
   -3.9257  -23.1269   11.0090 LP  0  0  0  0  0  0  0  0  0  0  0  0  # atno 4318 bound_to 3762
   -5.2495  -22.8099   10.1069 LP  0  0  0  0  0  0  0  0  0  0  0  0  # atno 4319 bound_to 3762
   -4.8997   -5.4624    9.3661 LP  0  0  0  0  0  0  0  0  0  0  0  0  # atno 4320 bound_to 2467
   -5.1695   -4.9426    7.8417 LP  0  0  0  0  0  0  0  0  0  0  0  0  # atno 4321 bound_to 2467

> <Gold.Score>
     Score     S(PLP)   S(hbond)     S(cho)   S(metal)  DE(clash)   DE(tors)     intcor
     34.17     -25.41       3.00       0.00       0.00       0.00       0.12       0.00

> <Gold.PLP.Fitness>
34.1690

> <Gold.PLP.PLP>
-25.4120

> <Gold.PLP.part.hbond>
-2.0000

> <Gold.PLP.part.metal>
0.0000

> <Gold.PLP.part.buried>
-2.7087

> <Gold.PLP.part.nonpolar>
-20.4306

> <Gold.PLP.part.repulsive>
0.0000

> <Gold.PLP.ligand.clash>
0.0000

> <Gold.PLP.ligand.torsion>
0.1223

> <Gold.PLP.Chemscore.Hbond>
3.0000

> <Gold.PLP.Chemscore.CHOScore>
0.0000

> <Gold.PLP.Chemscore.Metal>
0.0000

> <Gold.Chemscore.Hbonds>
donor molecule, donor type, donor heavy atom, donor atom, acceptor molecule, acceptor atom, score
      L1  H     3     4       P1  1227  2.00
      L1  H    10    25       P1  1227  1.00

> <Gold.PLP.Chemscore.Internal.Correction>
0.0015

