#       Name:                amine_i002
#       Creating user name   fsindt
#       Creation time:       Fri Aug 11 18:08:03 2023


#       File generated by GOLD software.
#

@<TRIPOS>MOLECULE
amine_i002|amine|mol2|2|dock5
    26    26     1
SMALL
NO_CHARGES


@<TRIPOS>ATOM
      1 C1          -0.7498 -18.3674   8.8176 C.3            1 <1>                0.0000
      2 C2          -0.6064 -16.8455   8.7543 C.3            1 <1>                0.0000
      3 N3           0.1981 -16.3818   9.8926 N.4            1 <1>                0.0000
      4 H4           1.1424 -16.7262   9.8047 H              1 <1>                0.0000
      5 C5          -0.3955 -16.8731  11.1543 C.3            1 <1>                0.0000
      6 C6          -0.1707 -15.7256  12.1705 C.3            1 <1>                0.0000
      7 C7          -0.3809 -14.4728  11.2798 C.3            1 <1>                0.0000
      8 C8           0.2087 -14.9077   9.9249 C.3            1 <1>                0.0000
      9 C9           1.6457 -14.3986   9.7950 C.3            1 <1>                0.0000
     10 N10          2.4918 -15.0598  10.7974 N.3            1 <1>                0.0000
     11 H11          0.2375 -18.8275   8.7763 H              1 <1>                0.0000
     12 H12         -1.2424 -18.6475   9.7488 H              1 <1>                0.0000
     13 H13         -1.3467 -18.7116   7.9730 H              1 <1>                0.0000
     14 H14         -0.1137 -16.5655   7.8232 H              1 <1>                0.0000
     15 H15         -1.5936 -16.3854   8.7957 H              1 <1>                0.0000
     16 H16         -1.4611 -17.0616  11.0243 H              1 <1>                0.0000
     17 H17          0.1133 -17.7784  11.4857 H              1 <1>                0.0000
     18 H18         -0.9089 -15.7634  12.9716 H              1 <1>                0.0000
     19 H19          0.8418 -15.7533  12.5730 H              1 <1>                0.0000
     20 H20         -1.4419 -14.2435  11.1815 H              1 <1>                0.0000
     21 H21          0.1636 -13.6185  11.6820 H              1 <1>                0.0000
     22 H22         -0.4013 -14.5142   9.1118 H              1 <1>                0.0000
     23 H23          2.0218 -14.6230   8.7970 H              1 <1>                0.0000
     24 H24          1.6652 -13.3209   9.9570 H              1 <1>                0.0000
     25 H25          2.0390 -15.0760  11.6989 H              1 <1>                0.0000
     26 H26          2.7419 -15.9915  10.5016 H              1 <1>                0.0000
@<TRIPOS>BOND
    1    1    2 1     
    2    1   11 1     
    3    1   12 1     
    4    1   13 1     
    5    2    3 1     
    6    2   14 1     
    7    2   15 1     
    8    3    4 1     
    9    3    8 1     
   10    3    5 1     
   11    5    6 1     
   12    5   16 1     
   13    5   17 1     
   14    6    7 1     
   15    6   18 1     
   16    6   19 1     
   17    7    8 1     
   18    7   20 1     
   19    7   21 1     
   20    8    9 1     
   21    8   22 1     
   22    9   10 1     
   23    9   23 1     
   24    9   24 1     
   25   10   25 1     
   26   10   26 1     
@<TRIPOS>SUBSTRUCTURE
      1 ****           1
@<TRIPOS>SET
DONOR_HYDROGENS      STATIC     ATOMS    <user>   **** ""
3 4 25 26
ATOM$RED        STATIC     ATOMS    COLORGROUP SYSTEM
3 4 25 26
@<TRIPOS>COMMENT
> <Gold.Version>
2022.2.0

> <Gold.Id.Protein>
3pbl|protein|mol2

> <Gold.Protein.RotatedTorsions>
[ 1303 1298 1297 1294 ] final -170.48 input  179.99 | X-H torsion
[ 2461 2456 2455 2452 ] final   37.34 input   30.03 | X-H torsion
[ 2515 2510 2509 2506 ] final  -36.75 input  -89.99 | X-H torsion
[ 3721 3712 3711 3710 ] final    4.81 input -179.91 | X-H torsion
[ 3841 3832 3831 3830 ] final   50.21 input -179.91 | X-H torsion
[ 3767 3762 3761 3758 ] final  -94.32 input  -89.99 | X-H torsion
[ 2472 2467 2466 2463 ] final    9.73 input  -89.97 | X-H torsion

> <Gold.Protein.ActiveResidues>
 VAL82   VAL86   LEU89   PHE106  VAL107  ASP110  VAL111  MET112  CYS114  THR115 
 CYS181  SER182  ILE183  PHE188  VAL189  ILE190  SER192  SER193  SER196  TRP342 
 PHE345  PHE346  HIS349  VAL350  TYR365  THR369  GLY372  TYR373 

> <Gold.Protein.RotatedAtoms>
    4.7961   -8.7581    4.5948 H   0  0  0  0  0  0  0  0  0  0  0  0  # atno 1303 bound_to 1298
    1.6242   -7.9291    7.1752 H   0  0  0  0  0  0  0  0  0  0  0  0  # atno 2461 bound_to 2456
   -3.8984   -4.8437    7.9530 H   0  0  0  0  0  0  0  0  0  0  0  0  # atno 2472 bound_to 2467
    2.7519   -8.1274    4.3627 H   0  0  0  0  0  0  0  0  0  0  0  0  # atno 2515 bound_to 2510
   -2.4783  -17.9822   14.1749 H   0  0  0  0  0  0  0  0  0  0  0  0  # atno 3721 bound_to 3712
   -5.1771  -21.9151   11.2646 H   0  0  0  0  0  0  0  0  0  0  0  0  # atno 3767 bound_to 3762
    2.3370  -20.9101    9.5659 H   0  0  0  0  0  0  0  0  0  0  0  0  # atno 3841 bound_to 3832
    4.1394  -10.2482    4.7159 LP  0  0  0  0  0  0  0  0  0  0  0  0  # atno 4297 bound_to 1298
    3.4264   -9.1152    3.7808 LP  0  0  0  0  0  0  0  0  0  0  0  0  # atno 4298 bound_to 1298
    0.3350   -8.8268    7.6219 LP  0  0  0  0  0  0  0  0  0  0  0  0  # atno 4299 bound_to 2456
    1.7787   -9.0521    8.3509 LP  0  0  0  0  0  0  0  0  0  0  0  0  # atno 4300 bound_to 2456
    2.4859   -9.2167    5.5495 LP  0  0  0  0  0  0  0  0  0  0  0  0  # atno 4301 bound_to 2510
    2.0588   -7.6551    5.7635 LP  0  0  0  0  0  0  0  0  0  0  0  0  # atno 4302 bound_to 2510
   -3.4135  -16.7233   14.5189 LP  0  0  0  0  0  0  0  0  0  0  0  0  # atno 4306 bound_to 3712
   -3.2530  -17.2423   12.9790 LP  0  0  0  0  0  0  0  0  0  0  0  0  # atno 4307 bound_to 3712
    1.5235  -19.7894    8.7545 LP  0  0  0  0  0  0  0  0  0  0  0  0  # atno 4314 bound_to 3832
    3.0062  -20.2616    8.2591 LP  0  0  0  0  0  0  0  0  0  0  0  0  # atno 4315 bound_to 3832
   -3.9112  -22.9464   11.2427 LP  0  0  0  0  0  0  0  0  0  0  0  0  # atno 4318 bound_to 3762
   -5.0392  -23.0133   10.0639 LP  0  0  0  0  0  0  0  0  0  0  0  0  # atno 4319 bound_to 3762
   -4.3444   -5.4188    9.4148 LP  0  0  0  0  0  0  0  0  0  0  0  0  # atno 4320 bound_to 2467
   -5.4740   -5.1310    8.2712 LP  0  0  0  0  0  0  0  0  0  0  0  0  # atno 4321 bound_to 2467

> <Gold.Score>
     Score     S(PLP)   S(hbond)     S(cho)   S(metal)  DE(clash)   DE(tors)     intcor
     35.03     -26.12       3.00       0.00       0.00       0.00       0.04       0.00

> <Gold.PLP.Fitness>
35.0345

> <Gold.PLP.PLP>
-26.1168

> <Gold.PLP.part.hbond>
-2.0000

> <Gold.PLP.part.metal>
0.0000

> <Gold.PLP.part.buried>
-3.2984

> <Gold.PLP.part.nonpolar>
-20.6123

> <Gold.PLP.part.repulsive>
0.0000

> <Gold.PLP.ligand.clash>
0.0000

> <Gold.PLP.ligand.torsion>
0.0419

> <Gold.PLP.Chemscore.Hbond>
3.0000

> <Gold.PLP.Chemscore.CHOScore>
0.0000

> <Gold.PLP.Chemscore.Metal>
0.0000

> <Gold.Chemscore.Hbonds>
donor molecule, donor type, donor heavy atom, donor atom, acceptor molecule, acceptor atom, score
      L1  H     3     4       P1  1227  2.00
      L1  H    10    26       P1  1227  1.00

> <Gold.PLP.Chemscore.Internal.Correction>
0.0015

