#       Name:                amine_i002
#       Creating user name   fsindt
#       Creation time:       Fri Aug 11 18:08:09 2023


#       File generated by GOLD software.
#

@<TRIPOS>MOLECULE
amine_i002|amine|mol2|2|dock13
    26    26     1
SMALL
NO_CHARGES


@<TRIPOS>ATOM
      1 C1           1.3871 -14.3621   9.4125 C.3            1 <1>                0.0000
      2 C2           1.9426 -14.5043  10.8310 C.3            1 <1>                0.0000
      3 N3           1.5215 -15.7939  11.3947 N.4            1 <1>                0.0000
      4 H4           1.8987 -16.5473  10.8396 H              1 <1>                0.0000
      5 C5           0.0454 -15.8741  11.4051 C.3            1 <1>                0.0000
      6 C6          -0.2999 -16.6430  12.7048 C.3            1 <1>                0.0000
      7 C7           0.7710 -16.0973  13.6856 C.3            1 <1>                0.0000
      8 C8           2.0049 -15.9101  12.7828 C.3            1 <1>                0.0000
      9 C9           2.9299 -17.1224  12.9077 C.3            1 <1>                0.0000
     10 N10          2.2594 -18.3085  12.3585 N.3            1 <1>                0.0000
     11 H11          1.7675 -15.1722   8.7904 H              1 <1>                0.0000
     12 H12          0.2984 -14.4075   9.4424 H              1 <1>                0.0000
     13 H13          1.6995 -13.4053   8.9942 H              1 <1>                0.0000
     14 H14          3.0312 -14.4589  10.8010 H              1 <1>                0.0000
     15 H15          1.5621 -13.6942  11.4532 H              1 <1>                0.0000
     16 H16         -0.3889 -14.8747  11.4287 H              1 <1>                0.0000
     17 H17         -0.3109 -16.4231  10.5334 H              1 <1>                0.0000
     18 H18         -1.3049 -16.3979  13.0482 H              1 <1>                0.0000
     19 H19         -0.1886 -17.7181  12.5637 H              1 <1>                0.0000
     20 H20          0.4559 -15.1434  14.1084 H              1 <1>                0.0000
     21 H21          0.9755 -16.8210  14.4745 H              1 <1>                0.0000
     22 H22          2.5383 -15.0032  13.0673 H              1 <1>                0.0000
     23 H23          3.8499 -16.9361  12.3538 H              1 <1>                0.0000
     24 H24          3.1663 -17.2923  13.9581 H              1 <1>                0.0000
     25 H25          1.2981 -18.3533  12.6616 H              1 <1>                0.0000
     26 H26          2.3223 -18.3257  11.3517 H              1 <1>                0.0000
@<TRIPOS>BOND
    1    1    2 1     
    2    1   11 1     
    3    1   12 1     
    4    1   13 1     
    5    2    3 1     
    6    2   14 1     
    7    2   15 1     
    8    3    4 1     
    9    3    8 1     
   10    3    5 1     
   11    5    6 1     
   12    5   16 1     
   13    5   17 1     
   14    6    7 1     
   15    6   18 1     
   16    6   19 1     
   17    7    8 1     
   18    7   20 1     
   19    7   21 1     
   20    8    9 1     
   21    8   22 1     
   22    9   10 1     
   23    9   23 1     
   24    9   24 1     
   25   10   25 1     
   26   10   26 1     
@<TRIPOS>SUBSTRUCTURE
      1 ****           1
@<TRIPOS>SET
DONOR_HYDROGENS      STATIC     ATOMS    <user>   **** ""
3 4 25 26
ATOM$RED        STATIC     ATOMS    COLORGROUP SYSTEM
3 4 25 26
@<TRIPOS>COMMENT
> <Gold.Version>
2022.2.0

> <Gold.Id.Protein>
3pbl|protein|mol2

> <Gold.Protein.RotatedTorsions>
[ 1303 1298 1297 1294 ] final  -17.41 input  179.99 | X-H torsion
[ 2461 2456 2455 2452 ] final   15.54 input   30.03 | X-H torsion
[ 2515 2510 2509 2506 ] final  149.88 input  -89.99 | X-H torsion
[ 3721 3712 3711 3710 ] final -165.59 input -179.91 | X-H torsion
[ 3841 3832 3831 3830 ] final -107.44 input -179.91 | X-H torsion
[ 3767 3762 3761 3758 ] final  150.38 input  -89.99 | X-H torsion
[ 2472 2467 2466 2463 ] final   90.45 input  -89.97 | X-H torsion

> <Gold.Protein.ActiveResidues>
 VAL82   VAL86   LEU89   PHE106  VAL107  ASP110  VAL111  MET112  CYS114  THR115 
 CYS181  SER182  ILE183  PHE188  VAL189  ILE190  SER192  SER193  SER196  TRP342 
 PHE345  PHE346  HIS349  VAL350  TYR365  THR369  GLY372  TYR373 

> <Gold.Protein.RotatedAtoms>
    3.3318   -9.6262    3.9140 H   0  0  0  0  0  0  0  0  0  0  0  0  # atno 1303 bound_to 1298
    1.2875   -7.9289    7.0575 H   0  0  0  0  0  0  0  0  0  0  0  0  # atno 2461 bound_to 2456
   -5.1072   -4.9212    7.7989 H   0  0  0  0  0  0  0  0  0  0  0  0  # atno 2472 bound_to 2467
    2.1434   -8.6412    6.0676 H   0  0  0  0  0  0  0  0  0  0  0  0  # atno 2515 bound_to 2510
   -3.3387  -16.5459   13.7543 H   0  0  0  0  0  0  0  0  0  0  0  0  # atno 3721 bound_to 3712
   -3.9198  -22.8930   11.2979 H   0  0  0  0  0  0  0  0  0  0  0  0  # atno 3767 bound_to 3762
    2.0579  -19.5797    8.5476 H   0  0  0  0  0  0  0  0  0  0  0  0  # atno 3841 bound_to 3832
    4.4626   -8.5010    4.2625 LP  0  0  0  0  0  0  0  0  0  0  0  0  # atno 4297 bound_to 1298
    4.5681   -9.9941    4.9152 LP  0  0  0  0  0  0  0  0  0  0  0  0  # atno 4298 bound_to 1298
    0.4333   -9.0515    7.8806 LP  0  0  0  0  0  0  0  0  0  0  0  0  # atno 4299 bound_to 2456
    2.0170   -8.8276    8.2098 LP  0  0  0  0  0  0  0  0  0  0  0  0  # atno 4300 bound_to 2456
    2.3327   -7.4239    4.9962 LP  0  0  0  0  0  0  0  0  0  0  0  0  # atno 4301 bound_to 2510
    2.8208   -8.9339    4.6111 LP  0  0  0  0  0  0  0  0  0  0  0  0  # atno 4302 bound_to 2510
   -2.8244  -17.9577   13.1885 LP  0  0  0  0  0  0  0  0  0  0  0  0  # atno 4306 bound_to 3712
   -2.8487  -17.6661   14.7950 LP  0  0  0  0  0  0  0  0  0  0  0  0  # atno 4307 bound_to 3712
    3.1154  -20.7821    8.6575 LP  0  0  0  0  0  0  0  0  0  0  0  0  # atno 4314 bound_to 3832
    1.7368  -20.8057    9.5324 LP  0  0  0  0  0  0  0  0  0  0  0  0  # atno 4315 bound_to 3832
   -4.9781  -23.0609   10.0655 LP  0  0  0  0  0  0  0  0  0  0  0  0  # atno 4318 bound_to 3762
   -5.2292  -21.9213   11.2078 LP  0  0  0  0  0  0  0  0  0  0  0  0  # atno 4319 bound_to 3762
   -3.6379   -5.0133    8.5053 LP  0  0  0  0  0  0  0  0  0  0  0  0  # atno 4320 bound_to 2467
   -4.9719   -5.4590    9.3348 LP  0  0  0  0  0  0  0  0  0  0  0  0  # atno 4321 bound_to 2467

> <Gold.Score>
     Score     S(PLP)   S(hbond)     S(cho)   S(metal)  DE(clash)   DE(tors)     intcor
     35.26     -26.31       3.00       0.00       0.00       0.00       0.03       0.00

> <Gold.PLP.Fitness>
35.2577

> <Gold.PLP.PLP>
-26.3146

> <Gold.PLP.part.hbond>
-2.0000

> <Gold.PLP.part.metal>
0.0000

> <Gold.PLP.part.buried>
-3.2224

> <Gold.PLP.part.nonpolar>
-21.6955

> <Gold.PLP.part.repulsive>
0.0000

> <Gold.PLP.ligand.clash>
0.0000

> <Gold.PLP.ligand.torsion>
0.0292

> <Gold.PLP.Chemscore.Hbond>
3.0000

> <Gold.PLP.Chemscore.CHOScore>
0.0000

> <Gold.PLP.Chemscore.Metal>
0.0000

> <Gold.Chemscore.Hbonds>
donor molecule, donor type, donor heavy atom, donor atom, acceptor molecule, acceptor atom, score
      L1  H     3     4       P1  1227  2.00
      L1  H    10    26       P1  1227  1.00

> <Gold.PLP.Chemscore.Internal.Correction>
0.0015

