#       Name:                amine_i002
#       Creating user name   fsindt
#       Creation time:       Fri Aug 11 18:08:07 2023


#       File generated by GOLD software.
#

@<TRIPOS>MOLECULE
amine_i002|amine|mol2|2|dock10
    26    26     1
SMALL
NO_CHARGES


@<TRIPOS>ATOM
      1 C1          -0.4012 -19.0830  10.5844 C.3            1 <1>                0.0000
      2 C2          -0.3979 -17.7552  11.3444 C.3            1 <1>                0.0000
      3 N3           0.9360 -17.5197  11.9129 N.4            1 <1>                0.0000
      4 H4           1.6228 -17.5036  11.1739 H              1 <1>                0.0000
      5 C5           1.2640 -18.5941  12.8739 C.3            1 <1>                0.0000
      6 C6           2.0615 -17.8886  13.9990 C.3            1 <1>                0.0000
      7 C7           1.3289 -16.5244  14.0943 C.3            1 <1>                0.0000
      8 C8           0.9492 -16.2318  12.6305 C.3            1 <1>                0.0000
      9 C9           1.9862 -15.2999  12.0001 C.3            1 <1>                0.0000
     10 N10          1.6768 -15.1152  10.5760 N.3            1 <1>                0.0000
     11 H11          0.3344 -19.0437   9.7810 H              1 <1>                0.0000
     12 H12         -0.1494 -19.8936  11.2682 H              1 <1>                0.0000
     13 H13         -1.3909 -19.2578  10.1625 H              1 <1>                0.0000
     14 H14         -0.6497 -16.9446  10.6605 H              1 <1>                0.0000
     15 H15         -1.1335 -17.7944  12.1478 H              1 <1>                0.0000
     16 H16          0.3519 -19.0360  13.2749 H              1 <1>                0.0000
     17 H17          1.8776 -19.3572  12.3950 H              1 <1>                0.0000
     18 H18          1.9846 -18.4394  14.9365 H              1 <1>                0.0000
     19 H19          3.1043 -17.7528  13.7123 H              1 <1>                0.0000
     20 H20          0.4360 -16.6090  14.7135 H              1 <1>                0.0000
     21 H21          1.9965 -15.7548  14.4818 H              1 <1>                0.0000
     22 H22         -0.0387 -15.7732  12.5884 H              1 <1>                0.0000
     23 H23          1.9619 -14.3345  12.5054 H              1 <1>                0.0000
     24 H24          2.9787 -15.7387  12.1024 H              1 <1>                0.0000
     25 H25          1.9424 -14.1928  10.2650 H              1 <1>                0.0000
     26 H26          2.1191 -15.8274  10.0146 H              1 <1>                0.0000
@<TRIPOS>BOND
    1    1    2 1     
    2    1   11 1     
    3    1   12 1     
    4    1   13 1     
    5    2    3 1     
    6    2   14 1     
    7    2   15 1     
    8    3    4 1     
    9    3    8 1     
   10    3    5 1     
   11    5    6 1     
   12    5   16 1     
   13    5   17 1     
   14    6    7 1     
   15    6   18 1     
   16    6   19 1     
   17    7    8 1     
   18    7   20 1     
   19    7   21 1     
   20    8    9 1     
   21    8   22 1     
   22    9   10 1     
   23    9   23 1     
   24    9   24 1     
   25   10   25 1     
   26   10   26 1     
@<TRIPOS>SUBSTRUCTURE
      1 ****           1
@<TRIPOS>SET
DONOR_HYDROGENS      STATIC     ATOMS    <user>   **** ""
3 4 25 26
ATOM$RED        STATIC     ATOMS    COLORGROUP SYSTEM
3 4 25 26
@<TRIPOS>COMMENT
> <Gold.Version>
2022.2.0

> <Gold.Id.Protein>
3pbl|protein|mol2

> <Gold.Protein.RotatedTorsions>
[ 1303 1298 1297 1294 ] final  125.40 input  179.99 | X-H torsion
[ 2461 2456 2455 2452 ] final  -27.23 input   30.03 | X-H torsion
[ 2515 2510 2509 2506 ] final   11.62 input  -89.99 | X-H torsion
[ 3721 3712 3711 3710 ] final  167.46 input -179.91 | X-H torsion
[ 3841 3832 3831 3830 ] final   20.66 input -179.91 | X-H torsion
[ 3767 3762 3761 3758 ] final   44.59 input  -89.99 | X-H torsion
[ 2472 2467 2466 2463 ] final   39.91 input  -89.97 | X-H torsion

> <Gold.Protein.ActiveResidues>
 VAL82   VAL86   LEU89   PHE106  VAL107  ASP110  VAL111  MET112  CYS114  THR115 
 CYS181  SER182  ILE183  PHE188  VAL189  ILE190  SER192  SER193  SER196  TRP342 
 PHE345  PHE346  HIS349  VAL350  TYR365  THR369  GLY372  TYR373 

> <Gold.Protein.RotatedAtoms>
    4.7857   -9.6935    4.9505 H   0  0  0  0  0  0  0  0  0  0  0  0  # atno 1303 bound_to 1298
    0.6554   -8.1959    7.1035 H   0  0  0  0  0  0  0  0  0  0  0  0  # atno 2461 bound_to 2456
   -4.3176   -4.7992    7.7015 H   0  0  0  0  0  0  0  0  0  0  0  0  # atno 2472 bound_to 2467
    2.4604   -7.5228    4.7445 H   0  0  0  0  0  0  0  0  0  0  0  0  # atno 2515 bound_to 2510
   -3.2857  -16.6960   13.3833 H   0  0  0  0  0  0  0  0  0  0  0  0  # atno 3721 bound_to 3712
   -4.7841  -23.1849   10.1020 H   0  0  0  0  0  0  0  0  0  0  0  0  # atno 3767 bound_to 3762
    1.9507  -20.7032    9.6198 H   0  0  0  0  0  0  0  0  0  0  0  0  # atno 3841 bound_to 3832
    3.4172   -9.9408    4.0948 LP  0  0  0  0  0  0  0  0  0  0  0  0  # atno 4297 bound_to 1298
    4.1590   -8.4869    4.0461 LP  0  0  0  0  0  0  0  0  0  0  0  0  # atno 4298 bound_to 1298
    0.9353   -9.2844    8.2885 LP  0  0  0  0  0  0  0  0  0  0  0  0  # atno 4299 bound_to 2456
    2.1469   -8.3278    7.7559 LP  0  0  0  0  0  0  0  0  0  0  0  0  # atno 4300 bound_to 2456
    2.7669   -9.1239    4.8359 LP  0  0  0  0  0  0  0  0  0  0  0  0  # atno 4301 bound_to 2510
    2.0694   -8.3527    6.0951 LP  0  0  0  0  0  0  0  0  0  0  0  0  # atno 4302 bound_to 2510
   -2.6708  -18.1698   13.5497 LP  0  0  0  0  0  0  0  0  0  0  0  0  # atno 4306 bound_to 3712
   -3.0635  -17.2808   14.8620 LP  0  0  0  0  0  0  0  0  0  0  0  0  # atno 4307 bound_to 3712
    1.8478  -19.6411    8.4209 LP  0  0  0  0  0  0  0  0  0  0  0  0  # atno 4314 bound_to 3832
    3.1281  -20.6489    8.5304 LP  0  0  0  0  0  0  0  0  0  0  0  0  # atno 4315 bound_to 3832
   -5.3633  -21.9665   11.0223 LP  0  0  0  0  0  0  0  0  0  0  0  0  # atno 4318 bound_to 3762
   -3.9801  -22.7238   11.4465 LP  0  0  0  0  0  0  0  0  0  0  0  0  # atno 4319 bound_to 3762
   -3.9180   -5.2962    9.2048 LP  0  0  0  0  0  0  0  0  0  0  0  0  # atno 4320 bound_to 2467
   -5.4813   -5.2981    8.7327 LP  0  0  0  0  0  0  0  0  0  0  0  0  # atno 4321 bound_to 2467

> <Gold.Score>
     Score     S(PLP)   S(hbond)     S(cho)   S(metal)  DE(clash)   DE(tors)     intcor
     33.01     -24.03       3.00       0.00       0.00       0.00       0.01       0.00

> <Gold.PLP.Fitness>
33.0121

> <Gold.PLP.PLP>
-24.0267

> <Gold.PLP.part.hbond>
-2.0000

> <Gold.PLP.part.metal>
0.0000

> <Gold.PLP.part.buried>
-3.1720

> <Gold.PLP.part.nonpolar>
-19.0668

> <Gold.PLP.part.repulsive>
0.0000

> <Gold.PLP.ligand.clash>
0.0000

> <Gold.PLP.ligand.torsion>
0.0080

> <Gold.PLP.Chemscore.Hbond>
3.0000

> <Gold.PLP.Chemscore.CHOScore>
0.0000

> <Gold.PLP.Chemscore.Metal>
0.0000

> <Gold.Chemscore.Hbonds>
donor molecule, donor type, donor heavy atom, donor atom, acceptor molecule, acceptor atom, score
      L1  H     3     4       P1  1227  2.00
      L1  H    10    26       P1  1227  1.00

> <Gold.PLP.Chemscore.Internal.Correction>
0.0015

