#       Name:                amine_i002
#       Creating user name   fsindt
#       Creation time:       Fri Aug 11 18:08:12 2023


#       File generated by GOLD software.
#

@<TRIPOS>MOLECULE
amine_i002|amine|mol2|2|dock18
    26    26     1
SMALL
NO_CHARGES


@<TRIPOS>ATOM
      1 C1          -0.7691 -11.2077  10.6674 C.3            1 <1>                0.0000
      2 C2          -1.1706 -12.1899   9.5652 C.3            1 <1>                0.0000
      3 N3           0.0372 -12.7354   8.9317 N.4            1 <1>                0.0000
      4 H4           0.6058 -13.1980   9.6251 H              1 <1>                0.0000
      5 C5           0.8084 -11.6405   8.3056 C.3            1 <1>                0.0000
      6 C6           1.3991 -12.2606   7.0147 C.3            1 <1>                0.0000
      7 C7           0.2414 -13.1840   6.5525 C.3            1 <1>                0.0000
      8 C8          -0.3446 -13.6971   7.8814 C.3            1 <1>                0.0000
      9 C9           0.2343 -15.0753   8.2078 C.3            1 <1>                0.0000
     10 N10          1.7016 -15.0071   8.1882 N.3            1 <1>                0.0000
     11 H11         -0.1691 -11.7261  11.4152 H              1 <1>                0.0000
     12 H12         -0.1868 -10.3942  10.2346 H              1 <1>                0.0000
     13 H13         -1.6654 -10.8029  11.1375 H              1 <1>                0.0000
     14 H14         -1.7529 -13.0034   9.9981 H              1 <1>                0.0000
     15 H15         -1.7707 -11.6715   8.8173 H              1 <1>                0.0000
     16 H16          0.1516 -10.8061   8.0597 H              1 <1>                0.0000
     17 H17          1.6083 -11.3121   8.9693 H              1 <1>                0.0000
     18 H18          1.6055 -11.4910   6.2709 H              1 <1>                0.0000
     19 H19          2.2962 -12.8393   7.2347 H              1 <1>                0.0000
     20 H20         -0.5053 -12.6170   5.9966 H              1 <1>                0.0000
     21 H21          0.6236 -14.0107   5.9537 H              1 <1>                0.0000
     22 H22         -1.4306 -13.7564   7.8093 H              1 <1>                0.0000
     23 H23         -0.1019 -15.3856   9.1970 H              1 <1>                0.0000
     24 H24         -0.1058 -15.7973   7.4654 H              1 <1>                0.0000
     25 H25          2.0256 -14.1011   8.4920 H              1 <1>                0.0000
     26 H26          2.1052 -15.7423   8.7492 H              1 <1>                0.0000
@<TRIPOS>BOND
    1    1    2 1     
    2    1   11 1     
    3    1   12 1     
    4    1   13 1     
    5    2    3 1     
    6    2   14 1     
    7    2   15 1     
    8    3    4 1     
    9    3    8 1     
   10    3    5 1     
   11    5    6 1     
   12    5   16 1     
   13    5   17 1     
   14    6    7 1     
   15    6   18 1     
   16    6   19 1     
   17    7    8 1     
   18    7   20 1     
   19    7   21 1     
   20    8    9 1     
   21    8   22 1     
   22    9   10 1     
   23    9   23 1     
   24    9   24 1     
   25   10   25 1     
   26   10   26 1     
@<TRIPOS>SUBSTRUCTURE
      1 ****           1
@<TRIPOS>SET
DONOR_HYDROGENS      STATIC     ATOMS    <user>   **** ""
3 4 25 26
ATOM$RED        STATIC     ATOMS    COLORGROUP SYSTEM
3 4 25 26
@<TRIPOS>COMMENT
> <Gold.Version>
2022.2.0

> <Gold.Id.Protein>
3pbl|protein|mol2

> <Gold.Protein.RotatedTorsions>
[ 1303 1298 1297 1294 ] final   17.22 input  179.99 | X-H torsion
[ 2461 2456 2455 2452 ] final    8.02 input   30.03 | X-H torsion
[ 2515 2510 2509 2506 ] final -136.24 input  -89.99 | X-H torsion
[ 3721 3712 3711 3710 ] final -166.06 input -179.91 | X-H torsion
[ 3841 3832 3831 3830 ] final  -78.75 input -179.91 | X-H torsion
[ 3767 3762 3761 3758 ] final -135.19 input  -89.99 | X-H torsion
[ 2472 2467 2466 2463 ] final  112.31 input  -89.97 | X-H torsion

> <Gold.Protein.ActiveResidues>
 VAL82   VAL86   LEU89   PHE106  VAL107  ASP110  VAL111  MET112  CYS114  THR115 
 CYS181  SER182  ILE183  PHE188  VAL189  ILE190  SER192  SER193  SER196  TRP342 
 PHE345  PHE346  HIS349  VAL350  TYR365  THR369  GLY372  TYR373 

> <Gold.Protein.RotatedAtoms>
    3.5062  -10.0713    4.2079 H   0  0  0  0  0  0  0  0  0  0  0  0  # atno 1303 bound_to 1298
    1.1675   -7.9516    7.0383 H   0  0  0  0  0  0  0  0  0  0  0  0  # atno 2461 bound_to 2456
   -5.3555   -5.0321    8.0310 H   0  0  0  0  0  0  0  0  0  0  0  0  # atno 2472 bound_to 2467
    2.6227   -9.2558    5.2455 H   0  0  0  0  0  0  0  0  0  0  0  0  # atno 2515 bound_to 2510
   -3.3385  -16.5472   13.7474 H   0  0  0  0  0  0  0  0  0  0  0  0  # atno 3721 bound_to 3712
   -4.6367  -22.0628   11.6106 H   0  0  0  0  0  0  0  0  0  0  0  0  # atno 3767 bound_to 3762
    1.7426  -19.6703    8.8239 H   0  0  0  0  0  0  0  0  0  0  0  0  # atno 3841 bound_to 3832
    3.9964   -8.5349    3.9517 LP  0  0  0  0  0  0  0  0  0  0  0  0  # atno 4297 bound_to 1298
    4.8598   -9.5148    4.9320 LP  0  0  0  0  0  0  0  0  0  0  0  0  # atno 4298 bound_to 1298
    0.4953   -9.1155    7.9662 LP  0  0  0  0  0  0  0  0  0  0  0  0  # atno 4299 bound_to 2456
    2.0749   -8.7409    8.1434 LP  0  0  0  0  0  0  0  0  0  0  0  0  # atno 4300 bound_to 2456
    2.0287   -7.9184    5.9695 LP  0  0  0  0  0  0  0  0  0  0  0  0  # atno 4301 bound_to 2510
    2.6452   -7.8245    4.4603 LP  0  0  0  0  0  0  0  0  0  0  0  0  # atno 4302 bound_to 2510
   -2.8212  -17.9626   13.1936 LP  0  0  0  0  0  0  0  0  0  0  0  0  # atno 4306 bound_to 3712
   -2.8521  -17.6596   14.7979 LP  0  0  0  0  0  0  0  0  0  0  0  0  # atno 4307 bound_to 3712
    3.0819  -20.4194    8.3536 LP  0  0  0  0  0  0  0  0  0  0  0  0  # atno 4314 bound_to 3832
    2.1345  -21.0638    9.5172 LP  0  0  0  0  0  0  0  0  0  0  0  0  # atno 4315 bound_to 3832
   -4.0535  -23.2828   10.6950 LP  0  0  0  0  0  0  0  0  0  0  0  0  # atno 4318 bound_to 3762
   -5.4372  -22.5293   10.2658 LP  0  0  0  0  0  0  0  0  0  0  0  0  # atno 4319 bound_to 3762
   -3.7342   -4.9060    8.1781 LP  0  0  0  0  0  0  0  0  0  0  0  0  # atno 4320 bound_to 2467
   -4.6274   -5.4554    9.4299 LP  0  0  0  0  0  0  0  0  0  0  0  0  # atno 4321 bound_to 2467

> <Gold.Score>
     Score     S(PLP)   S(hbond)     S(cho)   S(metal)  DE(clash)   DE(tors)     intcor
     32.80     -29.83       1.00       0.00       0.00       0.00       0.01       0.00

> <Gold.PLP.Fitness>
32.8003

> <Gold.PLP.PLP>
-29.8261

> <Gold.PLP.part.hbond>
-1.3197

> <Gold.PLP.part.metal>
0.0000

> <Gold.PLP.part.buried>
-2.7902

> <Gold.PLP.part.nonpolar>
-25.5815

> <Gold.PLP.part.repulsive>
0.0000

> <Gold.PLP.ligand.clash>
0.0000

> <Gold.PLP.ligand.torsion>
0.0136

> <Gold.PLP.Chemscore.Hbond>
1.0000

> <Gold.PLP.Chemscore.CHOScore>
0.0000

> <Gold.PLP.Chemscore.Metal>
0.0000

> <Gold.Chemscore.Hbonds>
donor molecule, donor type, donor heavy atom, donor atom, acceptor molecule, acceptor atom, score
      L1  H    10    26       P1  1227  1.00

> <Gold.PLP.Chemscore.Internal.Correction>
0.0015

