#       Name:                amine_i002
#       Creating user name   fsindt
#       Creation time:       Fri Aug 11 18:08:09 2023


#       File generated by GOLD software.
#

@<TRIPOS>MOLECULE
amine_i002|amine|mol2|2|dock14
    26    26     1
SMALL
NO_CHARGES


@<TRIPOS>ATOM
      1 C1          -0.7021 -18.1465   9.4722 C.3            1 <1>                0.0000
      2 C2          -0.6943 -17.9905  10.9942 C.3            1 <1>                0.0000
      3 N3           0.2864 -16.9657  11.3763 N.4            1 <1>                0.0000
      4 H4           1.1307 -17.0848  10.8369 H              1 <1>                0.0000
      5 C5           0.5953 -17.0854  12.8171 C.3            1 <1>                0.0000
      6 C6           0.7886 -15.6272  13.3028 C.3            1 <1>                0.0000
      7 C7          -0.2875 -14.8761  12.4753 C.3            1 <1>                0.0000
      8 C8          -0.2752 -15.6250  11.1294 C.3            1 <1>                0.0000
      9 C9           0.6015 -14.8750  10.1244 C.3            1 <1>                0.0000
     10 N10          2.0109 -14.9914  10.5217 N.3            1 <1>                0.0000
     11 H11         -0.9710 -17.1962   9.0109 H              1 <1>                0.0000
     12 H12          0.2891 -18.4474   9.1327 H              1 <1>                0.0000
     13 H13         -1.4297 -18.9068   9.1885 H              1 <1>                0.0000
     14 H14         -1.6854 -17.6895  11.3335 H              1 <1>                0.0000
     15 H15         -0.4253 -18.9408  11.4555 H              1 <1>                0.0000
     16 H16         -0.2347 -17.5545  13.3455 H              1 <1>                0.0000
     17 H17          1.5111 -17.6584  12.9625 H              1 <1>                0.0000
     18 H18          0.5896 -15.5418  14.3711 H              1 <1>                0.0000
     19 H19          1.7884 -15.2652  13.0633 H              1 <1>                0.0000
     20 H20         -1.2649 -14.9564  12.9509 H              1 <1>                0.0000
     21 H21         -0.0088 -13.8312  12.3389 H              1 <1>                0.0000
     22 H22         -1.2913 -15.7132  10.7449 H              1 <1>                0.0000
     23 H23          0.4668 -15.3057   9.1323 H              1 <1>                0.0000
     24 H24          0.3148 -13.8235  10.1061 H              1 <1>                0.0000
     25 H25          2.1538 -14.6376  11.4557 H              1 <1>                0.0000
     26 H26          2.3311 -15.9450  10.4433 H              1 <1>                0.0000
@<TRIPOS>BOND
    1    1    2 1     
    2    1   11 1     
    3    1   12 1     
    4    1   13 1     
    5    2    3 1     
    6    2   14 1     
    7    2   15 1     
    8    3    4 1     
    9    3    8 1     
   10    3    5 1     
   11    5    6 1     
   12    5   16 1     
   13    5   17 1     
   14    6    7 1     
   15    6   18 1     
   16    6   19 1     
   17    7    8 1     
   18    7   20 1     
   19    7   21 1     
   20    8    9 1     
   21    8   22 1     
   22    9   10 1     
   23    9   23 1     
   24    9   24 1     
   25   10   25 1     
   26   10   26 1     
@<TRIPOS>SUBSTRUCTURE
      1 ****           1
@<TRIPOS>SET
DONOR_HYDROGENS      STATIC     ATOMS    <user>   **** ""
3 4 25 26
ATOM$RED        STATIC     ATOMS    COLORGROUP SYSTEM
3 4 25 26
@<TRIPOS>COMMENT
> <Gold.Version>
2022.2.0

> <Gold.Id.Protein>
3pbl|protein|mol2

> <Gold.Protein.RotatedTorsions>
[ 1303 1298 1297 1294 ] final  131.49 input  179.99 | X-H torsion
[ 2461 2456 2455 2452 ] final   13.08 input   30.03 | X-H torsion
[ 2515 2510 2509 2506 ] final   -5.55 input  -89.99 | X-H torsion
[ 3721 3712 3711 3710 ] final  143.63 input -179.91 | X-H torsion
[ 3841 3832 3831 3830 ] final   46.60 input -179.91 | X-H torsion
[ 3767 3762 3761 3758 ] final  -80.14 input  -89.99 | X-H torsion
[ 2472 2467 2466 2463 ] final    9.73 input  -89.97 | X-H torsion

> <Gold.Protein.ActiveResidues>
 VAL82   VAL86   LEU89   PHE106  VAL107  ASP110  VAL111  MET112  CYS114  THR115 
 CYS181  SER182  ILE183  PHE188  VAL189  ILE190  SER192  SER193  SER196  TRP342 
 PHE345  PHE346  HIS349  VAL350  TYR365  THR369  GLY372  TYR373 

> <Gold.Protein.RotatedAtoms>
    4.8274   -9.6027    4.9442 H   0  0  0  0  0  0  0  0  0  0  0  0  # atno 1303 bound_to 1298
    1.2482   -7.9351    7.0500 H   0  0  0  0  0  0  0  0  0  0  0  0  # atno 2461 bound_to 2456
   -3.8983   -4.8437    7.9530 H   0  0  0  0  0  0  0  0  0  0  0  0  # atno 2472 bound_to 2467
    2.5780   -7.6903    4.5514 H   0  0  0  0  0  0  0  0  0  0  0  0  # atno 2515 bound_to 2510
   -3.1690  -16.9365   13.1457 H   0  0  0  0  0  0  0  0  0  0  0  0  # atno 3721 bound_to 3712
   -5.3225  -21.9462   11.0853 H   0  0  0  0  0  0  0  0  0  0  0  0  # atno 3767 bound_to 3762
    2.2875  -20.8930    9.5813 H   0  0  0  0  0  0  0  0  0  0  0  0  # atno 3841 bound_to 3832
    3.4595  -10.0115    4.1516 LP  0  0  0  0  0  0  0  0  0  0  0  0  # atno 4297 bound_to 1298
    4.0750   -8.5070    3.9956 LP  0  0  0  0  0  0  0  0  0  0  0  0  # atno 4298 bound_to 1298
    0.4521   -9.0733    7.9090 LP  0  0  0  0  0  0  0  0  0  0  0  0  # atno 4299 bound_to 2456
    2.0374   -8.7995    8.1889 LP  0  0  0  0  0  0  0  0  0  0  0  0  # atno 4300 bound_to 2456
    2.6854   -9.2301    5.0835 LP  0  0  0  0  0  0  0  0  0  0  0  0  # atno 4301 bound_to 2510
    2.0333   -8.0790    6.0407 LP  0  0  0  0  0  0  0  0  0  0  0  0  # atno 4302 bound_to 2510
   -2.6097  -18.2163   13.9376 LP  0  0  0  0  0  0  0  0  0  0  0  0  # atno 4306 bound_to 3712
   -3.2593  -16.9566   14.7486 LP  0  0  0  0  0  0  0  0  0  0  0  0  # atno 4307 bound_to 3712
    1.5542  -19.7616    8.7105 LP  0  0  0  0  0  0  0  0  0  0  0  0  # atno 4314 bound_to 3832
    3.0327  -20.3091    8.2853 LP  0  0  0  0  0  0  0  0  0  0  0  0  # atno 4315 bound_to 3832
   -3.9551  -22.7813   11.4009 LP  0  0  0  0  0  0  0  0  0  0  0  0  # atno 4318 bound_to 3762
   -4.8500  -23.1474   10.0849 LP  0  0  0  0  0  0  0  0  0  0  0  0  # atno 4319 bound_to 3762
   -4.3444   -5.4188    9.4148 LP  0  0  0  0  0  0  0  0  0  0  0  0  # atno 4320 bound_to 2467
   -5.4740   -5.1309    8.2712 LP  0  0  0  0  0  0  0  0  0  0  0  0  # atno 4321 bound_to 2467

> <Gold.Score>
     Score     S(PLP)   S(hbond)     S(cho)   S(metal)  DE(clash)   DE(tors)     intcor
     33.80     -25.21       3.00       0.00       0.00       0.00       0.20       0.00

> <Gold.PLP.Fitness>
33.8032

> <Gold.PLP.PLP>
-25.2114

> <Gold.PLP.part.hbond>
-2.0000

> <Gold.PLP.part.metal>
0.0000

> <Gold.PLP.part.buried>
-3.6652

> <Gold.PLP.part.nonpolar>
-19.8829

> <Gold.PLP.part.repulsive>
0.0000

> <Gold.PLP.ligand.clash>
0.0000

> <Gold.PLP.ligand.torsion>
0.2048

> <Gold.PLP.Chemscore.Hbond>
3.0000

> <Gold.PLP.Chemscore.CHOScore>
0.0000

> <Gold.PLP.Chemscore.Metal>
0.0000

> <Gold.Chemscore.Hbonds>
donor molecule, donor type, donor heavy atom, donor atom, acceptor molecule, acceptor atom, score
      L1  H     3     4       P1  1227  2.00
      L1  H    10    26       P1  1227  1.00

> <Gold.PLP.Chemscore.Internal.Correction>
0.0015

