#       Name:                amine_i002
#       Creating user name   fsindt
#       Creation time:       Fri Aug 11 18:08:01 2023


#       File generated by GOLD software.
#

@<TRIPOS>MOLECULE
amine_i002|amine|mol2|2|dock2
    26    26     1
SMALL
NO_CHARGES


@<TRIPOS>ATOM
      1 C1           0.1996 -15.9013  11.5959 C.3            1 <1>                0.0000
      2 C2           0.3919 -14.7115  10.6535 C.3            1 <1>                0.0000
      3 N3           0.9033 -15.1878   9.3615 N.4            1 <1>                0.0000
      4 H4           1.4906 -15.9956   9.5049 H              1 <1>                0.0000
      5 C5           1.6834 -14.1149   8.7090 C.3            1 <1>                0.0000
      6 C6           1.3790 -14.2674   7.1978 C.3            1 <1>                0.0000
      7 C7          -0.1191 -14.6699   7.2190 C.3            1 <1>                0.0000
      8 C8          -0.2253 -15.5448   8.4823 C.3            1 <1>                0.0000
      9 C9          -0.1347 -17.0236   8.1004 C.3            1 <1>                0.0000
     10 N10         -0.1002 -17.8428   9.3192 N.3            1 <1>                0.0000
     11 H11         -0.5134 -16.6000  11.1581 H              1 <1>                0.0000
     12 H12          1.1551 -16.4039  11.7462 H              1 <1>                0.0000
     13 H13         -0.1799 -15.5479  12.5546 H              1 <1>                0.0000
     14 H14         -0.5637 -14.2090  10.5032 H              1 <1>                0.0000
     15 H15          1.1049 -14.0128  11.0912 H              1 <1>                0.0000
     16 H16          1.3569 -13.1379   9.0652 H              1 <1>                0.0000
     17 H17          2.7483 -14.2519   8.8973 H              1 <1>                0.0000
     18 H18          1.5220 -13.3225   6.6734 H              1 <1>                0.0000
     19 H19          1.9886 -15.0545   6.7542 H              1 <1>                0.0000
     20 H20         -0.7538 -13.7882   7.3076 H              1 <1>                0.0000
     21 H21         -0.3766 -15.2436   6.3287 H              1 <1>                0.0000
     22 H22         -1.1689 -15.3481   8.9912 H              1 <1>                0.0000
     23 H23         -1.0037 -17.2983   7.5025 H              1 <1>                0.0000
     24 H24          0.7732 -17.1944   7.5219 H              1 <1>                0.0000
     25 H25          0.8492 -17.9986   9.6234 H              1 <1>                0.0000
     26 H26         -0.6507 -17.4227  10.0530 H              1 <1>                0.0000
@<TRIPOS>BOND
    1    1    2 1     
    2    1   11 1     
    3    1   12 1     
    4    1   13 1     
    5    2    3 1     
    6    2   14 1     
    7    2   15 1     
    8    3    4 1     
    9    3    8 1     
   10    3    5 1     
   11    5    6 1     
   12    5   16 1     
   13    5   17 1     
   14    6    7 1     
   15    6   18 1     
   16    6   19 1     
   17    7    8 1     
   18    7   20 1     
   19    7   21 1     
   20    8    9 1     
   21    8   22 1     
   22    9   10 1     
   23    9   23 1     
   24    9   24 1     
   25   10   25 1     
   26   10   26 1     
@<TRIPOS>SUBSTRUCTURE
      1 ****           1
@<TRIPOS>SET
DONOR_HYDROGENS      STATIC     ATOMS    <user>   **** ""
3 4 25 26
ATOM$RED        STATIC     ATOMS    COLORGROUP SYSTEM
3 4 25 26
@<TRIPOS>COMMENT
> <Gold.Version>
2022.2.0

> <Gold.Id.Protein>
3pbl|protein|mol2

> <Gold.Protein.RotatedTorsions>
[ 1303 1298 1297 1294 ] final -114.94 input  179.99 | X-H torsion
[ 2461 2456 2455 2452 ] final  111.24 input   30.03 | X-H torsion
[ 2515 2510 2509 2506 ] final    8.21 input  -89.99 | X-H torsion
[ 3721 3712 3711 3710 ] final  179.88 input -179.91 | X-H torsion
[ 3841 3832 3831 3830 ] final  -83.75 input -179.91 | X-H torsion
[ 3767 3762 3761 3758 ] final   10.82 input  -89.99 | X-H torsion
[ 2472 2467 2466 2463 ] final  -92.91 input  -89.97 | X-H torsion

> <Gold.Protein.ActiveResidues>
 VAL82   VAL86   LEU89   PHE106  VAL107  ASP110  VAL111  MET112  CYS114  THR115 
 CYS181  SER182  ILE183  PHE188  VAL189  ILE190  SER192  SER193  SER196  TRP342 
 PHE345  PHE346  HIS349  VAL350  TYR365  THR369  GLY372  TYR373 

> <Gold.Protein.RotatedAtoms>
    4.1636   -8.4861    4.0496 H   0  0  0  0  0  0  0  0  0  0  0  0  # atno 1303 bound_to 1298
    2.1519   -8.5409    7.9706 H   0  0  0  0  0  0  0  0  0  0  0  0  # atno 2461 bound_to 2456
   -4.0833   -5.3568    9.3202 H   0  0  0  0  0  0  0  0  0  0  0  0  # atno 2472 bound_to 2467
    2.4843   -7.5507    4.7022 H   0  0  0  0  0  0  0  0  0  0  0  0  # atno 2515 bound_to 2510
   -3.3215  -16.6083   13.5450 H   0  0  0  0  0  0  0  0  0  0  0  0  # atno 3721 bound_to 3712
   -5.2153  -22.8474   10.0931 H   0  0  0  0  0  0  0  0  0  0  0  0  # atno 3767 bound_to 3762
    1.7886  -19.6428    8.7708 H   0  0  0  0  0  0  0  0  0  0  0  0  # atno 3841 bound_to 3832
    4.7835   -9.6988    4.9504 LP  0  0  0  0  0  0  0  0  0  0  0  0  # atno 4297 bound_to 1298
    3.4151   -9.9367    4.0917 LP  0  0  0  0  0  0  0  0  0  0  0  0  # atno 4298 bound_to 1298
    0.9075   -8.0420    7.0378 LP  0  0  0  0  0  0  0  0  0  0  0  0  # atno 4299 bound_to 2456
    0.6786   -9.2252    8.1398 LP  0  0  0  0  0  0  0  0  0  0  0  0  # atno 4300 bound_to 2456
    2.7529   -9.1510    4.8830 LP  0  0  0  0  0  0  0  0  0  0  0  0  # atno 4301 bound_to 2510
    2.0595   -8.2978    6.0904 LP  0  0  0  0  0  0  0  0  0  0  0  0  # atno 4302 bound_to 2510
   -2.7320  -18.0912   13.3682 LP  0  0  0  0  0  0  0  0  0  0  0  0  # atno 4306 bound_to 3712
   -2.9609  -17.4606   14.8570 LP  0  0  0  0  0  0  0  0  0  0  0  0  # atno 4307 bound_to 3712
    3.1032  -20.4856    8.3997 LP  0  0  0  0  0  0  0  0  0  0  0  0  # atno 4314 bound_to 3832
    2.0600  -21.0293    9.5324 LP  0  0  0  0  0  0  0  0  0  0  0  0  # atno 4315 bound_to 3832
   -4.9949  -21.9295   11.4257 LP  0  0  0  0  0  0  0  0  0  0  0  0  # atno 4318 bound_to 3762
   -3.9174  -23.0982   11.0520 LP  0  0  0  0  0  0  0  0  0  0  0  0  # atno 4319 bound_to 3762
   -5.5098   -5.2302    8.5357 LP  0  0  0  0  0  0  0  0  0  0  0  0  # atno 4320 bound_to 2467
   -4.1237   -4.8066    7.7834 LP  0  0  0  0  0  0  0  0  0  0  0  0  # atno 4321 bound_to 2467

> <Gold.Score>
     Score     S(PLP)   S(hbond)     S(cho)   S(metal)  DE(clash)   DE(tors)     intcor
     36.39     -28.07       3.00       0.00       0.00       0.00       0.34       0.00

> <Gold.PLP.Fitness>
36.3903

> <Gold.PLP.PLP>
-28.0719

> <Gold.PLP.part.hbond>
-2.0000

> <Gold.PLP.part.metal>
0.0000

> <Gold.PLP.part.buried>
-2.7813

> <Gold.PLP.part.nonpolar>
-23.8088

> <Gold.PLP.part.repulsive>
0.0122

> <Gold.PLP.ligand.clash>
0.0000

> <Gold.PLP.ligand.torsion>
0.3416

> <Gold.PLP.Chemscore.Hbond>
3.0000

> <Gold.PLP.Chemscore.CHOScore>
0.0000

> <Gold.PLP.Chemscore.Metal>
0.0000

> <Gold.Chemscore.Hbonds>
donor molecule, donor type, donor heavy atom, donor atom, acceptor molecule, acceptor atom, score
      L1  H     3     4       P1  1227  2.00
      L1  H    10    25       P1  1227  1.00

> <Gold.PLP.Chemscore.Internal.Correction>
0.0015

