#       Name:                amine_i002
#       Creating user name   fsindt
#       Creation time:       Fri Aug 11 18:08:06 2023


#       File generated by GOLD software.
#

@<TRIPOS>MOLECULE
amine_i002|amine|mol2|2|dock9
    26    26     1
SMALL
NO_CHARGES


@<TRIPOS>ATOM
      1 C1          -0.3048 -13.3621  10.3868 C.3            1 <1>                0.0000
      2 C2           0.6942 -14.5069  10.5664 C.3            1 <1>                0.0000
      3 N3           0.9464 -15.1450   9.2675 N.4            1 <1>                0.0000
      4 H4           1.4993 -15.9786   9.3995 H              1 <1>                0.0000
      5 C5           1.6668 -14.2048   8.3828 C.3            1 <1>                0.0000
      6 C6           1.0988 -14.4790   6.9679 C.3            1 <1>                0.0000
      7 C7          -0.3951 -14.7590   7.2787 C.3            1 <1>                0.0000
      8 C8          -0.3359 -15.4961   8.6299 C.3            1 <1>                0.0000
      9 C9          -0.4024 -17.0076   8.4016 C.3            1 <1>                0.0000
     10 N10         -0.1632 -17.7056   9.6718 N.3            1 <1>                0.0000
     11 H11          0.1055 -12.6271   9.6944 H              1 <1>                0.0000
     12 H12         -1.2398 -13.7551   9.9874 H              1 <1>                0.0000
     13 H13         -0.4919 -12.8886  11.3506 H              1 <1>                0.0000
     14 H14          1.6292 -14.1139  10.9658 H              1 <1>                0.0000
     15 H15          0.2839 -15.2421  11.2588 H              1 <1>                0.0000
     16 H16          1.4662 -13.1753   8.6794 H              1 <1>                0.0000
     17 H17          2.7378 -14.4059   8.4073 H              1 <1>                0.0000
     18 H18          1.2069 -13.6036   6.3274 H              1 <1>                0.0000
     19 H19          1.5742 -15.3507   6.5184 H              1 <1>                0.0000
     20 H20         -0.9504 -13.8259   7.3740 H              1 <1>                0.0000
     21 H21         -0.8360 -15.3944   6.5107 H              1 <1>                0.0000
     22 H22         -1.1645 -15.1778   9.2625 H              1 <1>                0.0000
     23 H23         -1.3879 -17.2744   8.0203 H              1 <1>                0.0000
     24 H24          0.3586 -17.2994   7.6777 H              1 <1>                0.0000
     25 H25         -0.4229 -18.6782   9.6044 H              1 <1>                0.0000
     26 H26          0.7978 -17.6073   9.9630 H              1 <1>                0.0000
@<TRIPOS>BOND
    1    1    2 1     
    2    1   11 1     
    3    1   12 1     
    4    1   13 1     
    5    2    3 1     
    6    2   14 1     
    7    2   15 1     
    8    3    4 1     
    9    3    8 1     
   10    3    5 1     
   11    5    6 1     
   12    5   16 1     
   13    5   17 1     
   14    6    7 1     
   15    6   18 1     
   16    6   19 1     
   17    7    8 1     
   18    7   20 1     
   19    7   21 1     
   20    8    9 1     
   21    8   22 1     
   22    9   10 1     
   23    9   23 1     
   24    9   24 1     
   25   10   25 1     
   26   10   26 1     
@<TRIPOS>SUBSTRUCTURE
      1 ****           1
@<TRIPOS>SET
DONOR_HYDROGENS      STATIC     ATOMS    <user>   **** ""
3 4 25 26
ATOM$RED        STATIC     ATOMS    COLORGROUP SYSTEM
3 4 25 26
@<TRIPOS>COMMENT
> <Gold.Version>
2022.2.0

> <Gold.Id.Protein>
3pbl|protein|mol2

> <Gold.Protein.RotatedTorsions>
[ 1303 1298 1297 1294 ] final -124.01 input  179.99 | X-H torsion
[ 2461 2456 2455 2452 ] final -119.76 input   30.03 | X-H torsion
[ 2515 2510 2509 2506 ] final -110.71 input  -89.99 | X-H torsion
[ 3721 3712 3711 3710 ] final -145.58 input -179.91 | X-H torsion
[ 3841 3832 3831 3830 ] final -160.53 input -179.91 | X-H torsion
[ 3767 3762 3761 3758 ] final -149.11 input  -89.99 | X-H torsion
[ 2472 2467 2466 2463 ] final   69.12 input  -89.97 | X-H torsion

> <Gold.Protein.ActiveResidues>
 VAL82   VAL86   LEU89   PHE106  VAL107  ASP110  VAL111  MET112  CYS114  THR115 
 CYS181  SER182  ILE183  PHE188  VAL189  ILE190  SER192  SER193  SER196  TRP342 
 PHE345  PHE346  HIS349  VAL350  TYR365  THR369  GLY372  TYR373 

> <Gold.Protein.RotatedAtoms>
    4.2875   -8.4756    4.1316 H   0  0  0  0  0  0  0  0  0  0  0  0  # atno 1303 bound_to 1298
    0.5730   -9.1726    8.0504 H   0  0  0  0  0  0  0  0  0  0  0  0  # atno 2461 bound_to 2456
   -4.7905   -4.8420    7.6759 H   0  0  0  0  0  0  0  0  0  0  0  0  # atno 2472 bound_to 2467
    2.7575   -9.1424    4.8681 H   0  0  0  0  0  0  0  0  0  0  0  0  # atno 2515 bound_to 2510
   -3.3168  -16.5374   14.0544 H   0  0  0  0  0  0  0  0  0  0  0  0  # atno 3721 bound_to 3712
   -4.4467  -22.1839   11.6481 H   0  0  0  0  0  0  0  0  0  0  0  0  # atno 3767 bound_to 3762
    2.7579  -19.8448    8.3515 H   0  0  0  0  0  0  0  0  0  0  0  0  # atno 3841 bound_to 3832
    4.7072   -9.8267    4.9469 LP  0  0  0  0  0  0  0  0  0  0  0  0  # atno 4297 bound_to 1298
    3.3675   -9.8194    4.0132 LP  0  0  0  0  0  0  0  0  0  0  0  0  # atno 4298 bound_to 1298
    2.1198   -8.6487    8.0670 LP  0  0  0  0  0  0  0  0  0  0  0  0  # atno 4299 bound_to 2456
    1.0448   -7.9871    7.0309 LP  0  0  0  0  0  0  0  0  0  0  0  0  # atno 4300 bound_to 2456
    2.0625   -8.3151    6.0922 LP  0  0  0  0  0  0  0  0  0  0  0  0  # atno 4301 bound_to 2510
    2.4766   -7.5413    4.7151 LP  0  0  0  0  0  0  0  0  0  0  0  0  # atno 4302 bound_to 2510
   -2.9778  -17.7164   13.0185 LP  0  0  0  0  0  0  0  0  0  0  0  0  # atno 4306 bound_to 3712
   -2.7205  -17.9172   14.6185 LP  0  0  0  0  0  0  0  0  0  0  0  0  # atno 4307 bound_to 3712
    2.6540  -21.1531    9.2755 LP  0  0  0  0  0  0  0  0  0  0  0  0  # atno 4314 bound_to 3832
    1.3896  -20.1284    9.1410 LP  0  0  0  0  0  0  0  0  0  0  0  0  # atno 4315 bound_to 3832
   -4.1838  -23.3282   10.5130 LP  0  0  0  0  0  0  0  0  0  0  0  0  # atno 4318 bound_to 3762
   -5.4968  -22.3628   10.4103 LP  0  0  0  0  0  0  0  0  0  0  0  0  # atno 4319 bound_to 3762
   -3.6734   -5.1344    8.8305 LP  0  0  0  0  0  0  0  0  0  0  0  0  # atno 4320 bound_to 2467
   -5.2531   -5.4171    9.1325 LP  0  0  0  0  0  0  0  0  0  0  0  0  # atno 4321 bound_to 2467

> <Gold.Score>
     Score     S(PLP)   S(hbond)     S(cho)   S(metal)  DE(clash)   DE(tors)     intcor
     36.86     -27.97       3.00       0.00       0.00       0.00       0.06       0.00

> <Gold.PLP.Fitness>
36.8638

> <Gold.PLP.PLP>
-27.9725

> <Gold.PLP.part.hbond>
-2.0000

> <Gold.PLP.part.metal>
0.0000

> <Gold.PLP.part.buried>
-3.2239

> <Gold.PLP.part.nonpolar>
-22.9643

> <Gold.PLP.part.repulsive>
0.0162

> <Gold.PLP.ligand.clash>
0.0000

> <Gold.PLP.ligand.torsion>
0.0551

> <Gold.PLP.Chemscore.Hbond>
3.0000

> <Gold.PLP.Chemscore.CHOScore>
0.0000

> <Gold.PLP.Chemscore.Metal>
0.0000

> <Gold.Chemscore.Hbonds>
donor molecule, donor type, donor heavy atom, donor atom, acceptor molecule, acceptor atom, score
      L1  H     3     4       P1  1227  2.00
      L1  H    10    26       P1  1227  1.00

> <Gold.PLP.Chemscore.Internal.Correction>
0.0015

