#       Name:                amine_i002
#       Creating user name   fsindt
#       Creation time:       Fri Aug 11 18:08:11 2023


#       File generated by GOLD software.
#

@<TRIPOS>MOLECULE
amine_i002|amine|mol2|2|dock16
    26    26     1
SMALL
NO_CHARGES


@<TRIPOS>ATOM
      1 C1          -0.7773 -18.4861   9.1406 C.3            1 <1>                0.0000
      2 C2          -0.7133 -17.0214   8.7034 C.3            1 <1>                0.0000
      3 N3           0.2555 -16.3021   9.5412 N.4            1 <1>                0.0000
      4 H4           1.1848 -16.6530   9.3644 H              1 <1>                0.0000
      5 C5          -0.0843 -16.4899  10.9677 C.3            1 <1>                0.0000
      6 C6           0.2611 -15.1368  11.6381 C.3            1 <1>                0.0000
      7 C7          -0.1601 -14.1261  10.5391 C.3            1 <1>                0.0000
      8 C8           0.2027 -14.8608   9.2348 C.3            1 <1>                0.0000
      9 C9           1.5694 -14.3888   8.7344 C.3            1 <1>                0.0000
     10 N10          1.6994 -14.6953   7.3037 N.3            1 <1>                0.0000
     11 H11          0.2069 -18.9415   9.0306 H              1 <1>                0.0000
     12 H12         -1.0881 -18.5406  10.1840 H              1 <1>                0.0000
     13 H13         -1.4961 -19.0199   8.5190 H              1 <1>                0.0000
     14 H14         -0.4024 -16.9670   7.6601 H              1 <1>                0.0000
     15 H15         -1.6975 -16.5659   8.8134 H              1 <1>                0.0000
     16 H16         -1.1463 -16.7086  11.0793 H              1 <1>                0.0000
     17 H17          0.5163 -17.2911  11.3985 H              1 <1>                0.0000
     18 H18         -0.3228 -14.9911  12.5470 H              1 <1>                0.0000
     19 H19          1.3286 -15.0653  11.8461 H              1 <1>                0.0000
     20 H20         -1.2314 -13.9309  10.5851 H              1 <1>                0.0000
     21 H21          0.4059 -13.1991  10.6309 H              1 <1>                0.0000
     22 H22         -0.5579 -14.6698   8.4779 H              1 <1>                0.0000
     23 H23          1.6599 -13.3132   8.8853 H              1 <1>                0.0000
     24 H24          2.3559 -14.9010   9.2887 H              1 <1>                0.0000
     25 H25          1.6296 -13.8570   6.7465 H              1 <1>                0.0000
     26 H26          2.5620 -15.1838   7.1155 H              1 <1>                0.0000
@<TRIPOS>BOND
    1    1    2 1     
    2    1   11 1     
    3    1   12 1     
    4    1   13 1     
    5    2    3 1     
    6    2   14 1     
    7    2   15 1     
    8    3    4 1     
    9    3    8 1     
   10    3    5 1     
   11    5    6 1     
   12    5   16 1     
   13    5   17 1     
   14    6    7 1     
   15    6   18 1     
   16    6   19 1     
   17    7    8 1     
   18    7   20 1     
   19    7   21 1     
   20    8    9 1     
   21    8   22 1     
   22    9   10 1     
   23    9   23 1     
   24    9   24 1     
   25   10   25 1     
   26   10   26 1     
@<TRIPOS>SUBSTRUCTURE
      1 ****           1
@<TRIPOS>SET
DONOR_HYDROGENS      STATIC     ATOMS    <user>   **** ""
3 4 25 26
ATOM$RED        STATIC     ATOMS    COLORGROUP SYSTEM
3 4 25 26
@<TRIPOS>COMMENT
> <Gold.Version>
2022.2.0

> <Gold.Id.Protein>
3pbl|protein|mol2

> <Gold.Protein.RotatedTorsions>
[ 1303 1298 1297 1294 ] final  -12.65 input  179.99 | X-H torsion
[ 2461 2456 2455 2452 ] final   87.84 input   30.03 | X-H torsion
[ 2515 2510 2509 2506 ] final   95.25 input  -89.99 | X-H torsion
[ 3721 3712 3711 3710 ] final   39.26 input -179.91 | X-H torsion
[ 3841 3832 3831 3830 ] final  -64.64 input -179.91 | X-H torsion
[ 3767 3762 3761 3758 ] final  -80.09 input  -89.99 | X-H torsion
[ 2472 2467 2466 2463 ] final   88.09 input  -89.97 | X-H torsion

> <Gold.Protein.ActiveResidues>
 VAL82   VAL86   LEU89   PHE106  VAL107  ASP110  VAL111  MET112  CYS114  THR115 
 CYS181  SER182  ILE183  PHE188  VAL189  ILE190  SER192  SER193  SER196  TRP342 
 PHE345  PHE346  HIS349  VAL350  TYR365  THR369  GLY372  TYR373 

> <Gold.Protein.RotatedAtoms>
    3.3396   -9.6969    3.9468 H   0  0  0  0  0  0  0  0  0  0  0  0  # atno 1303 bound_to 1298
    2.1299   -8.2747    7.6969 H   0  0  0  0  0  0  0  0  0  0  0  0  # atno 2461 bound_to 2456
   -5.0751   -4.9108    7.7799 H   0  0  0  0  0  0  0  0  0  0  0  0  # atno 2472 bound_to 2467
    2.0354   -7.8008    5.8940 H   0  0  0  0  0  0  0  0  0  0  0  0  # atno 2515 bound_to 2510
   -2.5049  -18.0152   13.6637 H   0  0  0  0  0  0  0  0  0  0  0  0  # atno 3721 bound_to 3712
   -5.3229  -21.9463   11.0848 H   0  0  0  0  0  0  0  0  0  0  0  0  # atno 3767 bound_to 3762
    1.6384  -19.7716    8.9791 H   0  0  0  0  0  0  0  0  0  0  0  0  # atno 3841 bound_to 3832
    4.4022   -8.4863    4.2149 LP  0  0  0  0  0  0  0  0  0  0  0  0  # atno 4297 bound_to 1298
    4.6207   -9.9380    4.9301 LP  0  0  0  0  0  0  0  0  0  0  0  0  # atno 4298 bound_to 1298
    0.5976   -8.2450    7.1324 LP  0  0  0  0  0  0  0  0  0  0  0  0  # atno 4299 bound_to 2456
    1.0105   -9.2884    8.3188 LP  0  0  0  0  0  0  0  0  0  0  0  0  # atno 4300 bound_to 2456
    2.6936   -7.9446    4.4068 LP  0  0  0  0  0  0  0  0  0  0  0  0  # atno 4301 bound_to 2510
    2.5679   -9.2541    5.3742 LP  0  0  0  0  0  0  0  0  0  0  0  0  # atno 4302 bound_to 2510
   -3.1569  -17.1230   14.8285 LP  0  0  0  0  0  0  0  0  0  0  0  0  # atno 4306 bound_to 3712
   -3.4789  -16.8045   13.2596 LP  0  0  0  0  0  0  0  0  0  0  0  0  # atno 4307 bound_to 3712
    2.9887  -20.2331    8.2444 LP  0  0  0  0  0  0  0  0  0  0  0  0  # atno 4314 bound_to 3832
    2.3480  -21.1331    9.4470 LP  0  0  0  0  0  0  0  0  0  0  0  0  # atno 4315 bound_to 3832
   -3.9553  -22.7808   11.4013 LP  0  0  0  0  0  0  0  0  0  0  0  0  # atno 4318 bound_to 3762
   -4.8494  -23.1477   10.0851 LP  0  0  0  0  0  0  0  0  0  0  0  0  # atno 4319 bound_to 3762
   -3.6354   -5.0262    8.5418 LP  0  0  0  0  0  0  0  0  0  0  0  0  # atno 4320 bound_to 2467
   -5.0065   -5.4565    9.3173 LP  0  0  0  0  0  0  0  0  0  0  0  0  # atno 4321 bound_to 2467

> <Gold.Score>
     Score     S(PLP)   S(hbond)     S(cho)   S(metal)  DE(clash)   DE(tors)     intcor
     35.64     -27.10       3.00       0.00       0.00       0.00       0.23       0.00

> <Gold.PLP.Fitness>
35.6410

> <Gold.PLP.PLP>
-27.1027

> <Gold.PLP.part.hbond>
-2.0000

> <Gold.PLP.part.metal>
0.0000

> <Gold.PLP.part.buried>
-3.1035

> <Gold.PLP.part.nonpolar>
-21.9295

> <Gold.PLP.part.repulsive>
0.0000

> <Gold.PLP.ligand.clash>
0.0000

> <Gold.PLP.ligand.torsion>
0.2316

> <Gold.PLP.Chemscore.Hbond>
3.0000

> <Gold.PLP.Chemscore.CHOScore>
0.0000

> <Gold.PLP.Chemscore.Metal>
0.0000

> <Gold.Chemscore.Hbonds>
donor molecule, donor type, donor heavy atom, donor atom, acceptor molecule, acceptor atom, score
      L1  H     3     4       P1  1227  2.00
      L1  H    10    26       P1  1223  1.00

> <Gold.PLP.Chemscore.Internal.Correction>
0.0015

