#       Name:                amine_i002
#       Creating user name   fsindt
#       Creation time:       Fri Aug 11 18:08:13 2023


#       File generated by GOLD software.
#

@<TRIPOS>MOLECULE
amine_i002|amine|mol2|2|dock20
    26    26     1
SMALL
NO_CHARGES


@<TRIPOS>ATOM
      1 C1          -4.3299 -10.1486   9.8965 C.3            1 <1>                0.0000
      2 C2          -2.8333  -9.9350   9.6613 C.3            1 <1>                0.0000
      3 N3          -2.1562 -11.2372   9.6018 N.4            1 <1>                0.0000
      4 H4          -2.5433 -11.7880   8.8503 H              1 <1>                0.0000
      5 C5          -2.3352 -11.9501  10.8845 C.3            1 <1>                0.0000
      6 C6          -0.9992 -12.7014  11.1094 C.3            1 <1>                0.0000
      7 C7           0.0313 -11.6785  10.5630 C.3            1 <1>                0.0000
      8 C8          -0.7129 -11.0362   9.3772 C.3            1 <1>                0.0000
      9 C9          -0.2942 -11.7143   8.0711 C.3            1 <1>                0.0000
     10 N10          1.0993 -11.3657   7.7633 N.3            1 <1>                0.0000
     11 H11         -4.7458 -10.7374   9.0789 H              1 <1>                0.0000
     12 H12         -4.4778 -10.6784  10.8375 H              1 <1>                0.0000
     13 H13         -4.8324  -9.1824   9.9406 H              1 <1>                0.0000
     14 H14         -2.6855  -9.4052   8.7202 H              1 <1>                0.0000
     15 H15         -2.4174  -9.3462  10.4789 H              1 <1>                0.0000
     16 H16         -2.5117 -11.2397  11.6921 H              1 <1>                0.0000
     17 H17         -3.1612 -12.6578  10.8133 H              1 <1>                0.0000
     18 H18         -0.8334 -12.8944  12.1693 H              1 <1>                0.0000
     19 H19         -0.9712 -13.6281  10.5363 H              1 <1>                0.0000
     20 H20          0.2689 -10.9298  11.3186 H              1 <1>                0.0000
     21 H21          0.9346 -12.1854  10.2237 H              1 <1>                0.0000
     22 H22         -0.4891  -9.9704   9.3324 H              1 <1>                0.0000
     23 H23         -0.3832 -12.7953   8.1781 H              1 <1>                0.0000
     24 H24         -0.9409 -11.3748   7.2619 H              1 <1>                0.0000
     25 H25          1.3065 -10.4198   8.0469 H              1 <1>                0.0000
     26 H26          1.7383 -12.0195   8.1903 H              1 <1>                0.0000
@<TRIPOS>BOND
    1    1    2 1     
    2    1   11 1     
    3    1   12 1     
    4    1   13 1     
    5    2    3 1     
    6    2   14 1     
    7    2   15 1     
    8    3    4 1     
    9    3    8 1     
   10    3    5 1     
   11    5    6 1     
   12    5   16 1     
   13    5   17 1     
   14    6    7 1     
   15    6   18 1     
   16    6   19 1     
   17    7    8 1     
   18    7   20 1     
   19    7   21 1     
   20    8    9 1     
   21    8   22 1     
   22    9   10 1     
   23    9   23 1     
   24    9   24 1     
   25   10   25 1     
   26   10   26 1     
@<TRIPOS>SUBSTRUCTURE
      1 ****           1
@<TRIPOS>SET
DONOR_HYDROGENS      STATIC     ATOMS    <user>   **** ""
3 4 25 26
ATOM$RED        STATIC     ATOMS    COLORGROUP SYSTEM
3 4 25 26
@<TRIPOS>COMMENT
> <Gold.Version>
2022.2.0

> <Gold.Id.Protein>
3pbl|protein|mol2

> <Gold.Protein.RotatedTorsions>
[ 1303 1298 1297 1294 ] final   35.14 input  179.99 | X-H torsion
[ 2461 2456 2455 2452 ] final   59.50 input   30.03 | X-H torsion
[ 2515 2510 2509 2506 ] final  -34.01 input  -89.99 | X-H torsion
[ 3721 3712 3711 3710 ] final  102.64 input -179.91 | X-H torsion
[ 3841 3832 3831 3830 ] final  -54.08 input -179.91 | X-H torsion
[ 3767 3762 3761 3758 ] final   93.33 input  -89.99 | X-H torsion
[ 2472 2467 2466 2463 ] final  -33.04 input  -89.97 | X-H torsion

> <Gold.Protein.ActiveResidues>
 VAL82   VAL86   LEU89   PHE106  VAL107  ASP110  VAL111  MET112  CYS114  THR115 
 CYS181  SER182  ILE183  PHE188  VAL189  ILE190  SER192  SER193  SER196  TRP342 
 PHE345  PHE346  HIS349  VAL350  TYR365  THR369  GLY372  TYR373 

> <Gold.Protein.RotatedAtoms>
    3.6892  -10.2114    4.3895 H   0  0  0  0  0  0  0  0  0  0  0  0  # atno 1303 bound_to 1298
    1.9108   -8.0279    7.3740 H   0  0  0  0  0  0  0  0  0  0  0  0  # atno 2461 bound_to 2456
   -3.6347   -5.0331    8.5591 H   0  0  0  0  0  0  0  0  0  0  0  0  # atno 2472 bound_to 2467
    2.7397   -8.0846    4.3695 H   0  0  0  0  0  0  0  0  0  0  0  0  # atno 2515 bound_to 2510
   -2.8781  -17.4595   13.0471 H   0  0  0  0  0  0  0  0  0  0  0  0  # atno 3721 bound_to 3712
   -4.1580  -23.3229   10.5432 H   0  0  0  0  0  0  0  0  0  0  0  0  # atno 3767 bound_to 3762
    1.5881  -19.8675    9.0961 H   0  0  0  0  0  0  0  0  0  0  0  0  # atno 3841 bound_to 3832
    3.7621   -8.6744    3.8430 LP  0  0  0  0  0  0  0  0  0  0  0  0  # atno 4297 bound_to 1298
    4.9110   -9.2351    4.8590 LP  0  0  0  0  0  0  0  0  0  0  0  0  # atno 4298 bound_to 1298
    0.3686   -8.5657    7.3728 LP  0  0  0  0  0  0  0  0  0  0  0  0  # atno 4299 bound_to 2456
    1.4586   -9.2144    8.4013 LP  0  0  0  0  0  0  0  0  0  0  0  0  # atno 4300 bound_to 2456
    2.5049   -9.2287    5.5105 LP  0  0  0  0  0  0  0  0  0  0  0  0  # atno 4301 bound_to 2510
    2.0519   -7.6859    5.7956 LP  0  0  0  0  0  0  0  0  0  0  0  0  # atno 4302 bound_to 2510
   -2.6936  -17.9736   14.5569 LP  0  0  0  0  0  0  0  0  0  0  0  0  # atno 4306 bound_to 3712
   -3.5113  -16.5954   14.2430 LP  0  0  0  0  0  0  0  0  0  0  0  0  # atno 4307 bound_to 3712
    2.8897  -20.0994    8.1860 LP  0  0  0  0  0  0  0  0  0  0  0  0  # atno 4314 bound_to 3832
    2.5051  -21.1560    9.3702 LP  0  0  0  0  0  0  0  0  0  0  0  0  # atno 4315 bound_to 3832
   -5.4896  -22.3912   10.3827 LP  0  0  0  0  0  0  0  0  0  0  0  0  # atno 4318 bound_to 3762
   -4.4795  -22.1612   11.6451 LP  0  0  0  0  0  0  0  0  0  0  0  0  # atno 4319 bound_to 3762
   -5.0227   -5.4552    9.3086 LP  0  0  0  0  0  0  0  0  0  0  0  0  # atno 4320 bound_to 2467
   -5.0594   -4.9052    7.7715 LP  0  0  0  0  0  0  0  0  0  0  0  0  # atno 4321 bound_to 2467

> <Gold.Score>
     Score     S(PLP)   S(hbond)     S(cho)   S(metal)  DE(clash)   DE(tors)     intcor
     34.23     -31.30       1.00       0.00       0.00       0.00       0.04       0.00

> <Gold.PLP.Fitness>
34.2326

> <Gold.PLP.PLP>
-31.3036

> <Gold.PLP.part.hbond>
-1.0000

> <Gold.PLP.part.metal>
0.0000

> <Gold.PLP.part.buried>
-3.7432

> <Gold.PLP.part.nonpolar>
-26.9645

> <Gold.PLP.part.repulsive>
0.0012

> <Gold.PLP.ligand.clash>
0.0000

> <Gold.PLP.ligand.torsion>
0.0363

> <Gold.PLP.Chemscore.Hbond>
1.0000

> <Gold.PLP.Chemscore.CHOScore>
0.0000

> <Gold.PLP.Chemscore.Metal>
0.0000

> <Gold.Chemscore.Hbonds>
donor molecule, donor type, donor heavy atom, donor atom, acceptor molecule, acceptor atom, score
      L1  H    10    25       P1  2456  1.00

> <Gold.PLP.Chemscore.Internal.Correction>
0.0015

