#       Name:                amine_i002
#       Creating user name   fsindt
#       Creation time:       Fri Aug 11 18:08:08 2023


#       File generated by GOLD software.
#

@<TRIPOS>MOLECULE
amine_i002|amine|mol2|2|dock12
    26    26     1
SMALL
NO_CHARGES


@<TRIPOS>ATOM
      1 C1           0.0005 -13.5063   9.8076 C.3            1 <1>                0.0000
      2 C2          -0.5934 -12.5691   8.7543 C.3            1 <1>                0.0000
      3 N3          -0.9356 -11.2844   9.3791 N.4            1 <1>                0.0000
      4 H4          -1.1835 -10.6146   8.6663 H              1 <1>                0.0000
      5 C5           0.2207 -10.7834  10.1521 C.3            1 <1>                0.0000
      6 C6          -0.4010 -10.0980  11.3945 C.3            1 <1>                0.0000
      7 C7          -1.5977 -11.0356  11.7036 C.3            1 <1>                0.0000
      8 C8          -2.0700 -11.4685  10.3029 C.3            1 <1>                0.0000
      9 C9          -3.2456 -10.5965   9.8574 C.3            1 <1>                0.0000
     10 N10         -2.7477  -9.2782   9.4426 N.3            1 <1>                0.0000
     11 H11          0.8994 -13.0563  10.2290 H              1 <1>                0.0000
     12 H12         -0.7293 -13.6708  10.6004 H              1 <1>                0.0000
     13 H13          0.2545 -14.4596   9.3441 H              1 <1>                0.0000
     14 H14          0.1364 -12.4045   7.9616 H              1 <1>                0.0000
     15 H15         -1.4924 -13.0190   8.3329 H              1 <1>                0.0000
     16 H16          0.8613 -11.6112  10.4562 H              1 <1>                0.0000
     17 H17          0.7863 -10.0611   9.5635 H              1 <1>                0.0000
     18 H18          0.3052 -10.0796  12.2245 H              1 <1>                0.0000
     19 H19         -0.7450  -9.0920  11.1542 H              1 <1>                0.0000
     20 H20         -1.2710 -11.8991  12.2830 H              1 <1>                0.0000
     21 H21         -2.3858 -10.4946  12.2273 H              1 <1>                0.0000
     22 H22         -2.3685 -12.5167  10.3198 H              1 <1>                0.0000
     23 H23         -3.7543 -11.0729   9.0195 H              1 <1>                0.0000
     24 H24         -3.9437 -10.4770  10.6860 H              1 <1>                0.0000
     25 H25         -3.0824  -9.0387   8.5213 H              1 <1>                0.0000
     26 H26         -2.9995  -8.5688  10.1145 H              1 <1>                0.0000
@<TRIPOS>BOND
    1    1    2 1     
    2    1   11 1     
    3    1   12 1     
    4    1   13 1     
    5    2    3 1     
    6    2   14 1     
    7    2   15 1     
    8    3    4 1     
    9    3    8 1     
   10    3    5 1     
   11    5    6 1     
   12    5   16 1     
   13    5   17 1     
   14    6    7 1     
   15    6   18 1     
   16    6   19 1     
   17    7    8 1     
   18    7   20 1     
   19    7   21 1     
   20    8    9 1     
   21    8   22 1     
   22    9   10 1     
   23    9   23 1     
   24    9   24 1     
   25   10   25 1     
   26   10   26 1     
@<TRIPOS>SUBSTRUCTURE
      1 ****           1
@<TRIPOS>SET
DONOR_HYDROGENS      STATIC     ATOMS    <user>   **** ""
3 4 25 26
ATOM$RED        STATIC     ATOMS    COLORGROUP SYSTEM
3 4 25 26
@<TRIPOS>COMMENT
> <Gold.Version>
2022.2.0

> <Gold.Id.Protein>
3pbl|protein|mol2

> <Gold.Protein.RotatedTorsions>
[ 1303 1298 1297 1294 ] final  176.84 input  179.99 | X-H torsion
[ 2461 2456 2455 2452 ] final  -68.05 input   30.03 | X-H torsion
[ 2515 2510 2509 2506 ] final -174.98 input  -89.99 | X-H torsion
[ 3721 3712 3711 3710 ] final  136.03 input -179.91 | X-H torsion
[ 3841 3832 3831 3830 ] final   -2.05 input -179.91 | X-H torsion
[ 3767 3762 3761 3758 ] final  -62.38 input  -89.99 | X-H torsion
[ 2472 2467 2466 2463 ] final  -33.28 input  -89.97 | X-H torsion

> <Gold.Protein.ActiveResidues>
 VAL82   VAL86   LEU89   PHE106  VAL107  ASP110  VAL111  MET112  CYS114  THR115 
 CYS181  SER182  ILE183  PHE188  VAL189  ILE190  SER192  SER193  SER196  TRP342 
 PHE345  PHE346  HIS349  VAL350  TYR365  THR369  GLY372  TYR373 

> <Gold.Protein.RotatedAtoms>
    4.8700   -8.9168    4.7077 H   0  0  0  0  0  0  0  0  0  0  0  0  # atno 1303 bound_to 1298
    0.3417   -8.6560    7.4536 H   0  0  0  0  0  0  0  0  0  0  0  0  # atno 2461 bound_to 2456
   -3.6346   -5.0345    8.5629 H   0  0  0  0  0  0  0  0  0  0  0  0  # atno 2472 bound_to 2467
    2.3582   -9.0867    5.7861 H   0  0  0  0  0  0  0  0  0  0  0  0  # atno 2515 bound_to 2510
   -3.1211  -17.0278   13.0954 H   0  0  0  0  0  0  0  0  0  0  0  0  # atno 3721 bound_to 3712
   -5.4509  -22.0430   10.8426 H   0  0  0  0  0  0  0  0  0  0  0  0  # atno 3767 bound_to 3762
    1.7194  -20.4632    9.5482 H   0  0  0  0  0  0  0  0  0  0  0  0  # atno 3841 bound_to 3832
    3.9652  -10.2721    4.6042 LP  0  0  0  0  0  0  0  0  0  0  0  0  # atno 4297 bound_to 1298
    3.5266   -8.9326    3.7796 LP  0  0  0  0  0  0  0  0  0  0  0  0  # atno 4298 bound_to 1298
    1.5737   -9.1683    8.3954 LP  0  0  0  0  0  0  0  0  0  0  0  0  # atno 4299 bound_to 2456
    1.8221   -7.9839    7.2990 LP  0  0  0  0  0  0  0  0  0  0  0  0  # atno 4300 bound_to 2456
    2.1256   -7.4923    5.5220 LP  0  0  0  0  0  0  0  0  0  0  0  0  # atno 4301 bound_to 2510
    2.8129   -8.4197    4.3669 LP  0  0  0  0  0  0  0  0  0  0  0  0  # atno 4302 bound_to 2510
   -2.6072  -18.2011   14.0635 LP  0  0  0  0  0  0  0  0  0  0  0  0  # atno 4306 bound_to 3712
   -3.3171  -16.8663   14.6807 LP  0  0  0  0  0  0  0  0  0  0  0  0  # atno 4307 bound_to 3712
    2.1755  -19.6605    8.2353 LP  0  0  0  0  0  0  0  0  0  0  0  0  # atno 4314 bound_to 3832
    3.0676  -20.9067    8.7988 LP  0  0  0  0  0  0  0  0  0  0  0  0  # atno 4315 bound_to 3832
   -4.0743  -22.5624   11.5512 LP  0  0  0  0  0  0  0  0  0  0  0  0  # atno 4318 bound_to 3762
   -4.6024  -23.2695   10.1772 LP  0  0  0  0  0  0  0  0  0  0  0  0  # atno 4319 bound_to 3762
   -5.0262   -5.4548    9.3066 LP  0  0  0  0  0  0  0  0  0  0  0  0  # atno 4320 bound_to 2467
   -5.0559   -4.9042    7.7696 LP  0  0  0  0  0  0  0  0  0  0  0  0  # atno 4321 bound_to 2467

> <Gold.Score>
     Score     S(PLP)   S(hbond)     S(cho)   S(metal)  DE(clash)   DE(tors)     intcor
     36.49     -33.88       0.99       0.00       0.00       0.00       0.18       0.00

> <Gold.PLP.Fitness>
36.4903

> <Gold.PLP.PLP>
-33.8809

> <Gold.PLP.part.hbond>
-1.5741

> <Gold.PLP.part.metal>
0.0000

> <Gold.PLP.part.buried>
-3.2038

> <Gold.PLP.part.nonpolar>
-29.9305

> <Gold.PLP.part.repulsive>
0.0000

> <Gold.PLP.ligand.clash>
0.0000

> <Gold.PLP.ligand.torsion>
0.1841

> <Gold.PLP.Chemscore.Hbond>
0.9920

> <Gold.PLP.Chemscore.CHOScore>
0.0000

> <Gold.PLP.Chemscore.Metal>
0.0000

> <Gold.Chemscore.Hbonds>
donor molecule, donor type, donor heavy atom, donor atom, acceptor molecule, acceptor atom, score
      L1  H    10    26       P1  2398  0.99

> <Gold.PLP.Chemscore.Internal.Correction>
0.0015

