#       Name:                amine_i002
#       Creating user name   fsindt
#       Creation time:       Fri Aug 11 18:08:03 2023


#       File generated by GOLD software.
#

@<TRIPOS>MOLECULE
amine_i002|amine|mol2|2|dock4
    26    26     1
SMALL
NO_CHARGES


@<TRIPOS>ATOM
      1 C1           0.3574 -20.0251  11.7179 C.3            1 <1>                0.0000
      2 C2          -0.2121 -18.6161  11.8949 C.3            1 <1>                0.0000
      3 N3           0.8908 -17.6573  12.0437 N.4            1 <1>                0.0000
      4 H4           1.3823 -17.5653  11.1673 H              1 <1>                0.0000
      5 C5           1.8227 -18.1294  13.0898 C.3            1 <1>                0.0000
      6 C6           2.3012 -16.8408  13.8042 C.3            1 <1>                0.0000
      7 C7           1.0093 -15.9818  13.7994 C.3            1 <1>                0.0000
      8 C8           0.3560 -16.3455  12.4527 C.3            1 <1>                0.0000
      9 C9           0.7106 -15.2925  11.4009 C.3            1 <1>                0.0000
     10 N10          2.1607 -15.3036  11.1665 N.3            1 <1>                0.0000
     11 H11          0.9864 -20.0536  10.8282 H              1 <1>                0.0000
     12 H12          0.9527 -20.2887  12.5922 H              1 <1>                0.0000
     13 H13         -0.4609 -20.7366  11.6075 H              1 <1>                0.0000
     14 H14         -0.8073 -18.3525  11.0206 H              1 <1>                0.0000
     15 H15         -0.8411 -18.5875  12.7847 H              1 <1>                0.0000
     16 H16          1.3054 -18.7829  13.7921 H              1 <1>                0.0000
     17 H17          2.6679 -18.6492  12.6384 H              1 <1>                0.0000
     18 H18          2.6232 -17.0559  14.8231 H              1 <1>                0.0000
     19 H19          3.0962 -16.3537  13.2397 H              1 <1>                0.0000
     20 H20          0.3593 -16.2588  14.6292 H              1 <1>                0.0000
     21 H21          1.2526 -14.9200  13.8368 H              1 <1>                0.0000
     22 H22         -0.7260 -16.4059  12.5699 H              1 <1>                0.0000
     23 H23          0.1904 -15.5189  10.4703 H              1 <1>                0.0000
     24 H24          0.4076 -14.3076  11.7564 H              1 <1>                0.0000
     25 H25          2.4191 -16.0462  10.5341 H              1 <1>                0.0000
     26 H26          2.4784 -14.4095  10.8234 H              1 <1>                0.0000
@<TRIPOS>BOND
    1    1    2 1     
    2    1   11 1     
    3    1   12 1     
    4    1   13 1     
    5    2    3 1     
    6    2   14 1     
    7    2   15 1     
    8    3    4 1     
    9    3    8 1     
   10    3    5 1     
   11    5    6 1     
   12    5   16 1     
   13    5   17 1     
   14    6    7 1     
   15    6   18 1     
   16    6   19 1     
   17    7    8 1     
   18    7   20 1     
   19    7   21 1     
   20    8    9 1     
   21    8   22 1     
   22    9   10 1     
   23    9   23 1     
   24    9   24 1     
   25   10   25 1     
   26   10   26 1     
@<TRIPOS>SUBSTRUCTURE
      1 ****           1
@<TRIPOS>SET
DONOR_HYDROGENS      STATIC     ATOMS    <user>   **** ""
3 4 25 26
ATOM$RED        STATIC     ATOMS    COLORGROUP SYSTEM
3 4 25 26
@<TRIPOS>COMMENT
> <Gold.Version>
2022.2.0

> <Gold.Id.Protein>
3pbl|protein|mol2

> <Gold.Protein.RotatedTorsions>
[ 1303 1298 1297 1294 ] final  -80.82 input  179.99 | X-H torsion
[ 2461 2456 2455 2452 ] final   70.41 input   30.03 | X-H torsion
[ 2515 2510 2509 2506 ] final  -19.21 input  -89.99 | X-H torsion
[ 3721 3712 3711 3710 ] final -146.58 input -179.91 | X-H torsion
[ 3841 3832 3831 3830 ] final   34.35 input -179.91 | X-H torsion
[ 3767 3762 3761 3758 ] final    5.50 input  -89.99 | X-H torsion
[ 2472 2467 2466 2463 ] final   81.90 input  -89.97 | X-H torsion

> <Gold.Protein.ActiveResidues>
 VAL82   VAL86   LEU89   PHE106  VAL107  ASP110  VAL111  MET112  CYS114  THR115 
 CYS181  SER182  ILE183  PHE188  VAL189  ILE190  SER192  SER193  SER196  TRP342 
 PHE345  PHE346  HIS349  VAL350  TYR365  THR369  GLY372  TYR373 

> <Gold.Protein.RotatedAtoms>
    3.7131   -8.7159    3.8257 H   0  0  0  0  0  0  0  0  0  0  0  0  # atno 1303 bound_to 1298
    2.0179   -8.1092    7.4925 H   0  0  0  0  0  0  0  0  0  0  0  0  # atno 2461 bound_to 2456
   -4.9867   -4.8853    7.7360 H   0  0  0  0  0  0  0  0  0  0  0  0  # atno 2472 bound_to 2467
    2.6628   -7.8655    4.4399 H   0  0  0  0  0  0  0  0  0  0  0  0  # atno 2515 bound_to 2510
   -3.3192  -16.5357   14.0396 H   0  0  0  0  0  0  0  0  0  0  0  0  # atno 3721 bound_to 3712
   -5.2708  -22.7838   10.1165 H   0  0  0  0  0  0  0  0  0  0  0  0  # atno 3767 bound_to 3762
    2.1225  -20.8172    9.6155 H   0  0  0  0  0  0  0  0  0  0  0  0  # atno 3841 bound_to 3832
    4.9120   -9.1731    4.8356 LP  0  0  0  0  0  0  0  0  0  0  0  0  # atno 4297 bound_to 1298
    3.7373  -10.2325    4.4304 LP  0  0  0  0  0  0  0  0  0  0  0  0  # atno 4298 bound_to 1298
    0.4338   -8.4368    7.2668 LP  0  0  0  0  0  0  0  0  0  0  0  0  # atno 4299 bound_to 2456
    1.2863   -9.2620    8.3888 LP  0  0  0  0  0  0  0  0  0  0  0  0  # atno 4300 bound_to 2456
    2.6039   -9.2578    5.2907 LP  0  0  0  0  0  0  0  0  0  0  0  0  # atno 4301 bound_to 2510
    2.0299   -7.8761    5.9450 LP  0  0  0  0  0  0  0  0  0  0  0  0  # atno 4302 bound_to 2510
   -2.9698  -17.7295   13.0245 LP  0  0  0  0  0  0  0  0  0  0  0  0  # atno 4306 bound_to 3712
   -2.7259  -17.9060   14.6295 LP  0  0  0  0  0  0  0  0  0  0  0  0  # atno 4307 bound_to 3712
    1.6783  -19.6866    8.5666 LP  0  0  0  0  0  0  0  0  0  0  0  0  # atno 4314 bound_to 3832
    3.0992  -20.4716    8.3897 LP  0  0  0  0  0  0  0  0  0  0  0  0  # atno 4315 bound_to 3832
   -4.9241  -21.9459   11.4746 LP  0  0  0  0  0  0  0  0  0  0  0  0  # atno 4318 bound_to 3762
   -3.9326  -23.1454   10.9798 LP  0  0  0  0  0  0  0  0  0  0  0  0  # atno 4319 bound_to 3762
   -3.6366   -5.0608    8.6376 LP  0  0  0  0  0  0  0  0  0  0  0  0  # atno 4320 bound_to 2467
   -5.0937   -5.4474    9.2654 LP  0  0  0  0  0  0  0  0  0  0  0  0  # atno 4321 bound_to 2467

> <Gold.Score>
     Score     S(PLP)   S(hbond)     S(cho)   S(metal)  DE(clash)   DE(tors)     intcor
     35.27     -26.38       3.00       0.00       0.00       0.00       0.06       0.00

> <Gold.PLP.Fitness>
35.2655

> <Gold.PLP.PLP>
-26.3817

> <Gold.PLP.part.hbond>
-2.0000

> <Gold.PLP.part.metal>
0.0000

> <Gold.PLP.part.buried>
-3.0898

> <Gold.PLP.part.nonpolar>
-21.3405

> <Gold.PLP.part.repulsive>
0.0000

> <Gold.PLP.ligand.clash>
0.0000

> <Gold.PLP.ligand.torsion>
0.0589

> <Gold.PLP.Chemscore.Hbond>
3.0000

> <Gold.PLP.Chemscore.CHOScore>
0.0000

> <Gold.PLP.Chemscore.Metal>
0.0000

> <Gold.Chemscore.Hbonds>
donor molecule, donor type, donor heavy atom, donor atom, acceptor molecule, acceptor atom, score
      L1  H     3     4       P1  1227  2.00
      L1  H    10    25       P1  1227  1.00

> <Gold.PLP.Chemscore.Internal.Correction>
0.0015

