#       Name:                amine_i002
#       Creating user name   fsindt
#       Creation time:       Fri Aug 11 18:08:01 2023


#       File generated by GOLD software.
#

@<TRIPOS>MOLECULE
amine_i002|amine|mol2|2|dock1
    26    26     1
SMALL
NO_CHARGES


@<TRIPOS>ATOM
      1 C1          -0.7008 -18.3258   9.9788 C.3            1 <1>                0.0000
      2 C2          -0.3889 -18.3001  11.4765 C.3            1 <1>                0.0000
      3 N3           0.7013 -17.3497  11.7334 N.4            1 <1>                0.0000
      4 H4           1.2973 -17.2880  10.9216 H              1 <1>                0.0000
      5 C5           1.4917 -17.8021  12.8979 C.3            1 <1>                0.0000
      6 C6           1.8979 -16.4991  13.6307 C.3            1 <1>                0.0000
      7 C7           0.6288 -15.6264  13.4447 C.3            1 <1>                0.0000
      8 C8           0.1396 -16.0210  12.0385 C.3            1 <1>                0.0000
      9 C9           0.6350 -15.0023  11.0101 C.3            1 <1>                0.0000
     10 N10          2.0917 -15.1230  10.8639 N.3            1 <1>                0.0000
     11 H11         -1.0024 -17.3302   9.6534 H              1 <1>                0.0000
     12 H12          0.1877 -18.6343   9.4279 H              1 <1>                0.0000
     13 H13         -1.5097 -19.0310   9.7882 H              1 <1>                0.0000
     14 H14         -1.2774 -17.9915  12.0273 H              1 <1>                0.0000
     15 H15         -0.0871 -19.2957  11.8020 H              1 <1>                0.0000
     16 H16          0.8832 -18.4296  13.5490 H              1 <1>                0.0000
     17 H17          2.3781 -18.3437  12.5676 H              1 <1>                0.0000
     18 H18          2.0901 -16.6887  14.6867 H              1 <1>                0.0000
     19 H19          2.7628 -16.0370  13.1549 H              1 <1>                0.0000
     20 H20         -0.1216 -15.8725  14.1959 H              1 <1>                0.0000
     21 H21          0.8810 -14.5666  13.4830 H              1 <1>                0.0000
     22 H22         -0.9494 -16.0661  12.0240 H              1 <1>                0.0000
     23 H23          0.1564 -15.1933  10.0497 H              1 <1>                0.0000
     24 H24          0.3858 -13.9959  11.3465 H              1 <1>                0.0000
     25 H25          2.5502 -15.0773  11.7616 H              1 <1>                0.0000
     26 H26          2.3371 -15.9709  10.3752 H              1 <1>                0.0000
@<TRIPOS>BOND
    1    1    2 1     
    2    1   11 1     
    3    1   12 1     
    4    1   13 1     
    5    2    3 1     
    6    2   14 1     
    7    2   15 1     
    8    3    4 1     
    9    3    8 1     
   10    3    5 1     
   11    5    6 1     
   12    5   16 1     
   13    5   17 1     
   14    6    7 1     
   15    6   18 1     
   16    6   19 1     
   17    7    8 1     
   18    7   20 1     
   19    7   21 1     
   20    8    9 1     
   21    8   22 1     
   22    9   10 1     
   23    9   23 1     
   24    9   24 1     
   25   10   25 1     
   26   10   26 1     
@<TRIPOS>SUBSTRUCTURE
      1 ****           1
@<TRIPOS>SET
DONOR_HYDROGENS      STATIC     ATOMS    <user>   **** ""
3 4 25 26
ATOM$RED        STATIC     ATOMS    COLORGROUP SYSTEM
3 4 25 26
@<TRIPOS>COMMENT
> <Gold.Version>
2022.2.0

> <Gold.Id.Protein>
3pbl|protein|mol2

> <Gold.Protein.RotatedTorsions>
[ 1303 1298 1297 1294 ] final -135.68 input  179.99 | X-H torsion
[ 2461 2456 2455 2452 ] final   23.99 input   30.03 | X-H torsion
[ 2515 2510 2509 2506 ] final  -60.09 input  -89.99 | X-H torsion
[ 3721 3712 3711 3710 ] final  -10.12 input -179.91 | X-H torsion
[ 3841 3832 3831 3830 ] final    3.27 input -179.91 | X-H torsion
[ 3767 3762 3761 3758 ] final   94.83 input  -89.99 | X-H torsion
[ 2472 2467 2466 2463 ] final  145.78 input  -89.97 | X-H torsion

> <Gold.Protein.ActiveResidues>
 VAL82   VAL86   LEU89   PHE106  VAL107  ASP110  VAL111  MET112  CYS114  THR115 
 CYS181  SER182  ILE183  PHE188  VAL189  ILE190  SER192  SER193  SER196  TRP342 
 PHE345  PHE346  HIS349  VAL350  TYR365  THR369  GLY372  TYR373 

> <Gold.Protein.RotatedAtoms>
    4.4404   -8.4950    4.2454 H   0  0  0  0  0  0  0  0  0  0  0  0  # atno 1303 bound_to 1298
    1.4214   -7.9172    7.0926 H   0  0  0  0  0  0  0  0  0  0  0  0  # atno 2461 bound_to 2456
   -5.5101   -5.2236    8.5150 H   0  0  0  0  0  0  0  0  0  0  0  0  # atno 2472 bound_to 2467
    2.8234   -8.5014    4.3843 H   0  0  0  0  0  0  0  0  0  0  0  0  # atno 2515 bound_to 2510
   -2.5146  -17.8877   14.3758 H   0  0  0  0  0  0  0  0  0  0  0  0  # atno 3721 bound_to 3712
   -4.1430  -23.3192   10.5623 H   0  0  0  0  0  0  0  0  0  0  0  0  # atno 3767 bound_to 3762
    1.7660  -20.5237    9.5735 H   0  0  0  0  0  0  0  0  0  0  0  0  # atno 3841 bound_to 3832
    4.5875   -9.9743    4.9211 LP  0  0  0  0  0  0  0  0  0  0  0  0  # atno 4297 bound_to 1298
    3.3341   -9.6524    3.9251 LP  0  0  0  0  0  0  0  0  0  0  0  0  # atno 4298 bound_to 1298
    0.3802   -8.9704    7.7811 LP  0  0  0  0  0  0  0  0  0  0  0  0  # atno 4299 bound_to 2456
    1.9362   -8.9203    8.2742 LP  0  0  0  0  0  0  0  0  0  0  0  0  # atno 4300 bound_to 2456
    2.3229   -9.0363    5.8435 LP  0  0  0  0  0  0  0  0  0  0  0  0  # atno 4301 bound_to 2510
    2.1503   -7.4614    5.4478 LP  0  0  0  0  0  0  0  0  0  0  0  0  # atno 4302 bound_to 2510
   -3.4932  -16.6166   14.3089 LP  0  0  0  0  0  0  0  0  0  0  0  0  # atno 4306 bound_to 3712
   -3.1313  -17.4581   12.9570 LP  0  0  0  0  0  0  0  0  0  0  0  0  # atno 4307 bound_to 3712
    2.0956  -19.6453    8.2712 LP  0  0  0  0  0  0  0  0  0  0  0  0  # atno 4314 bound_to 3832
    3.0938  -20.8521    8.7336 LP  0  0  0  0  0  0  0  0  0  0  0  0  # atno 4315 bound_to 3832
   -5.4845  -22.4088   10.3663 LP  0  0  0  0  0  0  0  0  0  0  0  0  # atno 4318 bound_to 3762
   -4.4997  -22.1474   11.6424 LP  0  0  0  0  0  0  0  0  0  0  0  0  # atno 4319 bound_to 3762
   -4.1051   -4.8083    7.7939 LP  0  0  0  0  0  0  0  0  0  0  0  0  # atno 4320 bound_to 2467
   -4.1019   -5.3617    9.3302 LP  0  0  0  0  0  0  0  0  0  0  0  0  # atno 4321 bound_to 2467

> <Gold.Score>
     Score     S(PLP)   S(hbond)     S(cho)   S(metal)  DE(clash)   DE(tors)     intcor
     36.06     -27.97       3.00       0.00       0.00       0.00       0.45       0.00

> <Gold.PLP.Fitness>
36.0637

> <Gold.PLP.PLP>
-27.9667

> <Gold.PLP.part.hbond>
-2.0000

> <Gold.PLP.part.metal>
0.0000

> <Gold.PLP.part.buried>
-3.3079

> <Gold.PLP.part.nonpolar>
-22.9186

> <Gold.PLP.part.repulsive>
0.0000

> <Gold.PLP.ligand.clash>
0.0000

> <Gold.PLP.ligand.torsion>
0.4523

> <Gold.PLP.Chemscore.Hbond>
3.0000

> <Gold.PLP.Chemscore.CHOScore>
0.0000

> <Gold.PLP.Chemscore.Metal>
0.0000

> <Gold.Chemscore.Hbonds>
donor molecule, donor type, donor heavy atom, donor atom, acceptor molecule, acceptor atom, score
      L1  H     3     4       P1  1227  2.00
      L1  H    10    26       P1  1227  1.00

> <Gold.PLP.Chemscore.Internal.Correction>
0.0015

