#       Name:                amine_i002
#       Creating user name   fsindt
#       Creation time:       Fri Aug 11 18:08:02 2023


#       File generated by GOLD software.
#

@<TRIPOS>MOLECULE
amine_i002|amine|mol2|2|dock3
    26    26     1
SMALL
NO_CHARGES


@<TRIPOS>ATOM
      1 C1           2.2799 -17.2805  14.6351 C.3            1 <1>                0.0000
      2 C2           2.6407 -17.6816  13.2034 C.3            1 <1>                0.0000
      3 N3           1.6865 -17.0705  12.2685 N.4            1 <1>                0.0000
      4 H4           1.8575 -17.4134  11.3351 H              1 <1>                0.0000
      5 C5           1.8372 -15.6001  12.2939 C.3            1 <1>                0.0000
      6 C6           0.3988 -15.0518  12.1207 C.3            1 <1>                0.0000
      7 C7          -0.4285 -16.0791  12.9375 C.3            1 <1>                0.0000
      8 C8           0.3095 -17.4055  12.6755 C.3            1 <1>                0.0000
      9 C9          -0.3879 -18.1762  11.5527 C.3            1 <1>                0.0000
     10 N10         -0.2325 -17.4458  10.2877 N.3            1 <1>                0.0000
     11 H11          2.3222 -16.1955  14.7301 H              1 <1>                0.0000
     12 H12          1.2725 -17.6265  14.8663 H              1 <1>                0.0000
     13 H13          2.9880 -17.7339  15.3288 H              1 <1>                0.0000
     14 H14          3.6482 -17.3355  12.9721 H              1 <1>                0.0000
     15 H15          2.5984 -18.7666  13.1082 H              1 <1>                0.0000
     16 H16          2.2539 -15.2777  13.2481 H              1 <1>                0.0000
     17 H17          2.4710 -15.2694  11.4710 H              1 <1>                0.0000
     18 H18          0.3083 -14.0519  12.5450 H              1 <1>                0.0000
     19 H19          0.1025 -15.0574  11.0718 H              1 <1>                0.0000
     20 H20         -0.4099 -15.8320  13.9989 H              1 <1>                0.0000
     21 H21         -1.4535 -16.1278  12.5699 H              1 <1>                0.0000
     22 H22          0.3269 -18.0059  13.5850 H              1 <1>                0.0000
     23 H23          0.0598 -19.1654  11.4585 H              1 <1>                0.0000
     24 H24         -1.4479 -18.2777  11.7858 H              1 <1>                0.0000
     25 H25         -0.8320 -16.6347  10.2624 H              1 <1>                0.0000
     26 H26          0.7310 -17.1882  10.1349 H              1 <1>                0.0000
@<TRIPOS>BOND
    1    1    2 1     
    2    1   11 1     
    3    1   12 1     
    4    1   13 1     
    5    2    3 1     
    6    2   14 1     
    7    2   15 1     
    8    3    4 1     
    9    3    8 1     
   10    3    5 1     
   11    5    6 1     
   12    5   16 1     
   13    5   17 1     
   14    6    7 1     
   15    6   18 1     
   16    6   19 1     
   17    7    8 1     
   18    7   20 1     
   19    7   21 1     
   20    8    9 1     
   21    8   22 1     
   22    9   10 1     
   23    9   23 1     
   24    9   24 1     
   25   10   25 1     
   26   10   26 1     
@<TRIPOS>SUBSTRUCTURE
      1 ****           1
@<TRIPOS>SET
DONOR_HYDROGENS      STATIC     ATOMS    <user>   **** ""
3 4 25 26
ATOM$RED        STATIC     ATOMS    COLORGROUP SYSTEM
3 4 25 26
@<TRIPOS>COMMENT
> <Gold.Version>
2022.2.0

> <Gold.Id.Protein>
3pbl|protein|mol2

> <Gold.Protein.RotatedTorsions>
[ 1303 1298 1297 1294 ] final -110.80 input  179.99 | X-H torsion
[ 2461 2456 2455 2452 ] final  -71.00 input   30.03 | X-H torsion
[ 2515 2510 2509 2506 ] final  -47.92 input  -89.99 | X-H torsion
[ 3721 3712 3711 3710 ] final   59.27 input -179.91 | X-H torsion
[ 3841 3832 3831 3830 ] final -111.35 input -179.91 | X-H torsion
[ 3767 3762 3761 3758 ] final   13.49 input  -89.99 | X-H torsion
[ 2472 2467 2466 2463 ] final -115.20 input  -89.97 | X-H torsion

> <Gold.Protein.ActiveResidues>
 VAL82   VAL86   LEU89   PHE106  VAL107  ASP110  VAL111  MET112  CYS114  THR115 
 CYS181  SER182  ILE183  PHE188  VAL189  ILE190  SER192  SER193  SER196  TRP342 
 PHE345  PHE346  HIS349  VAL350  TYR365  THR369  GLY372  TYR373 

> <Gold.Protein.RotatedAtoms>
    4.1063   -8.4984    4.0146 H   0  0  0  0  0  0  0  0  0  0  0  0  # atno 1303 bound_to 1298
    0.3355   -8.6911    7.4866 H   0  0  0  0  0  0  0  0  0  0  0  0  # atno 2461 bound_to 2456
   -4.4234   -5.4328    9.4272 H   0  0  0  0  0  0  0  0  0  0  0  0  # atno 2472 bound_to 2467
    2.7936   -8.3060    4.3551 H   0  0  0  0  0  0  0  0  0  0  0  0  # atno 2515 bound_to 2510
   -2.5874  -17.9131   13.3929 H   0  0  0  0  0  0  0  0  0  0  0  0  # atno 3721 bound_to 3712
   -5.1859  -22.8785   10.0839 H   0  0  0  0  0  0  0  0  0  0  0  0  # atno 3767 bound_to 3762
    2.1084  -19.5805    8.5170 H   0  0  0  0  0  0  0  0  0  0  0  0  # atno 3841 bound_to 3832
    4.8131   -9.6374    4.9471 LP  0  0  0  0  0  0  0  0  0  0  0  0  # atno 4297 bound_to 1298
    3.4428   -9.9859    4.1301 LP  0  0  0  0  0  0  0  0  0  0  0  0  # atno 4298 bound_to 1298
    1.6172   -9.1476    8.3899 LP  0  0  0  0  0  0  0  0  0  0  0  0  # atno 4299 bound_to 2456
    1.7848   -7.9695    7.2716 LP  0  0  0  0  0  0  0  0  0  0  0  0  # atno 4300 bound_to 2456
    2.4073   -9.1471    5.7001 LP  0  0  0  0  0  0  0  0  0  0  0  0  # atno 4301 bound_to 2510
    2.0957   -7.5461    5.6205 LP  0  0  0  0  0  0  0  0  0  0  0  0  # atno 4302 bound_to 2510
   -2.9901  -17.4088   14.8630 LP  0  0  0  0  0  0  0  0  0  0  0  0  # atno 4306 bound_to 3712
   -3.5504  -16.6366   13.5378 LP  0  0  0  0  0  0  0  0  0  0  0  0  # atno 4307 bound_to 3712
    3.1033  -20.8259    8.7043 LP  0  0  0  0  0  0  0  0  0  0  0  0  # atno 4314 bound_to 3832
    1.6906  -20.7610    9.5209 LP  0  0  0  0  0  0  0  0  0  0  0  0  # atno 4315 bound_to 3832
   -5.0294  -21.9235   11.3994 LP  0  0  0  0  0  0  0  0  0  0  0  0  # atno 4318 bound_to 3762
   -3.9123  -23.0731   11.0875 LP  0  0  0  0  0  0  0  0  0  0  0  0  # atno 4319 bound_to 3762
   -5.4486   -5.1024    8.1999 LP  0  0  0  0  0  0  0  0  0  0  0  0  # atno 4320 bound_to 2467
   -3.8449   -4.8584    8.0123 LP  0  0  0  0  0  0  0  0  0  0  0  0  # atno 4321 bound_to 2467

> <Gold.Score>
     Score     S(PLP)   S(hbond)     S(cho)   S(metal)  DE(clash)   DE(tors)     intcor
     34.92     -26.02       3.00       0.00       0.00       0.00       0.05       0.00

> <Gold.PLP.Fitness>
34.9176

> <Gold.PLP.PLP>
-26.0246

> <Gold.PLP.part.hbond>
-2.0000

> <Gold.PLP.part.metal>
0.0000

> <Gold.PLP.part.buried>
-3.3799

> <Gold.PLP.part.nonpolar>
-21.4341

> <Gold.PLP.part.repulsive>
0.0000

> <Gold.PLP.ligand.clash>
0.0000

> <Gold.PLP.ligand.torsion>
0.0542

> <Gold.PLP.Chemscore.Hbond>
3.0000

> <Gold.PLP.Chemscore.CHOScore>
0.0000

> <Gold.PLP.Chemscore.Metal>
0.0000

> <Gold.Chemscore.Hbonds>
donor molecule, donor type, donor heavy atom, donor atom, acceptor molecule, acceptor atom, score
      L1  H     3     4       P1  1227  2.00
      L1  H    10    26       P1  1227  1.00

> <Gold.PLP.Chemscore.Internal.Correction>
0.0015

