#       Name:                plp ligand
#       Creating user name   fsindt
#       Creation time:       Fri Aug 11 18:08:00 2023


#       File generated by GOLD software.
#

@<TRIPOS>MOLECULE
plp ligand
    26    26     1
SMALL
NO_CHARGES


@<TRIPOS>ATOM
      1 C1           2.7382   0.7605   0.1491 NONPOLAR       1 <1>                0.0000
      2 C2           1.4500   0.6373  -0.6671 NONPOLAR       1 <1>                0.0000
      3 N3           0.3941   0.0521   0.1699 DONOR          1 <1>                0.0000
      4 H4           0.2934   0.5911   1.0169                1 <1>                0.0000
      5 C5           0.7432  -1.3443   0.5072 NONPOLAR       1 <1>                0.0000
      6 C6          -0.6084  -2.1012   0.5066 NONPOLAR       1 <1>                0.0000
      7 C7          -1.3513  -1.4149  -0.6698 NONPOLAR       1 <1>                0.0000
      8 C8          -0.8810   0.0485  -0.5704 NONPOLAR       1 <1>                0.0000
      9 C9          -1.9198   0.8788   0.1862 NONPOLAR       1 <1>                0.0000
     10 N10         -1.3954   2.2325   0.4107 DONACC         1 <1>                0.0000
     11 H11          2.5614   1.4020   1.0124                1 <1>                0.0000
     12 H12          3.0492  -0.2276   0.4884                1 <1>                0.0000
     13 H13          3.5217   1.1947  -0.4719                1 <1>                0.0000
     14 H14          1.1390   1.6254  -1.0063                1 <1>                0.0000
     15 H15          1.6267  -0.0043  -1.5304                1 <1>                0.0000
     16 H16          1.4118  -1.7609  -0.2461                1 <1>                0.0000
     17 H17          1.2046  -1.3924   1.4936                1 <1>                0.0000
     18 H18         -0.4612  -3.1630   0.3091                1 <1>                0.0000
     19 H19         -1.1407  -1.9505   1.4457                1 <1>                0.0000
     20 H20         -1.0509  -1.8513  -1.6223                1 <1>                0.0000
     21 H21         -2.4309  -1.4839  -0.5364                1 <1>                0.0000
     22 H22         -0.7315   0.4585  -1.5692                1 <1>                0.0000
     23 H23         -2.8362   0.9369  -0.4010                1 <1>                0.0000
     24 H24         -2.1324   0.4077   1.1459                1 <1>                0.0000
     25 H25         -1.1300   2.6666  -0.4606                1 <1>                0.0000
     26 H26         -2.0635   2.8010   0.9092                1 <1>                0.0000
@<TRIPOS>BOND
    1    1    2 1     
    2    1   11 1     
    3    1   12 1     
    4    1   13 1     
    5    2    3 1     
    6    2   14 1     
    7    2   15 1     
    8    3    4 1     
    9    3    8 1     
   10    3    5 1     
   11    5    6 1     
   12    5   16 1     
   13    5   17 1     
   14    6    7 1     
   15    6   18 1     
   16    6   19 1     
   17    7    8 1     
   18    7   20 1     
   19    7   21 1     
   20    8    9 1     
   21    8   22 1     
   22    9   10 1     
   23    9   23 1     
   24    9   24 1     
   25   10   25 1     
   26   10   26 1     
@<TRIPOS>SUBSTRUCTURE
      1 ****           1
@<TRIPOS>SET
DONOR_HYDROGENS      STATIC     ATOMS    <user>   **** ""
3 4 25 26
ATOM$RED        STATIC     ATOMS    COLORGROUP SYSTEM
3 4 25 26
