#       Name:                EN300-6479274_i001
#       Creating user name   fsindt
#       Creation time:       Tue Feb 28 22:49:36 2023


#       File generated by GOLD software.
#

@<TRIPOS>MOLECULE
EN300-6479274_i001|amine_1|mol2|6657|dock19
    18    18     1
SMALL
USER_CHARGES


@<TRIPOS>ATOM
      1 N1           0.4234 -10.7684   7.2002 N.4            1 <1>                1.0000
      2 C2           1.3713 -11.7631   6.6807 C.3            1 <1>                0.0000
      3 C3           0.9728 -13.1351   7.1601 C.ar           1 <1>                0.0000
      4 C4          -0.1285 -13.7584   6.6042 C.ar           1 <1>                0.0000
      5 C5          -0.4884 -15.0201   7.0498 C.ar           1 <1>                0.0000
      6 C6           0.2794 -15.6132   8.0467 C.ar           1 <1>                0.0000
      7 O7          -0.0349 -16.8497   8.5151 O.3            1 <1>                0.0000
      8 C8           1.3711 -14.9244   8.5556 C.ar           1 <1>                0.0000
      9 N9           1.6829 -13.7272   8.1005 N.ar           1 <1>                0.0000
     10 H10          1.3598 -11.7414   5.5909 H              1 <1>                0.0000
     11 H11          2.3744 -11.5305   7.0381 H              1 <1>                0.0000
     12 H12         -0.7019 -13.2675   5.8318 H              1 <1>                0.0000
     13 H13         -1.3444 -15.5305   6.6337 H              1 <1>                0.0000
     14 H14          1.9741 -15.3755   9.3297 H              1 <1>                0.0000
     15 H15          0.1662 -11.0105   8.1454 H              1 <1>                0.0000
     16 H16          0.8549  -9.8564   7.1923 H              1 <1>                0.0000
     17 H17         -0.4020 -10.7551   6.6200 H              1 <1>                0.0000
     18 H18          0.7038 -17.3102   8.9360 H              1 <1>                0.0000
@<TRIPOS>BOND
    1    1    2 1     
    2    1   15 1     
    3    1   16 1     
    4    1   17 1     
    5    2    3 1     
    6    2   10 1     
    7    2   11 1     
    8    3    4 ar    
    9    3    9 ar    
   10    4    5 ar    
   11    4   12 1     
   12    5    6 ar    
   13    5   13 1     
   14    6    7 1     
   15    6    8 ar    
   16    7   18 1     
   17    8    9 ar    
   18    8   14 1     
@<TRIPOS>SUBSTRUCTURE
      1 ****           1
@<TRIPOS>SET
DONOR_HYDROGENS      STATIC     ATOMS    <user>   **** ""
4 15 16 17 18
ATOM$RED        STATIC     ATOMS    COLORGROUP SYSTEM
4 15 16 17 18
@<TRIPOS>COMMENT
> <Gold.Version>
2022.2.0

> <Gold.Id.Protein>
3pbl|protein|mol2

> <Gold.Protein.RotatedTorsions>
[ 1303 1298 1297 1294 ] final -175.62 input  179.99 | X-H torsion
[ 2461 2456 2455 2452 ] final   83.13 input   30.03 | X-H torsion
[ 2515 2510 2509 2506 ] final   20.48 input  -89.99 | X-H torsion
[ 3721 3712 3711 3710 ] final -121.51 input -179.91 | X-H torsion
[ 3841 3832 3831 3830 ] final -176.36 input -179.91 | X-H torsion
[ 3767 3762 3761 3758 ] final   14.01 input  -89.99 | X-H torsion
[ 2472 2467 2466 2463 ] final -176.37 input  -89.97 | X-H torsion

> <Gold.Protein.ActiveResidues>
 VAL82   VAL86   LEU89   PHE106  VAL107  ASP110  VAL111  MET112  CYS114  THR115 
 CYS181  SER182  ILE183  PHE188  VAL189  ILE190  SER192  SER193  SER196  TRP342 
 PHE345  PHE346  HIS349  VAL350  TYR365  THR369  GLY372  TYR373 

> <Gold.Protein.RotatedAtoms>
    4.8303   -8.8193    4.6422 H   0  0  0  0  0  0  0  0  0  0  0  0  # atno 1303 bound_to 1298
    2.1073   -8.2262    7.6407 H   0  0  0  0  0  0  0  0  0  0  0  0  # atno 2461 bound_to 2456
   -5.3116   -5.4003    9.0659 H   0  0  0  0  0  0  0  0  0  0  0  0  # atno 2472 bound_to 2467
    2.3981   -7.4639    4.8622 H   0  0  0  0  0  0  0  0  0  0  0  0  # atno 2515 bound_to 2510
   -3.2253  -16.6457   14.3867 H   0  0  0  0  0  0  0  0  0  0  0  0  # atno 3721 bound_to 3712
   -5.1800  -22.8845   10.0823 H   0  0  0  0  0  0  0  0  0  0  0  0  # atno 3767 bound_to 3762
    2.9251  -20.0090    8.3949 H   0  0  0  0  0  0  0  0  0  0  0  0  # atno 3841 bound_to 3832
    4.0684  -10.2632    4.6724 LP  0  0  0  0  0  0  0  0  0  0  0  0  # atno 4297 bound_to 1298
    3.4632   -9.0391    3.7768 LP  0  0  0  0  0  0  0  0  0  0  0  0  # atno 4298 bound_to 1298
    0.5467   -8.2943    7.1639 LP  0  0  0  0  0  0  0  0  0  0  0  0  # atno 4299 bound_to 2456
    1.0840   -9.2875    8.3435 LP  0  0  0  0  0  0  0  0  0  0  0  0  # atno 4300 bound_to 2456
    2.7977   -9.0407    4.7204 LP  0  0  0  0  0  0  0  0  0  0  0  0  # atno 4301 bound_to 2510
    2.1010   -8.4949    6.0928 LP  0  0  0  0  0  0  0  0  0  0  0  0  # atno 4302 bound_to 2510
   -3.1781  -17.3762   12.9577 LP  0  0  0  0  0  0  0  0  0  0  0  0  # atno 4306 bound_to 3712
   -2.6259  -18.1324   14.2956 LP  0  0  0  0  0  0  0  0  0  0  0  0  # atno 4307 bound_to 3712
    2.4278  -21.1478    9.4108 LP  0  0  0  0  0  0  0  0  0  0  0  0  # atno 4314 bound_to 3832
    1.4226  -19.9441    8.9554 LP  0  0  0  0  0  0  0  0  0  0  0  0  # atno 4315 bound_to 3832
   -5.0361  -21.9225   11.3941 LP  0  0  0  0  0  0  0  0  0  0  0  0  # atno 4318 bound_to 3762
   -3.9115  -23.0681   11.0944 LP  0  0  0  0  0  0  0  0  0  0  0  0  # atno 4319 bound_to 3762
   -4.7023   -4.8270    7.6635 LP  0  0  0  0  0  0  0  0  0  0  0  0  # atno 4320 bound_to 2467
   -3.7031   -5.1663    8.9098 LP  0  0  0  0  0  0  0  0  0  0  0  0  # atno 4321 bound_to 2467

> <Gold.Score>
     Score     S(PLP)   S(hbond)     S(cho)   S(metal)  DE(clash)   DE(tors)     intcor
     35.27     -26.62       1.99       1.00       0.00       0.00       0.16       0.00

> <Gold.PLP.Fitness>
35.2706

> <Gold.PLP.PLP>
-26.6196

> <Gold.PLP.part.hbond>
-2.0000

> <Gold.PLP.part.metal>
0.0000

> <Gold.PLP.part.buried>
-2.5150

> <Gold.PLP.part.nonpolar>
-23.4120

> <Gold.PLP.part.repulsive>
0.1427

> <Gold.PLP.ligand.clash>
0.0000

> <Gold.PLP.ligand.torsion>
0.1594

> <Gold.PLP.Chemscore.Hbond>
1.9913

> <Gold.PLP.Chemscore.CHOScore>
0.9987

> <Gold.PLP.Chemscore.Metal>
0.0000

> <Gold.Chemscore.Hbonds>
donor molecule, donor type, donor heavy atom, donor atom, acceptor molecule, acceptor atom, score
      L1  H     1    16       P1  2456  1.00
      L1  H     7    18       P1  1227  0.99
      L1  C     8    14       P1  1227  1.00

> <Gold.PLP.Chemscore.Internal.Correction>
0.0000

