#       Name:                EN300-6479274_i001
#       Creating user name   fsindt
#       Creation time:       Tue Feb 28 22:49:28 2023


#       File generated by GOLD software.
#

@<TRIPOS>MOLECULE
EN300-6479274_i001|amine_1|mol2|6657|dock7
    18    18     1
SMALL
USER_CHARGES


@<TRIPOS>ATOM
      1 N1           2.0348 -15.3033  11.1696 N.4            1 <1>                1.0000
      2 C2           0.8253 -15.2900  12.0032 C.3            1 <1>                0.0000
      3 C3           0.9393 -16.3472  13.0710 C.ar           1 <1>                0.0000
      4 C4           2.1883 -16.7198  13.5309 C.ar           1 <1>                0.0000
      5 C5           2.2852 -17.6923  14.5132 C.ar           1 <1>                0.0000
      6 C6           1.1119 -18.2589  15.0005 C.ar           1 <1>                0.0000
      7 O7           1.1573 -19.2160  15.9644 O.3            1 <1>                0.0000
      8 C8          -0.1052 -17.8326  14.4888 C.ar           1 <1>                0.0000
      9 N9          -0.1542 -16.9007  13.5578 N.ar           1 <1>                0.0000
     10 H10          0.7171 -14.3113  12.4709 H              1 <1>                0.0000
     11 H11         -0.0466 -15.4939  11.3817 H              1 <1>                0.0000
     12 H12          3.0783 -16.2584  13.1291 H              1 <1>                0.0000
     13 H13          3.2480 -18.0031  14.8910 H              1 <1>                0.0000
     14 H14         -1.0222 -18.2658  14.8601 H              1 <1>                0.0000
     15 H15          2.1128 -14.4265  10.6764 H              1 <1>                0.0000
     16 H16          2.8458 -15.4328  11.7557 H              1 <1>                0.0000
     17 H17          1.9763 -16.0595  10.5042 H              1 <1>                0.0000
     18 H18          1.7960 -19.0360  16.6677 H              1 <1>                0.0000
@<TRIPOS>BOND
    1    1    2 1     
    2    1   15 1     
    3    1   16 1     
    4    1   17 1     
    5    2    3 1     
    6    2   10 1     
    7    2   11 1     
    8    3    4 ar    
    9    3    9 ar    
   10    4    5 ar    
   11    4   12 1     
   12    5    6 ar    
   13    5   13 1     
   14    6    7 1     
   15    6    8 ar    
   16    7   18 1     
   17    8    9 ar    
   18    8   14 1     
@<TRIPOS>SUBSTRUCTURE
      1 ****           1
@<TRIPOS>SET
DONOR_HYDROGENS      STATIC     ATOMS    <user>   **** ""
4 15 16 17 18
ATOM$RED        STATIC     ATOMS    COLORGROUP SYSTEM
4 15 16 17 18
@<TRIPOS>COMMENT
> <Gold.Version>
2022.2.0

> <Gold.Id.Protein>
3pbl|protein|mol2

> <Gold.Protein.RotatedTorsions>
[ 1303 1298 1297 1294 ] final   83.75 input  179.99 | X-H torsion
[ 2461 2456 2455 2452 ] final -169.58 input   30.03 | X-H torsion
[ 2515 2510 2509 2506 ] final  -19.31 input  -89.99 | X-H torsion
[ 3721 3712 3711 3710 ] final  173.10 input -179.91 | X-H torsion
[ 3841 3832 3831 3830 ] final  -63.19 input -179.91 | X-H torsion
[ 3767 3762 3761 3758 ] final  -84.83 input  -89.99 | X-H torsion
[ 2472 2467 2466 2463 ] final  -45.62 input  -89.97 | X-H torsion

> <Gold.Protein.ActiveResidues>
 VAL82   VAL86   LEU89   PHE106  VAL107  ASP110  VAL111  MET112  CYS114  THR115 
 CYS181  SER182  ILE183  PHE188  VAL189  ILE190  SER192  SER193  SER196  TRP342 
 PHE345  PHE346  HIS349  VAL350  TYR365  THR369  GLY372  TYR373 

> <Gold.Protein.RotatedAtoms>
    4.3329  -10.1704    4.8209 H   0  0  0  0  0  0  0  0  0  0  0  0  # atno 1303 bound_to 1298
    1.2860   -9.2623    8.3889 H   0  0  0  0  0  0  0  0  0  0  0  0  # atno 2461 bound_to 2456
   -3.6526   -5.1047    8.7521 H   0  0  0  0  0  0  0  0  0  0  0  0  # atno 2472 bound_to 2467
    2.6633   -7.8668    4.4393 H   0  0  0  0  0  0  0  0  0  0  0  0  # atno 2515 bound_to 2510
   -3.3043  -16.6525   13.4542 H   0  0  0  0  0  0  0  0  0  0  0  0  # atno 3721 bound_to 3712
   -5.2781  -21.9311   11.1468 H   0  0  0  0  0  0  0  0  0  0  0  0  # atno 3767 bound_to 3762
    1.6300  -19.7839    8.9953 H   0  0  0  0  0  0  0  0  0  0  0  0  # atno 3841 bound_to 3832
    3.3545   -9.3344    3.8159 LP  0  0  0  0  0  0  0  0  0  0  0  0  # atno 4297 bound_to 1298
    4.6747   -8.6162    4.4546 LP  0  0  0  0  0  0  0  0  0  0  0  0  # atno 4298 bound_to 1298
    2.0178   -8.1095    7.4928 LP  0  0  0  0  0  0  0  0  0  0  0  0  # atno 4299 bound_to 2456
    0.4340   -8.4366    7.2666 LP  0  0  0  0  0  0  0  0  0  0  0  0  # atno 4300 bound_to 2456
    2.6033   -9.2578    5.2922 LP  0  0  0  0  0  0  0  0  0  0  0  0  # atno 4301 bound_to 2510
    2.0300   -7.8747    5.9442 LP  0  0  0  0  0  0  0  0  0  0  0  0  # atno 4302 bound_to 2510
   -2.6963  -18.1384   13.4646 LP  0  0  0  0  0  0  0  0  0  0  0  0  # atno 4306 bound_to 3712
   -3.0165  -17.3623   14.8653 LP  0  0  0  0  0  0  0  0  0  0  0  0  # atno 4307 bound_to 3712
    2.9765  -20.2142    8.2352 LP  0  0  0  0  0  0  0  0  0  0  0  0  # atno 4314 bound_to 3832
    2.3699  -21.1377    9.4376 LP  0  0  0  0  0  0  0  0  0  0  0  0  # atno 4315 bound_to 3832
   -3.9352  -22.8375   11.3517 LP  0  0  0  0  0  0  0  0  0  0  0  0  # atno 4318 bound_to 3762
   -4.9142  -23.1061   10.0726 LP  0  0  0  0  0  0  0  0  0  0  0  0  # atno 4319 bound_to 3762
   -5.1911   -5.4314    9.1912 LP  0  0  0  0  0  0  0  0  0  0  0  0  # atno 4320 bound_to 2467
   -4.8731   -4.8575    7.6958 LP  0  0  0  0  0  0  0  0  0  0  0  0  # atno 4321 bound_to 2467

> <Gold.Score>
     Score     S(PLP)   S(hbond)     S(cho)   S(metal)  DE(clash)   DE(tors)     intcor
     35.94     -25.20       3.00       0.83       0.00       0.00       0.37       0.00

> <Gold.PLP.Fitness>
35.9385

> <Gold.PLP.PLP>
-25.2021

> <Gold.PLP.part.hbond>
-2.4466

> <Gold.PLP.part.metal>
0.0000

> <Gold.PLP.part.buried>
-3.4471

> <Gold.PLP.part.nonpolar>
-19.3108

> <Gold.PLP.part.repulsive>
0.0457

> <Gold.PLP.ligand.clash>
0.0000

> <Gold.PLP.ligand.torsion>
0.3715

> <Gold.PLP.Chemscore.Hbond>
3.0000

> <Gold.PLP.Chemscore.CHOScore>
0.8265

> <Gold.PLP.Chemscore.Metal>
0.0000

> <Gold.Chemscore.Hbonds>
donor molecule, donor type, donor heavy atom, donor atom, acceptor molecule, acceptor atom, score
      L1  H     1    17       P1  1227  2.00
      L1  H     7    18       P1  2287  1.00
      L1  C     8    14       P1  3712  0.83

> <Gold.PLP.Chemscore.Internal.Correction>
0.0000

