#       Name:                EN300-6479274_i001
#       Creating user name   fsindt
#       Creation time:       Tue Feb 28 22:49:35 2023


#       File generated by GOLD software.
#

@<TRIPOS>MOLECULE
EN300-6479274_i001|amine_1|mol2|6657|dock18
    18    18     1
SMALL
USER_CHARGES


@<TRIPOS>ATOM
      1 N1           0.6515 -15.7258   8.6759 N.4            1 <1>                1.0000
      2 C2           1.1452 -14.3981   8.2866 C.3            1 <1>                0.0000
      3 C3           0.3375 -13.3363   8.9875 C.ar           1 <1>                0.0000
      4 C4          -0.2617 -13.6243  10.1992 C.ar           1 <1>                0.0000
      5 C5          -1.0024 -12.6427  10.8379 C.ar           1 <1>                0.0000
      6 C6          -1.1139 -11.3971  10.2287 C.ar           1 <1>                0.0000
      7 O7          -1.8297 -10.4033  10.8177 O.3            1 <1>                0.0000
      8 C8          -0.4833 -11.1839   9.0113 C.ar           1 <1>                0.0000
      9 N9           0.2165 -12.1431   8.4390 N.ar           1 <1>                0.0000
     10 H10          2.1936 -14.3030   8.5695 H              1 <1>                0.0000
     11 H11          1.0475 -14.2761   7.2079 H              1 <1>                0.0000
     12 H12         -0.1540 -14.6031  10.6429 H              1 <1>                0.0000
     13 H13         -1.4818 -12.8399  11.7854 H              1 <1>                0.0000
     14 H14         -0.5633 -10.2205   8.5296 H              1 <1>                0.0000
     15 H15          0.1706 -16.1477   7.8956 H              1 <1>                0.0000
     16 H16          1.4299 -16.3082   8.9460 H              1 <1>                0.0000
     17 H17          0.0148 -15.6333   9.4532 H              1 <1>                0.0000
     18 H18         -1.4757  -9.5173  10.6605 H              1 <1>                0.0000
@<TRIPOS>BOND
    1    1    2 1     
    2    1   15 1     
    3    1   16 1     
    4    1   17 1     
    5    2    3 1     
    6    2   10 1     
    7    2   11 1     
    8    3    4 ar    
    9    3    9 ar    
   10    4    5 ar    
   11    4   12 1     
   12    5    6 ar    
   13    5   13 1     
   14    6    7 1     
   15    6    8 ar    
   16    7   18 1     
   17    8    9 ar    
   18    8   14 1     
@<TRIPOS>SUBSTRUCTURE
      1 ****           1
@<TRIPOS>SET
DONOR_HYDROGENS      STATIC     ATOMS    <user>   **** ""
4 15 16 17 18
ATOM$RED        STATIC     ATOMS    COLORGROUP SYSTEM
4 15 16 17 18
@<TRIPOS>COMMENT
> <Gold.Version>
2022.2.0

> <Gold.Id.Protein>
3pbl|protein|mol2

> <Gold.Protein.RotatedTorsions>
[ 1303 1298 1297 1294 ] final -178.40 input  179.99 | X-H torsion
[ 2461 2456 2455 2452 ] final  125.74 input   30.03 | X-H torsion
[ 2515 2510 2509 2506 ] final  -24.46 input  -89.99 | X-H torsion
[ 3721 3712 3711 3710 ] final -123.94 input -179.91 | X-H torsion
[ 3841 3832 3831 3830 ] final   99.72 input -179.91 | X-H torsion
[ 3767 3762 3761 3758 ] final   68.85 input  -89.99 | X-H torsion
[ 2472 2467 2466 2463 ] final   44.83 input  -89.97 | X-H torsion

> <Gold.Protein.ActiveResidues>
 VAL82   VAL86   LEU89   PHE106  VAL107  ASP110  VAL111  MET112  CYS114  THR115 
 CYS181  SER182  ILE183  PHE188  VAL189  ILE190  SER192  SER193  SER196  TRP342 
 PHE345  PHE346  HIS349  VAL350  TYR365  THR369  GLY372  TYR373 

> <Gold.Protein.RotatedAtoms>
    4.8464   -8.8541    4.6669 H   0  0  0  0  0  0  0  0  0  0  0  0  # atno 1303 bound_to 1298
    2.0899   -8.7140    8.1219 H   0  0  0  0  0  0  0  0  0  0  0  0  # atno 2461 bound_to 2456
   -4.3959   -4.8005    7.6813 H   0  0  0  0  0  0  0  0  0  0  0  0  # atno 2472 bound_to 2467
    2.6921   -7.9403    4.4087 H   0  0  0  0  0  0  0  0  0  0  0  0  # atno 2515 bound_to 2510
   -3.2374  -16.6292   14.3561 H   0  0  0  0  0  0  0  0  0  0  0  0  # atno 3721 bound_to 3712
   -4.4493  -23.3151   10.2693 H   0  0  0  0  0  0  0  0  0  0  0  0  # atno 3767 bound_to 3762
    2.9383  -20.8754    9.1625 H   0  0  0  0  0  0  0  0  0  0  0  0  # atno 3841 bound_to 3832
    4.0302  -10.2683    4.6479 LP  0  0  0  0  0  0  0  0  0  0  0  0  # atno 4297 bound_to 1298
    3.4853   -8.9991    3.7767 LP  0  0  0  0  0  0  0  0  0  0  0  0  # atno 4298 bound_to 1298
    1.1313   -7.9610    7.0349 LP  0  0  0  0  0  0  0  0  0  0  0  0  # atno 4299 bound_to 2456
    0.5168   -9.1332    7.9915 LP  0  0  0  0  0  0  0  0  0  0  0  0  # atno 4300 bound_to 2456
    2.5698   -9.2545    5.3699 LP  0  0  0  0  0  0  0  0  0  0  0  0  # atno 4301 bound_to 2510
    2.0347   -7.8045    5.8971 LP  0  0  0  0  0  0  0  0  0  0  0  0  # atno 4302 bound_to 2510
   -3.1580  -17.4116   12.9563 LP  0  0  0  0  0  0  0  0  0  0  0  0  # atno 4306 bound_to 3712
   -2.6320  -18.1160   14.3324 LP  0  0  0  0  0  0  0  0  0  0  0  0  # atno 4307 bound_to 3712
    1.4288  -20.3525    9.3173 LP  0  0  0  0  0  0  0  0  0  0  0  0  # atno 4314 bound_to 3832
    2.4063  -19.7385    8.1623 LP  0  0  0  0  0  0  0  0  0  0  0  0  # atno 4315 bound_to 3832
   -5.4963  -22.1342   10.6889 LP  0  0  0  0  0  0  0  0  0  0  0  0  # atno 4318 bound_to 3762
   -4.1817  -22.4260   11.6127 LP  0  0  0  0  0  0  0  0  0  0  0  0  # atno 4319 bound_to 3762
   -3.8628   -5.2709    9.1513 LP  0  0  0  0  0  0  0  0  0  0  0  0  # atno 4320 bound_to 2467
   -5.4582   -5.3221    8.8064 LP  0  0  0  0  0  0  0  0  0  0  0  0  # atno 4321 bound_to 2467

> <Gold.Score>
     Score     S(PLP)   S(hbond)     S(cho)   S(metal)  DE(clash)   DE(tors)     intcor
     33.41     -25.14       2.00       1.00       0.00       0.00       0.36       0.00

> <Gold.PLP.Fitness>
33.4096

> <Gold.PLP.PLP>
-25.1396

> <Gold.PLP.part.hbond>
-1.0000

> <Gold.PLP.part.metal>
0.0000

> <Gold.PLP.part.buried>
-4.1106

> <Gold.PLP.part.nonpolar>
-20.6391

> <Gold.PLP.part.repulsive>
0.0000

> <Gold.PLP.ligand.clash>
0.0000

> <Gold.PLP.ligand.torsion>
0.3650

> <Gold.PLP.Chemscore.Hbond>
2.0000

> <Gold.PLP.Chemscore.CHOScore>
1.0000

> <Gold.PLP.Chemscore.Metal>
0.0000

> <Gold.Chemscore.Hbonds>
donor molecule, donor type, donor heavy atom, donor atom, acceptor molecule, acceptor atom, score
      L1  H     1    16       P1  1227  2.00
      L1  C     8    14       P1  2456  1.00

> <Gold.PLP.Chemscore.Internal.Correction>
0.0000

