#       Name:                EN300-6479274_i001
#       Creating user name   fsindt
#       Creation time:       Tue Feb 28 22:49:31 2023


#       File generated by GOLD software.
#

@<TRIPOS>MOLECULE
EN300-6479274_i001|amine_1|mol2|6657|dock12
    18    18     1
SMALL
USER_CHARGES


@<TRIPOS>ATOM
      1 N1           0.1367 -17.1499   9.6371 N.4            1 <1>                1.0000
      2 C2          -0.4013 -16.6314   8.3723 C.3            1 <1>                0.0000
      3 C3           0.0054 -15.1898   8.2067 C.ar           1 <1>                0.0000
      4 C4           0.2563 -14.4193   9.3264 C.ar           1 <1>                0.0000
      5 C5           0.6303 -13.0946   9.1662 C.ar           1 <1>                0.0000
      6 C6           0.7389 -12.5900   7.8745 C.ar           1 <1>                0.0000
      7 O7           1.1031 -11.2969   7.6680 O.3            1 <1>                0.0000
      8 C8           0.4707 -13.4258   6.7999 C.ar           1 <1>                0.0000
      9 N9           0.1225 -14.6820   6.9953 N.ar           1 <1>                0.0000
     10 H10         -0.0072 -17.2178   7.5423 H              1 <1>                0.0000
     11 H11         -1.4889 -16.7030   8.3836 H              1 <1>                0.0000
     12 H12          0.1616 -14.8446  10.3146 H              1 <1>                0.0000
     13 H13          0.8322 -12.4692  10.0232 H              1 <1>                0.0000
     14 H14          0.5520 -13.0442   5.7928 H              1 <1>                0.0000
     15 H15         -0.0898 -18.1294   9.7224 H              1 <1>                0.0000
     16 H16          1.1390 -17.0343   9.6487 H              1 <1>                0.0000
     17 H17         -0.2694 -16.6422  10.4087 H              1 <1>                0.0000
     18 H18          1.7818 -11.1832   6.9888 H              1 <1>                0.0000
@<TRIPOS>BOND
    1    1    2 1     
    2    1   15 1     
    3    1   16 1     
    4    1   17 1     
    5    2    3 1     
    6    2   10 1     
    7    2   11 1     
    8    3    4 ar    
    9    3    9 ar    
   10    4    5 ar    
   11    4   12 1     
   12    5    6 ar    
   13    5   13 1     
   14    6    7 1     
   15    6    8 ar    
   16    7   18 1     
   17    8    9 ar    
   18    8   14 1     
@<TRIPOS>SUBSTRUCTURE
      1 ****           1
@<TRIPOS>SET
DONOR_HYDROGENS      STATIC     ATOMS    <user>   **** ""
4 15 16 17 18
ATOM$RED        STATIC     ATOMS    COLORGROUP SYSTEM
4 15 16 17 18
@<TRIPOS>COMMENT
> <Gold.Version>
2022.2.0

> <Gold.Id.Protein>
3pbl|protein|mol2

> <Gold.Protein.RotatedTorsions>
[ 1303 1298 1297 1294 ] final  121.39 input  179.99 | X-H torsion
[ 2461 2456 2455 2452 ] final -147.26 input   30.03 | X-H torsion
[ 2515 2510 2509 2506 ] final  -29.45 input  -89.99 | X-H torsion
[ 3721 3712 3711 3710 ] final   -3.00 input -179.91 | X-H torsion
[ 3841 3832 3831 3830 ] final  -95.93 input -179.91 | X-H torsion
[ 3767 3762 3761 3758 ] final  -34.53 input  -89.99 | X-H torsion
[ 2472 2467 2466 2463 ] final -138.97 input  -89.97 | X-H torsion

> <Gold.Protein.ActiveResidues>
 VAL82   VAL86   LEU89   PHE106  VAL107  ASP110  VAL111  MET112  CYS114  THR115 
 CYS181  SER182  ILE183  PHE188  VAL189  ILE190  SER192  SER193  SER196  TRP342 
 PHE345  PHE346  HIS349  VAL350  TYR365  THR369  GLY372  TYR373 

> <Gold.Protein.RotatedAtoms>
    4.7542   -9.7513    4.9510 H   0  0  0  0  0  0  0  0  0  0  0  0  # atno 1303 bound_to 1298
    0.9357   -9.2846    8.2890 H   0  0  0  0  0  0  0  0  0  0  0  0  # atno 2461 bound_to 2456
   -4.8092   -5.4640    9.3961 H   0  0  0  0  0  0  0  0  0  0  0  0  # atno 2472 bound_to 2467
    2.7180   -8.0146    4.3853 H   0  0  0  0  0  0  0  0  0  0  0  0  # atno 2515 bound_to 2510
   -2.4938  -17.9383   14.2832 H   0  0  0  0  0  0  0  0  0  0  0  0  # atno 3721 bound_to 3712
   -5.5074  -22.3011   10.4737 H   0  0  0  0  0  0  0  0  0  0  0  0  # atno 3767 bound_to 3762
    1.9179  -19.5961    8.6489 H   0  0  0  0  0  0  0  0  0  0  0  0  # atno 3841 bound_to 3832
    3.3936   -9.8908    4.0590 LP  0  0  0  0  0  0  0  0  0  0  0  0  # atno 4297 bound_to 1298
    4.2142   -8.4791    4.0814 LP  0  0  0  0  0  0  0  0  0  0  0  0  # atno 4298 bound_to 1298
    2.1468   -8.3274    7.7555 LP  0  0  0  0  0  0  0  0  0  0  0  0  # atno 4299 bound_to 2456
    0.6552   -8.1963    7.1039 LP  0  0  0  0  0  0  0  0  0  0  0  0  # atno 4300 bound_to 2456
    2.5363   -9.2442    5.4441 LP  0  0  0  0  0  0  0  0  0  0  0  0  # atno 4301 bound_to 2510
    2.0424   -7.7405    5.8462 LP  0  0  0  0  0  0  0  0  0  0  0  0  # atno 4302 bound_to 2510
   -3.4583  -16.6614   14.4134 LP  0  0  0  0  0  0  0  0  0  0  0  0  # atno 4306 bound_to 3712
   -3.1902  -17.3549   12.9595 LP  0  0  0  0  0  0  0  0  0  0  0  0  # atno 4307 bound_to 3712
    3.1280  -20.6432    8.5255 LP  0  0  0  0  0  0  0  0  0  0  0  0  # atno 4314 bound_to 3832
    1.8860  -20.9256    9.5474 LP  0  0  0  0  0  0  0  0  0  0  0  0  # atno 4315 bound_to 3832
   -4.3768  -22.2391   11.6503 LP  0  0  0  0  0  0  0  0  0  0  0  0  # atno 4318 bound_to 3762
   -4.2435  -23.3348   10.4469 LP  0  0  0  0  0  0  0  0  0  0  0  0  # atno 4319 bound_to 3762
   -5.2396   -4.9714    7.8999 LP  0  0  0  0  0  0  0  0  0  0  0  0  # atno 4320 bound_to 2467
   -3.6681   -4.9582    8.3433 LP  0  0  0  0  0  0  0  0  0  0  0  0  # atno 4321 bound_to 2467

> <Gold.Score>
     Score     S(PLP)   S(hbond)     S(cho)   S(metal)  DE(clash)   DE(tors)     intcor
     34.39     -26.99       2.71       0.00       0.00       0.00       0.37       0.00

> <Gold.PLP.Fitness>
34.3940

> <Gold.PLP.PLP>
-26.9907

> <Gold.PLP.part.hbond>
-1.9877

> <Gold.PLP.part.metal>
0.0000

> <Gold.PLP.part.buried>
-4.2475

> <Gold.PLP.part.nonpolar>
-21.1725

> <Gold.PLP.part.repulsive>
0.0487

> <Gold.PLP.ligand.clash>
0.0000

> <Gold.PLP.ligand.torsion>
0.3654

> <Gold.PLP.Chemscore.Hbond>
2.7114

> <Gold.PLP.Chemscore.CHOScore>
0.0000

> <Gold.PLP.Chemscore.Metal>
0.0000

> <Gold.Chemscore.Hbonds>
donor molecule, donor type, donor heavy atom, donor atom, acceptor molecule, acceptor atom, score
      L1  H     1    16       P1  1227  2.00
      P1  H  2456  2461       L1     7  0.71

> <Gold.PLP.Chemscore.Internal.Correction>
0.0000

