#       Name:                EN300-6479274_i001
#       Creating user name   fsindt
#       Creation time:       Tue Feb 28 22:49:27 2023


#       File generated by GOLD software.
#

@<TRIPOS>MOLECULE
EN300-6479274_i001|amine_1|mol2|6657|dock6
    18    18     1
SMALL
USER_CHARGES


@<TRIPOS>ATOM
      1 N1           0.5033 -16.7307   7.8449 N.4            1 <1>                1.0000
      2 C2           0.8144 -15.6110   6.9462 C.3            1 <1>                0.0000
      3 C3           0.6860 -14.3119   7.6990 C.ar           1 <1>                0.0000
      4 C4           0.3804 -14.3323   9.0468 C.ar           1 <1>                0.0000
      5 C5           0.2645 -13.1337   9.7325 C.ar           1 <1>                0.0000
      6 C6           0.4620 -11.9489   9.0308 C.ar           1 <1>                0.0000
      7 O7           0.3591 -10.7492   9.6611 O.3            1 <1>                0.0000
      8 C8           0.7660 -12.0096   7.6784 C.ar           1 <1>                0.0000
      9 N9           0.8722 -13.1711   7.0642 N.ar           1 <1>                0.0000
     10 H10          1.8335 -15.7162   6.5740 H              1 <1>                0.0000
     11 H11          0.1189 -15.6148   6.1069 H              1 <1>                0.0000
     12 H12          0.2334 -15.2714   9.5594 H              1 <1>                0.0000
     13 H13          0.0263 -13.1196  10.7858 H              1 <1>                0.0000
     14 H14          0.9213 -11.0958   7.1240 H              1 <1>                0.0000
     15 H15         -0.3396 -16.5245   8.3596 H              1 <1>                0.0000
     16 H16          0.3688 -17.5704   7.3018 H              1 <1>                0.0000
     17 H17          1.2669 -16.8661   8.4903 H              1 <1>                0.0000
     18 H18         -0.1994 -10.7662  10.4502 H              1 <1>                0.0000
@<TRIPOS>BOND
    1    1    2 1     
    2    1   15 1     
    3    1   16 1     
    4    1   17 1     
    5    2    3 1     
    6    2   10 1     
    7    2   11 1     
    8    3    4 ar    
    9    3    9 ar    
   10    4    5 ar    
   11    4   12 1     
   12    5    6 ar    
   13    5   13 1     
   14    6    7 1     
   15    6    8 ar    
   16    7   18 1     
   17    8    9 ar    
   18    8   14 1     
@<TRIPOS>SUBSTRUCTURE
      1 ****           1
@<TRIPOS>SET
DONOR_HYDROGENS      STATIC     ATOMS    <user>   **** ""
4 15 16 17 18
ATOM$RED        STATIC     ATOMS    COLORGROUP SYSTEM
4 15 16 17 18
@<TRIPOS>COMMENT
> <Gold.Version>
2022.2.0

> <Gold.Id.Protein>
3pbl|protein|mol2

> <Gold.Protein.RotatedTorsions>
[ 1303 1298 1297 1294 ] final  137.25 input  179.99 | X-H torsion
[ 2461 2456 2455 2452 ] final -141.87 input   30.03 | X-H torsion
[ 2515 2510 2509 2506 ] final  -40.32 input  -89.99 | X-H torsion
[ 3721 3712 3711 3710 ] final  -41.27 input -179.91 | X-H torsion
[ 3841 3832 3831 3830 ] final  -25.54 input -179.91 | X-H torsion
[ 3767 3762 3761 3758 ] final  -84.50 input  -89.99 | X-H torsion
[ 2472 2467 2466 2463 ] final   -9.83 input  -89.97 | X-H torsion

> <Gold.Protein.ActiveResidues>
 VAL82   VAL86   LEU89   PHE106  VAL107  ASP110  VAL111  MET112  CYS114  THR115 
 CYS181  SER182  ILE183  PHE188  VAL189  ILE190  SER192  SER193  SER196  TRP342 
 PHE345  PHE346  HIS349  VAL350  TYR365  THR369  GLY372  TYR373 

> <Gold.Protein.RotatedAtoms>
    4.8595   -9.5143    4.9322 H   0  0  0  0  0  0  0  0  0  0  0  0  # atno 1303 bound_to 1298
    0.8561   -9.2744    8.2511 H   0  0  0  0  0  0  0  0  0  0  0  0  # atno 2461 bound_to 2456
   -3.7189   -4.9160    8.2084 H   0  0  0  0  0  0  0  0  0  0  0  0  # atno 2472 bound_to 2467
    2.7666   -8.1840    4.3566 H   0  0  0  0  0  0  0  0  0  0  0  0  # atno 2515 bound_to 2510
   -2.6701  -17.5694   14.6774 H   0  0  0  0  0  0  0  0  0  0  0  0  # atno 3721 bound_to 3712
   -5.2814  -21.9321   11.1425 H   0  0  0  0  0  0  0  0  0  0  0  0  # atno 3767 bound_to 3762
    1.5830  -20.1838    9.3825 H   0  0  0  0  0  0  0  0  0  0  0  0  # atno 3841 bound_to 3832
    3.5065  -10.0718    4.2077 LP  0  0  0  0  0  0  0  0  0  0  0  0  # atno 4297 bound_to 1298
    3.9959   -8.5351    3.9515 LP  0  0  0  0  0  0  0  0  0  0  0  0  # atno 4298 bound_to 1298
    2.1580   -8.3877    7.8196 LP  0  0  0  0  0  0  0  0  0  0  0  0  # atno 4299 bound_to 2456
    0.7235   -8.1462    7.0776 LP  0  0  0  0  0  0  0  0  0  0  0  0  # atno 4300 bound_to 2456
    2.4608   -9.1980    5.5992 LP  0  0  0  0  0  0  0  0  0  0  0  0  # atno 4301 bound_to 2510
    2.0691   -7.6173    5.7198 LP  0  0  0  0  0  0  0  0  0  0  0  0  # atno 4302 bound_to 2510
   -3.5674  -16.5657   13.8026 LP  0  0  0  0  0  0  0  0  0  0  0  0  # atno 4306 bound_to 3712
   -2.8775  -17.8764   13.1151 LP  0  0  0  0  0  0  0  0  0  0  0  0  # atno 4307 bound_to 3712
    2.5273  -19.8002    8.1426 LP  0  0  0  0  0  0  0  0  0  0  0  0  # atno 4314 bound_to 3832
    2.8735  -21.0897    9.0828 LP  0  0  0  0  0  0  0  0  0  0  0  0  # atno 4315 bound_to 3832
   -3.9365  -22.8335   11.3554 LP  0  0  0  0  0  0  0  0  0  0  0  0  # atno 4318 bound_to 3762
   -4.9097  -23.1092   10.0734 LP  0  0  0  0  0  0  0  0  0  0  0  0  # atno 4319 bound_to 3762
   -4.6622   -5.4579    9.4261 LP  0  0  0  0  0  0  0  0  0  0  0  0  # atno 4320 bound_to 2467
   -5.3357   -5.0196    8.0045 LP  0  0  0  0  0  0  0  0  0  0  0  0  # atno 4321 bound_to 2467

> <Gold.Score>
     Score     S(PLP)   S(hbond)     S(cho)   S(metal)  DE(clash)   DE(tors)     intcor
     34.16     -27.49       3.00       0.00       0.00       2.32       0.01       0.00

> <Gold.PLP.Fitness>
34.1607

> <Gold.PLP.PLP>
-27.4935

> <Gold.PLP.part.hbond>
-2.0000

> <Gold.PLP.part.metal>
0.0000

> <Gold.PLP.part.buried>
-4.1594

> <Gold.PLP.part.nonpolar>
-21.7240

> <Gold.PLP.part.repulsive>
0.0554

> <Gold.PLP.ligand.clash>
2.3172

> <Gold.PLP.ligand.torsion>
0.0078

> <Gold.PLP.Chemscore.Hbond>
3.0000

> <Gold.PLP.Chemscore.CHOScore>
0.0000

> <Gold.PLP.Chemscore.Metal>
0.0000

> <Gold.Chemscore.Hbonds>
donor molecule, donor type, donor heavy atom, donor atom, acceptor molecule, acceptor atom, score
      L1  H     1    17       P1  1227  2.00
      P1  H  2456  2461       L1     7  1.00

> <Gold.PLP.Chemscore.Internal.Correction>
0.0000

