#       Name:                EN300-6479274_i001
#       Creating user name   fsindt
#       Creation time:       Tue Feb 28 22:49:30 2023


#       File generated by GOLD software.
#

@<TRIPOS>MOLECULE
EN300-6479274_i001|amine_1|mol2|6657|dock10
    18    18     1
SMALL
USER_CHARGES


@<TRIPOS>ATOM
      1 N1           0.4896 -16.0805   9.7057 N.4            1 <1>                1.0000
      2 C2          -0.1005 -15.7477   8.4023 C.3            1 <1>                0.0000
      3 C3           0.2486 -14.3270   8.0407 C.ar           1 <1>                0.0000
      4 C4          -0.1017 -13.2999   8.8967 C.ar           1 <1>                0.0000
      5 C5           0.2232 -11.9962   8.5577 C.ar           1 <1>                0.0000
      6 C6           0.8941 -11.7722   7.3599 C.ar           1 <1>                0.0000
      7 O7           1.2339 -10.5105   6.9857 O.3            1 <1>                0.0000
      8 C8           1.2118 -12.8552   6.5530 C.ar           1 <1>                0.0000
      9 N9           0.8891 -14.0811   6.9145 N.ar           1 <1>                0.0000
     10 H10          0.2925 -16.4231   7.6424 H              1 <1>                0.0000
     11 H11         -1.1841 -15.8530   8.4564 H              1 <1>                0.0000
     12 H12         -0.6227 -13.5111   9.8188 H              1 <1>                0.0000
     13 H13         -0.0384 -11.1740   9.2073 H              1 <1>                0.0000
     14 H14          1.7327 -12.6926   5.6209 H              1 <1>                0.0000
     15 H15         -0.1406 -16.6805  10.2167 H              1 <1>                0.0000
     16 H16          1.3679 -16.5569   9.5655 H              1 <1>                0.0000
     17 H17          0.6464 -15.2330  10.2302 H              1 <1>                0.0000
     18 H18          0.8176  -9.8175   7.5161 H              1 <1>                0.0000
@<TRIPOS>BOND
    1    1    2 1     
    2    1   15 1     
    3    1   16 1     
    4    1   17 1     
    5    2    3 1     
    6    2   10 1     
    7    2   11 1     
    8    3    4 ar    
    9    3    9 ar    
   10    4    5 ar    
   11    4   12 1     
   12    5    6 ar    
   13    5   13 1     
   14    6    7 1     
   15    6    8 ar    
   16    7   18 1     
   17    8    9 ar    
   18    8   14 1     
@<TRIPOS>SUBSTRUCTURE
      1 ****           1
@<TRIPOS>SET
DONOR_HYDROGENS      STATIC     ATOMS    <user>   **** ""
4 15 16 17 18
ATOM$RED        STATIC     ATOMS    COLORGROUP SYSTEM
4 15 16 17 18
@<TRIPOS>COMMENT
> <Gold.Version>
2022.2.0

> <Gold.Id.Protein>
3pbl|protein|mol2

> <Gold.Protein.RotatedTorsions>
[ 1303 1298 1297 1294 ] final -143.12 input  179.99 | X-H torsion
[ 2461 2456 2455 2452 ] final   14.75 input   30.03 | X-H torsion
[ 2515 2510 2509 2506 ] final  179.08 input  -89.99 | X-H torsion
[ 3721 3712 3711 3710 ] final  108.34 input -179.91 | X-H torsion
[ 3841 3832 3831 3830 ] final  101.05 input -179.91 | X-H torsion
[ 3767 3762 3761 3758 ] final -114.13 input  -89.99 | X-H torsion
[ 2472 2467 2466 2463 ] final   83.87 input  -89.97 | X-H torsion

> <Gold.Protein.ActiveResidues>
 VAL82   VAL86   LEU89   PHE106  VAL107  ASP110  VAL111  MET112  CYS114  THR115 
 CYS181  SER182  ILE183  PHE188  VAL189  ILE190  SER192  SER193  SER196  TRP342 
 PHE345  PHE346  HIS349  VAL350  TYR365  THR369  GLY372  TYR373 

> <Gold.Protein.RotatedAtoms>
    4.5314   -8.5264    4.3209 H   0  0  0  0  0  0  0  0  0  0  0  0  # atno 1303 bound_to 1298
    1.2749   -7.9308    7.0550 H   0  0  0  0  0  0  0  0  0  0  0  0  # atno 2461 bound_to 2456
   -5.0154   -4.8931    7.7490 H   0  0  0  0  0  0  0  0  0  0  0  0  # atno 2472 bound_to 2467
    2.3175   -9.0272    5.8521 H   0  0  0  0  0  0  0  0  0  0  0  0  # atno 2515 bound_to 2510
   -2.9213  -17.3860   13.0348 H   0  0  0  0  0  0  0  0  0  0  0  0  # atno 3721 bound_to 3712
   -4.9287  -21.9439   11.4711 H   0  0  0  0  0  0  0  0  0  0  0  0  # atno 3767 bound_to 3762
    2.9502  -20.8677    9.1482 H   0  0  0  0  0  0  0  0  0  0  0  0  # atno 3841 bound_to 3832
    4.5009  -10.0557    4.8925 LP  0  0  0  0  0  0  0  0  0  0  0  0  # atno 4297 bound_to 1298
    3.3297   -9.5395    3.8783 LP  0  0  0  0  0  0  0  0  0  0  0  0  # atno 4298 bound_to 1298
    0.4391   -9.0586    7.8898 LP  0  0  0  0  0  0  0  0  0  0  0  0  # atno 4299 bound_to 2456
    2.0237   -8.8186    8.2032 LP  0  0  0  0  0  0  0  0  0  0  0  0  # atno 4300 bound_to 2456
    2.1545   -7.4570    5.4355 LP  0  0  0  0  0  0  0  0  0  0  0  0  # atno 4301 bound_to 2510
    2.8248   -8.5146    4.3873 LP  0  0  0  0  0  0  0  0  0  0  0  0  # atno 4302 bound_to 2510
   -2.6682  -18.0293   14.4839 LP  0  0  0  0  0  0  0  0  0  0  0  0  # atno 4306 bound_to 3712
   -3.4868  -16.6246   14.3303 LP  0  0  0  0  0  0  0  0  0  0  0  0  # atno 4307 bound_to 3712
    1.4350  -20.3702    9.3293 LP  0  0  0  0  0  0  0  0  0  0  0  0  # atno 4314 bound_to 3832
    2.3863  -19.7297    8.1668 LP  0  0  0  0  0  0  0  0  0  0  0  0  # atno 4315 bound_to 3832
   -3.9313  -23.1422   10.9849 LP  0  0  0  0  0  0  0  0  0  0  0  0  # atno 4318 bound_to 3762
   -5.2675  -22.7887   10.1152 LP  0  0  0  0  0  0  0  0  0  0  0  0  # atno 4319 bound_to 3762
   -3.6350   -5.0497    8.6072 LP  0  0  0  0  0  0  0  0  0  0  0  0  # atno 4320 bound_to 2467
   -5.0666   -5.4507    9.2828 LP  0  0  0  0  0  0  0  0  0  0  0  0  # atno 4321 bound_to 2467

> <Gold.Score>
     Score     S(PLP)   S(hbond)     S(cho)   S(metal)  DE(clash)   DE(tors)     intcor
     35.49     -26.53       2.99       0.00       0.00       0.00       0.01       0.00

> <Gold.PLP.Fitness>
35.4859

> <Gold.PLP.PLP>
-26.5301

> <Gold.PLP.part.hbond>
-2.1433

> <Gold.PLP.part.metal>
0.0000

> <Gold.PLP.part.buried>
-2.2709

> <Gold.PLP.part.nonpolar>
-23.0726

> <Gold.PLP.part.repulsive>
0.0846

> <Gold.PLP.ligand.clash>
0.0000

> <Gold.PLP.ligand.torsion>
0.0073

> <Gold.PLP.Chemscore.Hbond>
2.9901

> <Gold.PLP.Chemscore.CHOScore>
0.0000

> <Gold.PLP.Chemscore.Metal>
0.0000

> <Gold.Chemscore.Hbonds>
donor molecule, donor type, donor heavy atom, donor atom, acceptor molecule, acceptor atom, score
      L1  H     1    16       P1  1227  2.00
      L1  H     7    18       P1  2456  0.63
      P1  H  2510  2515       L1     7  0.36

> <Gold.PLP.Chemscore.Internal.Correction>
0.0000

