#       Name:                EN300-6479274_i001
#       Creating user name   fsindt
#       Creation time:       Tue Feb 28 22:49:37 2023


#       File generated by GOLD software.
#

@<TRIPOS>MOLECULE
EN300-6479274_i001|amine_1|mol2|6657|dock20
    18    18     1
SMALL
USER_CHARGES


@<TRIPOS>ATOM
      1 N1          -1.9280 -11.2044   9.7808 N.4            1 <1>                1.0000
      2 C2          -0.4706 -11.2404   9.9617 C.3            1 <1>                0.0000
      3 C3           0.1023 -12.4040   9.1943 C.ar           1 <1>                0.0000
      4 C4          -0.0419 -12.4520   7.8205 C.ar           1 <1>                0.0000
      5 C5           0.4880 -13.5248   7.1217 C.ar           1 <1>                0.0000
      6 C6           1.1489 -14.5182   7.8369 C.ar           1 <1>                0.0000
      7 O7           1.6853 -15.5891   7.1946 O.3            1 <1>                0.0000
      8 C8           1.2531 -14.3996   9.2154 C.ar           1 <1>                0.0000
      9 N9           0.7392 -13.3600   9.8420 N.ar           1 <1>                0.0000
     10 H10         -0.0355 -10.3118   9.5921 H              1 <1>                0.0000
     11 H11         -0.2386 -11.3541  11.0206 H              1 <1>                0.0000
     12 H12         -0.5617 -11.6626   7.2980 H              1 <1>                0.0000
     13 H13          0.3900 -13.5885   6.0480 H              1 <1>                0.0000
     14 H14          1.7642 -15.1651   9.7805 H              1 <1>                0.0000
     15 H15         -2.3629 -11.8463  10.4264 H              1 <1>                0.0000
     16 H16         -2.2657 -10.2700   9.9568 H              1 <1>                0.0000
     17 H17         -2.1563 -11.4721   8.8351 H              1 <1>                0.0000
     18 H18          2.6504 -15.6296   7.2359 H              1 <1>                0.0000
@<TRIPOS>BOND
    1    1    2 1     
    2    1   15 1     
    3    1   16 1     
    4    1   17 1     
    5    2    3 1     
    6    2   10 1     
    7    2   11 1     
    8    3    4 ar    
    9    3    9 ar    
   10    4    5 ar    
   11    4   12 1     
   12    5    6 ar    
   13    5   13 1     
   14    6    7 1     
   15    6    8 ar    
   16    7   18 1     
   17    8    9 ar    
   18    8   14 1     
@<TRIPOS>SUBSTRUCTURE
      1 ****           1
@<TRIPOS>SET
DONOR_HYDROGENS      STATIC     ATOMS    <user>   **** ""
4 15 16 17 18
ATOM$RED        STATIC     ATOMS    COLORGROUP SYSTEM
4 15 16 17 18
@<TRIPOS>COMMENT
> <Gold.Version>
2022.2.0

> <Gold.Id.Protein>
3pbl|protein|mol2

> <Gold.Protein.RotatedTorsions>
[ 1303 1298 1297 1294 ] final   23.69 input  179.99 | X-H torsion
[ 2461 2456 2455 2452 ] final -130.47 input   30.03 | X-H torsion
[ 2515 2510 2509 2506 ] final  174.07 input  -89.99 | X-H torsion
[ 3721 3712 3711 3710 ] final -133.94 input -179.91 | X-H torsion
[ 3841 3832 3831 3830 ] final   24.93 input -179.91 | X-H torsion
[ 3767 3762 3761 3758 ] final  -17.63 input  -89.99 | X-H torsion
[ 2472 2467 2466 2463 ] final   60.55 input  -89.97 | X-H torsion

> <Gold.Protein.ActiveResidues>
 VAL82   VAL86   LEU89   PHE106  VAL107  ASP110  VAL111  MET112  CYS114  THR115 
 CYS181  SER182  ILE183  PHE188  VAL189  ILE190  SER192  SER193  SER196  TRP342 
 PHE345  PHE346  HIS349  VAL350  TYR365  THR369  GLY372  TYR373 

> <Gold.Protein.RotatedAtoms>
    3.5662  -10.1306    4.2726 H   0  0  0  0  0  0  0  0  0  0  0  0  # atno 1303 bound_to 1298
    0.7001   -9.2337    8.1559 H   0  0  0  0  0  0  0  0  0  0  0  0  # atno 2461 bound_to 2456
   -4.6520   -4.8209    7.6597 H   0  0  0  0  0  0  0  0  0  0  0  0  # atno 2472 bound_to 2467
    2.2842   -8.9713    5.9025 H   0  0  0  0  0  0  0  0  0  0  0  0  # atno 2515 bound_to 2510
   -3.2808  -16.5742   14.2224 H   0  0  0  0  0  0  0  0  0  0  0  0  # atno 3721 bound_to 3712
   -5.4506  -22.4990   10.2882 H   0  0  0  0  0  0  0  0  0  0  0  0  # atno 3767 bound_to 3762
    2.0024  -20.7418    9.6224 H   0  0  0  0  0  0  0  0  0  0  0  0  # atno 3841 bound_to 3832
    3.9091   -8.5765    3.9072 LP  0  0  0  0  0  0  0  0  0  0  0  0  # atno 4297 bound_to 1298
    4.8870   -9.4140    4.9117 LP  0  0  0  0  0  0  0  0  0  0  0  0  # atno 4298 bound_to 1298
    2.1552   -8.5206    7.9514 LP  0  0  0  0  0  0  0  0  0  0  0  0  # atno 4299 bound_to 2456
    0.8823   -8.0541    7.0410 LP  0  0  0  0  0  0  0  0  0  0  0  0  # atno 4300 bound_to 2456
    2.1811   -7.4345    5.3609 LP  0  0  0  0  0  0  0  0  0  0  0  0  # atno 4301 bound_to 2510
    2.8315   -8.5930    4.4115 LP  0  0  0  0  0  0  0  0  0  0  0  0  # atno 4302 bound_to 2510
   -3.0745  -17.5555   12.9684 LP  0  0  0  0  0  0  0  0  0  0  0  0  # atno 4306 bound_to 3712
   -2.6654  -18.0356   14.4747 LP  0  0  0  0  0  0  0  0  0  0  0  0  # atno 4307 bound_to 3712
    1.7919  -19.6508    8.4642 LP  0  0  0  0  0  0  0  0  0  0  0  0  # atno 4314 bound_to 3832
    3.1244  -20.5946    8.4842 LP  0  0  0  0  0  0  0  0  0  0  0  0  # atno 4315 bound_to 3832
   -4.6033  -22.0823   11.6206 LP  0  0  0  0  0  0  0  0  0  0  0  0  # atno 4318 bound_to 3762
   -4.0738  -23.2937   10.6620 LP  0  0  0  0  0  0  0  0  0  0  0  0  # atno 4319 bound_to 3762
   -3.7233   -5.1840    8.9528 LP  0  0  0  0  0  0  0  0  0  0  0  0  # atno 4320 bound_to 2467
   -5.3417   -5.3886    9.0266 LP  0  0  0  0  0  0  0  0  0  0  0  0  # atno 4321 bound_to 2467

> <Gold.Score>
     Score     S(PLP)   S(hbond)     S(cho)   S(metal)  DE(clash)   DE(tors)     intcor
     33.32     -27.32       1.00       1.00       0.00       0.00       0.00       0.00

> <Gold.PLP.Fitness>
33.3176

> <Gold.PLP.PLP>
-27.3226

> <Gold.PLP.part.hbond>
-1.5305

> <Gold.PLP.part.metal>
0.0000

> <Gold.PLP.part.buried>
-4.0500

> <Gold.PLP.part.nonpolar>
-21.8205

> <Gold.PLP.part.repulsive>
0.0200

> <Gold.PLP.ligand.clash>
0.0000

> <Gold.PLP.ligand.torsion>
0.0025

> <Gold.PLP.Chemscore.Hbond>
1.0000

> <Gold.PLP.Chemscore.CHOScore>
1.0000

> <Gold.PLP.Chemscore.Metal>
0.0000

> <Gold.Chemscore.Hbonds>
donor molecule, donor type, donor heavy atom, donor atom, acceptor molecule, acceptor atom, score
      L1  H     7    18       P1  1223  1.00
      L1  C     8    14       P1  1227  1.00

> <Gold.PLP.Chemscore.Internal.Correction>
0.0000

