#       Name:                EN300-6479274_i001
#       Creating user name   fsindt
#       Creation time:       Tue Feb 28 22:49:29 2023


#       File generated by GOLD software.
#

@<TRIPOS>MOLECULE
EN300-6479274_i001|amine_1|mol2|6657|dock8
    18    18     1
SMALL
USER_CHARGES


@<TRIPOS>ATOM
      1 N1           2.4761 -10.8230   6.2824 N.4            1 <1>                1.0000
      2 C2           1.3080 -11.6968   6.1097 C.3            1 <1>                0.0000
      3 C3           1.1993 -12.6290   7.2888 C.ar           1 <1>                0.0000
      4 C4           0.7762 -12.1379   8.5094 C.ar           1 <1>                0.0000
      5 C5           0.6782 -13.0012   9.5889 C.ar           1 <1>                0.0000
      6 C6           1.0125 -14.3381   9.3987 C.ar           1 <1>                0.0000
      7 O7           0.9316 -15.2220  10.4280 O.3            1 <1>                0.0000
      8 C8           1.4292 -14.7562   8.1431 C.ar           1 <1>                0.0000
      9 N9           1.5040 -13.9035   7.1406 N.ar           1 <1>                0.0000
     10 H10          0.4059 -11.0886   6.0429 H              1 <1>                0.0000
     11 H11          1.4219 -12.2792   5.1954 H              1 <1>                0.0000
     12 H12          0.5250 -11.0934   8.6206 H              1 <1>                0.0000
     13 H13          0.3507 -12.6449  10.5544 H              1 <1>                0.0000
     14 H14          1.6911 -15.7919   7.9844 H              1 <1>                0.0000
     15 H15          2.3087  -9.9425   5.8189 H              1 <1>                0.0000
     16 H16          2.6324 -10.6609   7.2659 H              1 <1>                0.0000
     17 H17          3.2893 -11.2652   5.8808 H              1 <1>                0.0000
     18 H18          1.4503 -16.0273  10.2964 H              1 <1>                0.0000
@<TRIPOS>BOND
    1    1    2 1     
    2    1   15 1     
    3    1   16 1     
    4    1   17 1     
    5    2    3 1     
    6    2   10 1     
    7    2   11 1     
    8    3    4 ar    
    9    3    9 ar    
   10    4    5 ar    
   11    4   12 1     
   12    5    6 ar    
   13    5   13 1     
   14    6    7 1     
   15    6    8 ar    
   16    7   18 1     
   17    8    9 ar    
   18    8   14 1     
@<TRIPOS>SUBSTRUCTURE
      1 ****           1
@<TRIPOS>SET
DONOR_HYDROGENS      STATIC     ATOMS    <user>   **** ""
4 15 16 17 18
ATOM$RED        STATIC     ATOMS    COLORGROUP SYSTEM
4 15 16 17 18
@<TRIPOS>COMMENT
> <Gold.Version>
2022.2.0

> <Gold.Id.Protein>
3pbl|protein|mol2

> <Gold.Protein.RotatedTorsions>
[ 1303 1298 1297 1294 ] final   63.61 input  179.99 | X-H torsion
[ 2461 2456 2455 2452 ] final   76.03 input   30.03 | X-H torsion
[ 2515 2510 2509 2506 ] final   73.55 input  -89.99 | X-H torsion
[ 3721 3712 3711 3710 ] final -122.83 input -179.91 | X-H torsion
[ 3841 3832 3831 3830 ] final  121.31 input -179.91 | X-H torsion
[ 3767 3762 3761 3758 ] final  179.01 input  -89.99 | X-H torsion
[ 2472 2467 2466 2463 ] final -117.46 input  -89.97 | X-H torsion

> <Gold.Protein.ActiveResidues>
 VAL82   VAL86   LEU89   PHE106  VAL107  ASP110  VAL111  MET112  CYS114  THR115 
 CYS181  SER182  ILE183  PHE188  VAL189  ILE190  SER192  SER193  SER196  TRP342 
 PHE345  PHE346  HIS349  VAL350  TYR365  THR369  GLY372  TYR373 

> <Gold.Protein.RotatedAtoms>
    4.0577  -10.2644    4.6661 H   0  0  0  0  0  0  0  0  0  0  0  0  # atno 1303 bound_to 1298
    2.0624   -8.1583    7.5571 H   0  0  0  0  0  0  0  0  0  0  0  0  # atno 2461 bound_to 2456
   -4.4600   -5.4381    9.4307 H   0  0  0  0  0  0  0  0  0  0  0  0  # atno 2472 bound_to 2467
    2.0903   -7.5591    5.6402 H   0  0  0  0  0  0  0  0  0  0  0  0  # atno 2515 bound_to 2510
   -3.2319  -16.6366   14.3702 H   0  0  0  0  0  0  0  0  0  0  0  0  # atno 3721 bound_to 3712
   -4.0858  -22.5449   11.5600 H   0  0  0  0  0  0  0  0  0  0  0  0  # atno 3767 bound_to 3762
    3.0875  -20.7131    8.9247 H   0  0  0  0  0  0  0  0  0  0  0  0  # atno 3841 bound_to 3832
    3.4692   -9.0279    3.7767 LP  0  0  0  0  0  0  0  0  0  0  0  0  # atno 4297 bound_to 1298
    4.8354   -8.8287    4.6487 LP  0  0  0  0  0  0  0  0  0  0  0  0  # atno 4298 bound_to 1298
    0.4791   -8.3723    7.2182 LP  0  0  0  0  0  0  0  0  0  0  0  0  # atno 4299 bound_to 2456
    1.1965   -9.2774    8.3727 LP  0  0  0  0  0  0  0  0  0  0  0  0  # atno 4300 bound_to 2456
    2.7888   -8.2823    4.3538 LP  0  0  0  0  0  0  0  0  0  0  0  0  # atno 4301 bound_to 2510
    2.4177   -9.1581    5.6811 LP  0  0  0  0  0  0  0  0  0  0  0  0  # atno 4302 bound_to 2510
   -3.1672  -17.3954   12.9567 LP  0  0  0  0  0  0  0  0  0  0  0  0  # atno 4306 bound_to 3712
   -2.6291  -18.1237   14.3157 LP  0  0  0  0  0  0  0  0  0  0  0  0  # atno 4307 bound_to 3712
    1.5820  -20.6354    9.4757 LP  0  0  0  0  0  0  0  0  0  0  0  0  # atno 4314 bound_to 3832
    2.0807  -19.6431    8.2785 LP  0  0  0  0  0  0  0  0  0  0  0  0  # atno 4315 bound_to 3832
   -4.5831  -23.2766   10.1874 LP  0  0  0  0  0  0  0  0  0  0  0  0  # atno 4318 bound_to 3762
   -5.4582  -22.0536   10.8239 LP  0  0  0  0  0  0  0  0  0  0  0  0  # atno 4319 bound_to 3762
   -5.4347   -5.0894    8.1679 LP  0  0  0  0  0  0  0  0  0  0  0  0  # atno 4320 bound_to 2467
   -3.8221   -4.8661    8.0407 LP  0  0  0  0  0  0  0  0  0  0  0  0  # atno 4321 bound_to 2467

> <Gold.Score>
     Score     S(PLP)   S(hbond)     S(cho)   S(metal)  DE(clash)   DE(tors)     intcor
     35.87     -25.41       2.74       0.84       0.00       0.00       0.15       0.00

> <Gold.PLP.Fitness>
35.8650

> <Gold.PLP.PLP>
-25.4122

> <Gold.PLP.part.hbond>
-4.3883

> <Gold.PLP.part.metal>
0.0000

> <Gold.PLP.part.buried>
0.6024

> <Gold.PLP.part.nonpolar>
-23.3964

> <Gold.PLP.part.repulsive>
0.2007

> <Gold.PLP.ligand.clash>
0.0000

> <Gold.PLP.ligand.torsion>
0.1517

> <Gold.PLP.Chemscore.Hbond>
2.7413

> <Gold.PLP.Chemscore.CHOScore>
0.8441

> <Gold.PLP.Chemscore.Metal>
0.0000

> <Gold.Chemscore.Hbonds>
donor molecule, donor type, donor heavy atom, donor atom, acceptor molecule, acceptor atom, score
      L1  H     1    15       P1  2510  0.75
      L1  H     1    17       P1  1235  1.00
      L1  H     7    18       P1  1227  0.99
      L1  C     8    14       P1  1227  0.84

> <Gold.PLP.Chemscore.Internal.Correction>
0.0000

