#       Name:                EN300-6479274_i001
#       Creating user name   fsindt
#       Creation time:       Tue Feb 28 22:49:26 2023


#       File generated by GOLD software.
#

@<TRIPOS>MOLECULE
EN300-6479274_i001|amine_1|mol2|6657|dock4
    18    18     1
SMALL
USER_CHARGES


@<TRIPOS>ATOM
      1 N1           1.5928 -14.7272  10.1811 N.4            1 <1>                1.0000
      2 C2           0.5296 -14.4427   9.2082 C.3            1 <1>                0.0000
      3 C3          -0.1576 -13.1534   9.5777 C.ar           1 <1>                0.0000
      4 C4          -0.8092 -13.0519  10.7923 C.ar           1 <1>                0.0000
      5 C5          -1.4384 -11.8630  11.1253 C.ar           1 <1>                0.0000
      6 C6          -1.3885 -10.8114  10.2161 C.ar           1 <1>                0.0000
      7 O7          -1.9906  -9.6263  10.4991 O.3            1 <1>                0.0000
      8 C8          -0.7147 -10.9896   9.0163 C.ar           1 <1>                0.0000
      9 N9          -0.1246 -12.1354   8.7399 N.ar           1 <1>                0.0000
     10 H10          0.9633 -14.3509   8.2124 H              1 <1>                0.0000
     11 H11         -0.1961 -15.2560   9.2148 H              1 <1>                0.0000
     12 H12         -0.8278 -13.8895  11.4739 H              1 <1>                0.0000
     13 H13         -1.9553 -11.7556  12.0675 H              1 <1>                0.0000
     14 H14         -0.6697 -10.1797   8.3033 H              1 <1>                0.0000
     15 H15          1.2003 -14.7526  11.1103 H              1 <1>                0.0000
     16 H16          2.0127 -15.6198   9.9690 H              1 <1>                0.0000
     17 H17          2.2955 -14.0048  10.1324 H              1 <1>                0.0000
     18 H18         -1.6256  -9.1745  11.2722 H              1 <1>                0.0000
@<TRIPOS>BOND
    1    1    2 1     
    2    1   15 1     
    3    1   16 1     
    4    1   17 1     
    5    2    3 1     
    6    2   10 1     
    7    2   11 1     
    8    3    4 ar    
    9    3    9 ar    
   10    4    5 ar    
   11    4   12 1     
   12    5    6 ar    
   13    5   13 1     
   14    6    7 1     
   15    6    8 ar    
   16    7   18 1     
   17    8    9 ar    
   18    8   14 1     
@<TRIPOS>SUBSTRUCTURE
      1 ****           1
@<TRIPOS>SET
DONOR_HYDROGENS      STATIC     ATOMS    <user>   **** ""
4 15 16 17 18
ATOM$RED        STATIC     ATOMS    COLORGROUP SYSTEM
4 15 16 17 18
@<TRIPOS>COMMENT
> <Gold.Version>
2022.2.0

> <Gold.Id.Protein>
3pbl|protein|mol2

> <Gold.Protein.RotatedTorsions>
[ 1303 1298 1297 1294 ] final -135.03 input  179.99 | X-H torsion
[ 2461 2456 2455 2452 ] final   83.54 input   30.03 | X-H torsion
[ 2515 2510 2509 2506 ] final  -91.28 input  -89.99 | X-H torsion
[ 3721 3712 3711 3710 ] final -140.51 input -179.91 | X-H torsion
[ 3841 3832 3831 3830 ] final -117.06 input -179.91 | X-H torsion
[ 3767 3762 3761 3758 ] final  -98.57 input  -89.99 | X-H torsion
[ 2472 2467 2466 2463 ] final   30.68 input  -89.97 | X-H torsion

> <Gold.Protein.ActiveResidues>
 VAL82   VAL86   LEU89   PHE106  VAL107  ASP110  VAL111  MET112  CYS114  THR115 
 CYS181  SER182  ILE183  PHE188  VAL189  ILE190  SER192  SER193  SER196  TRP342 
 PHE345  PHE346  HIS349  VAL350  TYR365  THR369  GLY372  TYR373 

> <Gold.Protein.RotatedAtoms>
    4.4323   -8.4929    4.2390 H   0  0  0  0  0  0  0  0  0  0  0  0  # atno 1303 bound_to 1298
    2.1095   -8.2304    7.6457 H   0  0  0  0  0  0  0  0  0  0  0  0  # atno 2461 bound_to 2456
   -4.1761   -4.8033    7.7562 H   0  0  0  0  0  0  0  0  0  0  0  0  # atno 2472 bound_to 2467
    2.8185   -8.9477    4.6240 H   0  0  0  0  0  0  0  0  0  0  0  0  # atno 2515 bound_to 2510
   -3.3032  -16.5497   14.1288 H   0  0  0  0  0  0  0  0  0  0  0  0  # atno 3721 bound_to 3712
   -5.1276  -21.9141   11.3139 H   0  0  0  0  0  0  0  0  0  0  0  0  # atno 3767 bound_to 3762
    2.1841  -19.5873    8.4762 H   0  0  0  0  0  0  0  0  0  0  0  0  # atno 3841 bound_to 3832
    4.5947   -9.9667    4.9231 LP  0  0  0  0  0  0  0  0  0  0  0  0  # atno 4297 bound_to 1298
    3.3351   -9.6620    3.9295 LP  0  0  0  0  0  0  0  0  0  0  0  0  # atno 4298 bound_to 1298
    0.5511   -8.2899    7.1609 LP  0  0  0  0  0  0  0  0  0  0  0  0  # atno 4299 bound_to 2456
    1.0774   -9.2877    8.3415 LP  0  0  0  0  0  0  0  0  0  0  0  0  # atno 4300 bound_to 2456
    2.1375   -8.6237    6.0722 LP  0  0  0  0  0  0  0  0  0  0  0  0  # atno 4301 bound_to 2510
    2.3406   -7.4274    4.9793 LP  0  0  0  0  0  0  0  0  0  0  0  0  # atno 4302 bound_to 2510
   -3.0196  -17.6476   12.9920 LP  0  0  0  0  0  0  0  0  0  0  0  0  # atno 4306 bound_to 3712
   -2.6945  -17.9718   14.5591 LP  0  0  0  0  0  0  0  0  0  0  0  0  # atno 4307 bound_to 3712
    3.0784  -20.8864    8.7739 LP  0  0  0  0  0  0  0  0  0  0  0  0  # atno 4314 bound_to 3832
    1.6279  -20.6926    9.4985 LP  0  0  0  0  0  0  0  0  0  0  0  0  # atno 4315 bound_to 3832
   -3.9074  -22.9925   11.1903 LP  0  0  0  0  0  0  0  0  0  0  0  0  # atno 4318 bound_to 3762
   -5.0925  -22.9682   10.0671 LP  0  0  0  0  0  0  0  0  0  0  0  0  # atno 4319 bound_to 3762
   -4.0342   -5.3403    9.2917 LP  0  0  0  0  0  0  0  0  0  0  0  0  # atno 4320 bound_to 2467
   -5.5065   -5.2498    8.5911 LP  0  0  0  0  0  0  0  0  0  0  0  0  # atno 4321 bound_to 2467

> <Gold.Score>
     Score     S(PLP)   S(hbond)     S(cho)   S(metal)  DE(clash)   DE(tors)     intcor
     35.43     -26.44       2.00       1.00       0.00       0.00       0.00       0.00

> <Gold.PLP.Fitness>
35.4308

> <Gold.PLP.PLP>
-26.4431

> <Gold.PLP.part.hbond>
-1.7414

> <Gold.PLP.part.metal>
0.0000

> <Gold.PLP.part.buried>
-4.1379

> <Gold.PLP.part.nonpolar>
-21.4004

> <Gold.PLP.part.repulsive>
0.0346

> <Gold.PLP.ligand.clash>
0.0000

> <Gold.PLP.ligand.torsion>
0.0028

> <Gold.PLP.Chemscore.Hbond>
2.0000

> <Gold.PLP.Chemscore.CHOScore>
0.9977

> <Gold.PLP.Chemscore.Metal>
0.0000

> <Gold.Chemscore.Hbonds>
donor molecule, donor type, donor heavy atom, donor atom, acceptor molecule, acceptor atom, score
      L1  H     1    16       P1  1227  2.00
      L1  C     8    14       P1  2456  1.00

> <Gold.PLP.Chemscore.Internal.Correction>
0.0000

