#       Name:                EN300-6479274_i001
#       Creating user name   fsindt
#       Creation time:       Tue Feb 28 22:49:27 2023


#       File generated by GOLD software.
#

@<TRIPOS>MOLECULE
EN300-6479274_i001|amine_1|mol2|6657|dock5
    18    18     1
SMALL
USER_CHARGES


@<TRIPOS>ATOM
      1 N1           0.2926 -16.1311   9.9344 N.4            1 <1>                1.0000
      2 C2          -0.1037 -15.9550   8.5309 C.3            1 <1>                0.0000
      3 C3           0.2529 -14.5623   8.0791 C.ar           1 <1>                0.0000
      4 C4           1.0769 -14.3912   6.9827 C.ar           1 <1>                0.0000
      5 C5           1.4001 -13.1076   6.5729 C.ar           1 <1>                0.0000
      6 C6           0.8779 -12.0344   7.2875 C.ar           1 <1>                0.0000
      7 O7           1.1668 -10.7574   6.9226 O.3            1 <1>                0.0000
      8 C8           0.0576 -12.2863   8.3778 C.ar           1 <1>                0.0000
      9 N9          -0.2297 -13.5230   8.7320 N.ar           1 <1>                0.0000
     10 H10          0.4197 -16.6832   7.9114 H              1 <1>                0.0000
     11 H11         -1.1793 -16.1035   8.4358 H              1 <1>                0.0000
     12 H12          1.4645 -15.2481   6.4518 H              1 <1>                0.0000
     13 H13          2.0419 -12.9442   5.7198 H              1 <1>                0.0000
     14 H14         -0.3532 -11.4604   8.9396 H              1 <1>                0.0000
     15 H15          0.4201 -15.2270  10.3638 H              1 <1>                0.0000
     16 H16         -0.4277 -16.6384  10.4262 H              1 <1>                0.0000
     17 H17          1.1576 -16.6488   9.9772 H              1 <1>                0.0000
     18 H18          1.0131 -10.1050   7.6195 H              1 <1>                0.0000
@<TRIPOS>BOND
    1    1    2 1     
    2    1   15 1     
    3    1   16 1     
    4    1   17 1     
    5    2    3 1     
    6    2   10 1     
    7    2   11 1     
    8    3    4 ar    
    9    3    9 ar    
   10    4    5 ar    
   11    4   12 1     
   12    5    6 ar    
   13    5   13 1     
   14    6    7 1     
   15    6    8 ar    
   16    7   18 1     
   17    8    9 ar    
   18    8   14 1     
@<TRIPOS>SUBSTRUCTURE
      1 ****           1
@<TRIPOS>SET
DONOR_HYDROGENS      STATIC     ATOMS    <user>   **** ""
4 15 16 17 18
ATOM$RED        STATIC     ATOMS    COLORGROUP SYSTEM
4 15 16 17 18
@<TRIPOS>COMMENT
> <Gold.Version>
2022.2.0

> <Gold.Id.Protein>
3pbl|protein|mol2

> <Gold.Protein.RotatedTorsions>
[ 1303 1298 1297 1294 ] final  -20.58 input  179.99 | X-H torsion
[ 2461 2456 2455 2452 ] final   47.24 input   30.03 | X-H torsion
[ 2515 2510 2509 2506 ] final  -83.26 input  -89.99 | X-H torsion
[ 3721 3712 3711 3710 ] final -107.11 input -179.91 | X-H torsion
[ 3841 3832 3831 3830 ] final   74.35 input -179.91 | X-H torsion
[ 3767 3762 3761 3758 ] final -120.62 input  -89.99 | X-H torsion
[ 2472 2467 2466 2463 ] final  148.29 input  -89.97 | X-H torsion

> <Gold.Protein.ActiveResidues>
 VAL82   VAL86   LEU89   PHE106  VAL107  ASP110  VAL111  MET112  CYS114  THR115 
 CYS181  SER182  ILE183  PHE188  VAL189  ILE190  SER192  SER193  SER196  TRP342 
 PHE345  PHE346  HIS349  VAL350  TYR365  THR369  GLY372  TYR373 

> <Gold.Protein.RotatedAtoms>
    3.3296   -9.5781    3.8938 H   0  0  0  0  0  0  0  0  0  0  0  0  # atno 1303 bound_to 1298
    1.7620   -7.9615    7.2557 H   0  0  0  0  0  0  0  0  0  0  0  0  # atno 2461 bound_to 2456
   -5.5091   -5.2375    8.5539 H   0  0  0  0  0  0  0  0  0  0  0  0  # atno 2472 bound_to 2467
    2.8310   -8.8454    4.5420 H   0  0  0  0  0  0  0  0  0  0  0  0  # atno 2515 bound_to 2510
   -3.1424  -16.7654   14.5477 H   0  0  0  0  0  0  0  0  0  0  0  0  # atno 3721 bound_to 3712
   -4.8400  -21.9714   11.5240 H   0  0  0  0  0  0  0  0  0  0  0  0  # atno 3767 bound_to 3762
    2.6593  -20.9563    9.4077 H   0  0  0  0  0  0  0  0  0  0  0  0  # atno 3841 bound_to 3832
    4.5015   -8.5140    4.2947 LP  0  0  0  0  0  0  0  0  0  0  0  0  # atno 4297 bound_to 1298
    4.5313  -10.0291    4.9033 LP  0  0  0  0  0  0  0  0  0  0  0  0  # atno 4298 bound_to 1298
    0.3332   -8.7119    7.5065 LP  0  0  0  0  0  0  0  0  0  0  0  0  # atno 4299 bound_to 2456
    1.6427   -9.1345    8.3858 LP  0  0  0  0  0  0  0  0  0  0  0  0  # atno 4300 bound_to 2456
    2.1788   -8.7433    6.0353 LP  0  0  0  0  0  0  0  0  0  0  0  0  # atno 4301 bound_to 2510
    2.2867   -7.4102    5.0983 LP  0  0  0  0  0  0  0  0  0  0  0  0  # atno 4302 bound_to 2510
   -3.2925  -17.1698   13.0012 LP  0  0  0  0  0  0  0  0  0  0  0  0  # atno 4306 bound_to 3712
   -2.6072  -18.2006   14.0664 LP  0  0  0  0  0  0  0  0  0  0  0  0  # atno 4307 bound_to 3712
    1.3982  -20.0309    9.0483 LP  0  0  0  0  0  0  0  0  0  0  0  0  # atno 4314 bound_to 3832
    2.7592  -19.9667    8.1481 LP  0  0  0  0  0  0  0  0  0  0  0  0  # atno 4315 bound_to 3832
   -3.9584  -23.1940   10.8956 LP  0  0  0  0  0  0  0  0  0  0  0  0  # atno 4318 bound_to 3762
   -5.3290  -22.7095   10.1517 LP  0  0  0  0  0  0  0  0  0  0  0  0  # atno 4319 bound_to 3762
   -4.1412   -4.8051    7.7740 LP  0  0  0  0  0  0  0  0  0  0  0  0  # atno 4320 bound_to 2467
   -4.0668   -5.3510    9.3112 LP  0  0  0  0  0  0  0  0  0  0  0  0  # atno 4321 bound_to 2467

> <Gold.Score>
     Score     S(PLP)   S(hbond)     S(cho)   S(metal)  DE(clash)   DE(tors)     intcor
     36.45     -27.97       2.83       0.00       0.00       0.00       0.01       0.00

> <Gold.PLP.Fitness>
36.4507

> <Gold.PLP.PLP>
-27.9726

> <Gold.PLP.part.hbond>
-2.8627

> <Gold.PLP.part.metal>
0.0000

> <Gold.PLP.part.buried>
-2.5577

> <Gold.PLP.part.nonpolar>
-23.5215

> <Gold.PLP.part.repulsive>
0.0000

> <Gold.PLP.ligand.clash>
0.0000

> <Gold.PLP.ligand.torsion>
0.0090

> <Gold.PLP.Chemscore.Hbond>
2.8320

> <Gold.PLP.Chemscore.CHOScore>
0.0000

> <Gold.PLP.Chemscore.Metal>
0.0000

> <Gold.Chemscore.Hbonds>
donor molecule, donor type, donor heavy atom, donor atom, acceptor molecule, acceptor atom, score
      L1  H     1    17       P1  1227  2.00
      L1  H     7    18       P1  2456  0.83

> <Gold.PLP.Chemscore.Internal.Correction>
0.0000

