#       Name:                EN300-6479274_i001
#       Creating user name   fsindt
#       Creation time:       Tue Feb 28 22:49:31 2023


#       File generated by GOLD software.
#

@<TRIPOS>MOLECULE
EN300-6479274_i001|amine_1|mol2|6657|dock11
    18    18     1
SMALL
USER_CHARGES


@<TRIPOS>ATOM
      1 N1           1.5306 -15.5925  11.4155 N.4            1 <1>                1.0000
      2 C2           0.2169 -15.2134  10.8784 C.3            1 <1>                0.0000
      3 C3           0.3901 -14.1301   9.8453 C.ar           1 <1>                0.0000
      4 C4           1.2269 -14.3444   8.7664 C.ar           1 <1>                0.0000
      5 C5           1.3807 -13.3438   7.8202 C.ar           1 <1>                0.0000
      6 C6           0.6811 -12.1544   7.9961 C.ar           1 <1>                0.0000
      7 O7           0.8001 -11.1448   7.0940 O.3            1 <1>                0.0000
      8 C8          -0.1404 -12.0138   9.1054 C.ar           1 <1>                0.0000
      9 N9          -0.2631 -12.9924   9.9800 N.ar           1 <1>                0.0000
     10 H10         -0.2522 -16.0830  10.4180 H              1 <1>                0.0000
     11 H11         -0.4143 -14.8461  11.6877 H              1 <1>                0.0000
     12 H12          1.7549 -15.2808   8.6622 H              1 <1>                0.0000
     13 H13          2.0283 -13.4836   6.9673 H              1 <1>                0.0000
     14 H14         -0.6882 -11.0946   9.2516 H              1 <1>                0.0000
     15 H15          1.9550 -16.2803  10.8115 H              1 <1>                0.0000
     16 H16          2.1222 -14.7767  11.4640 H              1 <1>                0.0000
     17 H17          1.4167 -15.9810  12.3397 H              1 <1>                0.0000
     18 H18          0.9452 -10.2761   7.4929 H              1 <1>                0.0000
@<TRIPOS>BOND
    1    1    2 1     
    2    1   15 1     
    3    1   16 1     
    4    1   17 1     
    5    2    3 1     
    6    2   10 1     
    7    2   11 1     
    8    3    4 ar    
    9    3    9 ar    
   10    4    5 ar    
   11    4   12 1     
   12    5    6 ar    
   13    5   13 1     
   14    6    7 1     
   15    6    8 ar    
   16    7   18 1     
   17    8    9 ar    
   18    8   14 1     
@<TRIPOS>SUBSTRUCTURE
      1 ****           1
@<TRIPOS>SET
DONOR_HYDROGENS      STATIC     ATOMS    <user>   **** ""
4 15 16 17 18
ATOM$RED        STATIC     ATOMS    COLORGROUP SYSTEM
4 15 16 17 18
@<TRIPOS>COMMENT
> <Gold.Version>
2022.2.0

> <Gold.Id.Protein>
3pbl|protein|mol2

> <Gold.Protein.RotatedTorsions>
[ 1303 1298 1297 1294 ] final  118.83 input  179.99 | X-H torsion
[ 2461 2456 2455 2452 ] final   28.89 input   30.03 | X-H torsion
[ 2515 2510 2509 2506 ] final -165.64 input  -89.99 | X-H torsion
[ 3721 3712 3711 3710 ] final  -43.87 input -179.91 | X-H torsion
[ 3841 3832 3831 3830 ] final  -80.35 input -179.91 | X-H torsion
[ 3767 3762 3761 3758 ] final  -98.33 input  -89.99 | X-H torsion
[ 2472 2467 2466 2463 ] final  131.19 input  -89.97 | X-H torsion

> <Gold.Protein.ActiveResidues>
 VAL82   VAL86   LEU89   PHE106  VAL107  ASP110  VAL111  MET112  CYS114  THR115 
 CYS181  SER182  ILE183  PHE188  VAL189  ILE190  SER192  SER193  SER196  TRP342 
 PHE345  PHE346  HIS349  VAL350  TYR365  THR369  GLY372  TYR373 

> <Gold.Protein.RotatedAtoms>
    4.7324   -9.7873    4.9498 H   0  0  0  0  0  0  0  0  0  0  0  0  # atno 1303 bound_to 1298
    1.4976   -7.9173    7.1192 H   0  0  0  0  0  0  0  0  0  0  0  0  # atno 2461 bound_to 2456
   -5.4803   -5.1401    8.2926 H   0  0  0  0  0  0  0  0  0  0  0  0  # atno 2472 bound_to 2467
    2.4235   -9.1636    5.6705 H   0  0  0  0  0  0  0  0  0  0  0  0  # atno 2515 bound_to 2510
   -2.6869  -17.5377   14.6931 H   0  0  0  0  0  0  0  0  0  0  0  0  # atno 3721 bound_to 3712
   -5.1304  -21.9141   11.3112 H   0  0  0  0  0  0  0  0  0  0  0  0  # atno 3767 bound_to 3762
    1.7568  -19.6610    8.8067 H   0  0  0  0  0  0  0  0  0  0  0  0  # atno 3841 bound_to 3832
    3.3804   -9.8574    4.0369 LP  0  0  0  0  0  0  0  0  0  0  0  0  # atno 4297 bound_to 1298
    4.2492   -8.4764    4.1047 LP  0  0  0  0  0  0  0  0  0  0  0  0  # atno 4298 bound_to 1298
    0.3580   -8.9196    7.7226 LP  0  0  0  0  0  0  0  0  0  0  0  0  # atno 4299 bound_to 2456
    1.8822   -8.9711    8.3062 LP  0  0  0  0  0  0  0  0  0  0  0  0  # atno 4300 bound_to 2456
    2.0871   -7.5660    5.6510 LP  0  0  0  0  0  0  0  0  0  0  0  0  # atno 4301 bound_to 2510
    2.7861   -8.2692    4.3535 LP  0  0  0  0  0  0  0  0  0  0  0  0  # atno 4302 bound_to 2510
   -3.5674  -16.5724   13.7598 LP  0  0  0  0  0  0  0  0  0  0  0  0  # atno 4306 bound_to 3712
   -2.8582  -17.9063   13.1398 LP  0  0  0  0  0  0  0  0  0  0  0  0  # atno 4307 bound_to 3712
    3.0894  -20.4406    8.3680 LP  0  0  0  0  0  0  0  0  0  0  0  0  # atno 4314 bound_to 3832
    2.1105  -21.0533    9.5226 LP  0  0  0  0  0  0  0  0  0  0  0  0  # atno 4315 bound_to 3832
   -3.9075  -22.9900   11.1933 LP  0  0  0  0  0  0  0  0  0  0  0  0  # atno 4318 bound_to 3762
   -5.0896  -22.9707   10.0668 LP  0  0  0  0  0  0  0  0  0  0  0  0  # atno 4319 bound_to 3762
   -3.9153   -4.8389    7.9367 LP  0  0  0  0  0  0  0  0  0  0  0  0  # atno 4320 bound_to 2467
   -4.3215   -5.4145    9.4099 LP  0  0  0  0  0  0  0  0  0  0  0  0  # atno 4321 bound_to 2467

> <Gold.Score>
     Score     S(PLP)   S(hbond)     S(cho)   S(metal)  DE(clash)   DE(tors)     intcor
     34.69     -25.73       3.00       0.00       0.00       0.00       0.02       0.00

> <Gold.PLP.Fitness>
34.6890

> <Gold.PLP.PLP>
-25.7252

> <Gold.PLP.part.hbond>
-2.0000

> <Gold.PLP.part.metal>
0.0000

> <Gold.PLP.part.buried>
-3.9175

> <Gold.PLP.part.nonpolar>
-19.8366

> <Gold.PLP.part.repulsive>
0.0000

> <Gold.PLP.ligand.clash>
0.0000

> <Gold.PLP.ligand.torsion>
0.0182

> <Gold.PLP.Chemscore.Hbond>
3.0000

> <Gold.PLP.Chemscore.CHOScore>
0.0000

> <Gold.PLP.Chemscore.Metal>
0.0000

> <Gold.Chemscore.Hbonds>
donor molecule, donor type, donor heavy atom, donor atom, acceptor molecule, acceptor atom, score
      L1  H     1    15       P1  1227  2.00
      L1  H     7    18       P1  2456  1.00

> <Gold.PLP.Chemscore.Internal.Correction>
0.0000

