#       Name:                EN300-6479274_i001
#       Creating user name   fsindt
#       Creation time:       Tue Feb 28 22:49:26 2023


#       File generated by GOLD software.
#

@<TRIPOS>MOLECULE
EN300-6479274_i001|amine_1|mol2|6657|dock3
    18    18     1
SMALL
USER_CHARGES


@<TRIPOS>ATOM
      1 N1           1.4487 -15.3039  11.1149 N.4            1 <1>                1.0000
      2 C2           0.2030 -14.8026  10.5191 C.3            1 <1>                0.0000
      3 C3           0.5215 -14.0277   9.2664 C.ar           1 <1>                0.0000
      4 C4           0.0509 -12.7359   9.1256 C.ar           1 <1>                0.0000
      5 C5           0.3482 -12.0295   7.9712 C.ar           1 <1>                0.0000
      6 C6           1.1146 -12.6543   6.9927 C.ar           1 <1>                0.0000
      7 O7           1.4318 -12.0009   5.8440 O.3            1 <1>                0.0000
      8 C8           1.5508 -13.9540   7.2067 C.ar           1 <1>                0.0000
      9 N9           1.2502 -14.5896   8.3216 N.ar           1 <1>                0.0000
     10 H10         -0.4453 -15.6431  10.2715 H              1 <1>                0.0000
     11 H11         -0.3034 -14.1505  11.2307 H              1 <1>                0.0000
     12 H12         -0.5419 -12.2824   9.9062 H              1 <1>                0.0000
     13 H13         -0.0066 -11.0187   7.8342 H              1 <1>                0.0000
     14 H14          2.1464 -14.4485   6.4536 H              1 <1>                0.0000
     15 H15          1.6331 -16.2356  10.7744 H              1 <1>                0.0000
     16 H16          2.2121 -14.6954  10.8600 H              1 <1>                0.0000
     17 H17          1.3563 -15.3250  12.1194 H              1 <1>                0.0000
     18 H18          0.6995 -11.4976   5.4628 H              1 <1>                0.0000
@<TRIPOS>BOND
    1    1    2 1     
    2    1   15 1     
    3    1   16 1     
    4    1   17 1     
    5    2    3 1     
    6    2   10 1     
    7    2   11 1     
    8    3    4 ar    
    9    3    9 ar    
   10    4    5 ar    
   11    4   12 1     
   12    5    6 ar    
   13    5   13 1     
   14    6    7 1     
   15    6    8 ar    
   16    7   18 1     
   17    8    9 ar    
   18    8   14 1     
@<TRIPOS>SUBSTRUCTURE
      1 ****           1
@<TRIPOS>SET
DONOR_HYDROGENS      STATIC     ATOMS    <user>   **** ""
4 15 16 17 18
ATOM$RED        STATIC     ATOMS    COLORGROUP SYSTEM
4 15 16 17 18
@<TRIPOS>COMMENT
> <Gold.Version>
2022.2.0

> <Gold.Id.Protein>
3pbl|protein|mol2

> <Gold.Protein.RotatedTorsions>
[ 1303 1298 1297 1294 ] final   50.46 input  179.99 | X-H torsion
[ 2461 2456 2455 2452 ] final  158.37 input   30.03 | X-H torsion
[ 2515 2510 2509 2506 ] final   51.32 input  -89.99 | X-H torsion
[ 3721 3712 3711 3710 ] final  -57.56 input -179.91 | X-H torsion
[ 3841 3832 3831 3830 ] final   82.69 input -179.91 | X-H torsion
[ 3767 3762 3761 3758 ] final   68.44 input  -89.99 | X-H torsion
[ 2472 2467 2466 2463 ] final -121.47 input  -89.97 | X-H torsion

> <Gold.Protein.ActiveResidues>
 VAL82   VAL86   LEU89   PHE106  VAL107  ASP110  VAL111  MET112  CYS114  THR115 
 CYS181  SER182  ILE183  PHE188  VAL189  ILE190  SER192  SER193  SER196  TRP342 
 PHE345  PHE346  HIS349  VAL350  TYR365  THR369  GLY372  TYR373 

> <Gold.Protein.RotatedAtoms>
    3.8798  -10.2672    4.5436 H   0  0  0  0  0  0  0  0  0  0  0  0  # atno 1303 bound_to 1298
    1.7653   -9.0615    8.3557 H   0  0  0  0  0  0  0  0  0  0  0  0  # atno 2461 bound_to 2456
   -4.5254   -5.4463    9.4337 H   0  0  0  0  0  0  0  0  0  0  0  0  # atno 2472 bound_to 2467
    2.1968   -7.4254    5.3195 H   0  0  0  0  0  0  0  0  0  0  0  0  # atno 2515 bound_to 2510
   -2.7822  -17.3629   14.7482 H   0  0  0  0  0  0  0  0  0  0  0  0  # atno 3721 bound_to 3712
   -4.4546  -23.3139   10.2656 H   0  0  0  0  0  0  0  0  0  0  0  0  # atno 3767 bound_to 3762
    2.7606  -20.9441    9.3341 H   0  0  0  0  0  0  0  0  0  0  0  0  # atno 3841 bound_to 3832
    3.5884   -8.8483    3.7898 LP  0  0  0  0  0  0  0  0  0  0  0  0  # atno 4297 bound_to 1298
    4.8940   -9.0055    4.7581 LP  0  0  0  0  0  0  0  0  0  0  0  0  # atno 4298 bound_to 1298
    1.6391   -7.9318    7.1830 LP  0  0  0  0  0  0  0  0  0  0  0  0  # atno 4299 bound_to 2456
    0.3335   -8.8150    7.6096 LP  0  0  0  0  0  0  0  0  0  0  0  0  # atno 4300 bound_to 2456
    2.8339   -8.6354    4.4275 LP  0  0  0  0  0  0  0  0  0  0  0  0  # atno 4301 bound_to 2510
    2.2662   -8.9388    5.9282 LP  0  0  0  0  0  0  0  0  0  0  0  0  # atno 4302 bound_to 2510
   -3.5508  -16.6353   13.5409 LP  0  0  0  0  0  0  0  0  0  0  0  0  # atno 4306 bound_to 3712
   -2.7648  -18.0453   13.2950 LP  0  0  0  0  0  0  0  0  0  0  0  0  # atno 4307 bound_to 3712
    1.3896  -20.1316    9.1438 LP  0  0  0  0  0  0  0  0  0  0  0  0  # atno 4314 bound_to 3832
    2.6508  -19.8800    8.1376 LP  0  0  0  0  0  0  0  0  0  0  0  0  # atno 4315 bound_to 3832
   -5.4952  -22.1306   10.6943 LP  0  0  0  0  0  0  0  0  0  0  0  0  # atno 4318 bound_to 3762
   -4.1775  -22.4308   11.6110 LP  0  0  0  0  0  0  0  0  0  0  0  0  # atno 4319 bound_to 3762
   -5.4069   -5.0664    8.1127 LP  0  0  0  0  0  0  0  0  0  0  0  0  # atno 4320 bound_to 2467
   -3.7846   -4.8808    8.0929 LP  0  0  0  0  0  0  0  0  0  0  0  0  # atno 4321 bound_to 2467

> <Gold.Score>
     Score     S(PLP)   S(hbond)     S(cho)   S(metal)  DE(clash)   DE(tors)     intcor
     34.64     -25.72       2.00       1.00       0.00       0.00       0.04       0.00

> <Gold.PLP.Fitness>
34.6360

> <Gold.PLP.PLP>
-25.7155

> <Gold.PLP.part.hbond>
-1.0000

> <Gold.PLP.part.metal>
0.0000

> <Gold.PLP.part.buried>
-4.5917

> <Gold.PLP.part.nonpolar>
-21.3413

> <Gold.PLP.part.repulsive>
0.1661

> <Gold.PLP.ligand.clash>
0.0000

> <Gold.PLP.ligand.torsion>
0.0398

> <Gold.PLP.Chemscore.Hbond>
2.0000

> <Gold.PLP.Chemscore.CHOScore>
1.0000

> <Gold.PLP.Chemscore.Metal>
0.0000

> <Gold.Chemscore.Hbonds>
donor molecule, donor type, donor heavy atom, donor atom, acceptor molecule, acceptor atom, score
      L1  H     1    15       P1  1227  2.00
      L1  C     8    14       P1  1223  1.00

> <Gold.PLP.Chemscore.Internal.Correction>
0.0001

