#       Name:                EN300-6479274_i001
#       Creating user name   fsindt
#       Creation time:       Tue Feb 28 22:49:33 2023


#       File generated by GOLD software.
#

@<TRIPOS>MOLECULE
EN300-6479274_i001|amine_1|mol2|6657|dock15
    18    18     1
SMALL
USER_CHARGES


@<TRIPOS>ATOM
      1 N1          -0.0085 -10.8067   8.0942 N.4            1 <1>                1.0000
      2 C2          -0.4102 -11.2447   9.4376 C.3            1 <1>                0.0000
      3 C3          -1.8956 -11.0535   9.6051 C.ar           1 <1>                0.0000
      4 C4          -2.3936  -9.7953   9.8865 C.ar           1 <1>                0.0000
      5 C5          -3.7607  -9.6272  10.0386 C.ar           1 <1>                0.0000
      6 C6          -4.5830 -10.7407   9.9010 C.ar           1 <1>                0.0000
      7 O7          -5.9299 -10.6245  10.0412 O.3            1 <1>                0.0000
      8 C8          -4.0085 -11.9716   9.6182 C.ar           1 <1>                0.0000
      9 N9          -2.7033 -12.0880   9.4760 N.ar           1 <1>                0.0000
     10 H10         -0.1628 -12.2985   9.5654 H              1 <1>                0.0000
     11 H11          0.1187 -10.6541  10.1857 H              1 <1>                0.0000
     12 H12         -1.7251  -8.9531   9.9867 H              1 <1>                0.0000
     13 H13         -4.1775  -8.6556  10.2590 H              1 <1>                0.0000
     14 H14         -4.6378 -12.8426   9.5093 H              1 <1>                0.0000
     15 H15          0.4772  -9.9246   8.1595 H              1 <1>                0.0000
     16 H16          0.6021 -11.4972   7.6840 H              1 <1>                0.0000
     17 H17         -0.8286 -10.6972   7.5168 H              1 <1>                0.0000
     18 H18         -6.4190 -10.6919   9.2099 H              1 <1>                0.0000
@<TRIPOS>BOND
    1    1    2 1     
    2    1   15 1     
    3    1   16 1     
    4    1   17 1     
    5    2    3 1     
    6    2   10 1     
    7    2   11 1     
    8    3    4 ar    
    9    3    9 ar    
   10    4    5 ar    
   11    4   12 1     
   12    5    6 ar    
   13    5   13 1     
   14    6    7 1     
   15    6    8 ar    
   16    7   18 1     
   17    8    9 ar    
   18    8   14 1     
@<TRIPOS>SUBSTRUCTURE
      1 ****           1
@<TRIPOS>SET
DONOR_HYDROGENS      STATIC     ATOMS    <user>   **** ""
4 15 16 17 18
ATOM$RED        STATIC     ATOMS    COLORGROUP SYSTEM
4 15 16 17 18
@<TRIPOS>COMMENT
> <Gold.Version>
2022.2.0

> <Gold.Id.Protein>
3pbl|protein|mol2

> <Gold.Protein.RotatedTorsions>
[ 1303 1298 1297 1294 ] final   67.93 input  179.99 | X-H torsion
[ 2461 2456 2455 2452 ] final   35.55 input   30.03 | X-H torsion
[ 2515 2510 2509 2506 ] final   51.83 input  -89.99 | X-H torsion
[ 3721 3712 3711 3710 ] final  133.31 input -179.91 | X-H torsion
[ 3841 3832 3831 3830 ] final -125.70 input -179.91 | X-H torsion
[ 3767 3762 3761 3758 ] final   44.14 input  -89.99 | X-H torsion
[ 2472 2467 2466 2463 ] final  151.48 input  -89.97 | X-H torsion

> <Gold.Protein.ActiveResidues>
 VAL82   VAL86   LEU89   PHE106  VAL107  ASP110  VAL111  MET112  CYS114  THR115 
 CYS181  SER182  ILE183  PHE188  VAL189  ILE190  SER192  SER193  SER196  TRP342 
 PHE345  PHE346  HIS349  VAL350  TYR365  THR369  GLY372  TYR373 

> <Gold.Protein.RotatedAtoms>
    4.1172  -10.2532    4.7031 H   0  0  0  0  0  0  0  0  0  0  0  0  # atno 1303 bound_to 1298
    1.5980   -7.9254    7.1623 H   0  0  0  0  0  0  0  0  0  0  0  0  # atno 2461 bound_to 2456
   -5.5052   -5.2549    8.6033 H   0  0  0  0  0  0  0  0  0  0  0  0  # atno 2472 bound_to 2467
    2.1939   -7.4270    5.3273 H   0  0  0  0  0  0  0  0  0  0  0  0  # atno 2515 bound_to 2510
   -3.1030  -17.0617   13.0808 H   0  0  0  0  0  0  0  0  0  0  0  0  # atno 3721 bound_to 3712
   -4.7903  -23.1815   10.1001 H   0  0  0  0  0  0  0  0  0  0  0  0  # atno 3767 bound_to 3762
    2.3015  -19.6105    8.4243 H   0  0  0  0  0  0  0  0  0  0  0  0  # atno 3841 bound_to 3832
    3.4372   -9.0912    3.7791 LP  0  0  0  0  0  0  0  0  0  0  0  0  # atno 4297 bound_to 1298
    4.8077   -8.7765    4.6093 LP  0  0  0  0  0  0  0  0  0  0  0  0  # atno 4298 bound_to 1298
    0.3382   -8.8469    7.6431 LP  0  0  0  0  0  0  0  0  0  0  0  0  # atno 4299 bound_to 2456
    1.8017   -9.0357    8.3426 LP  0  0  0  0  0  0  0  0  0  0  0  0  # atno 4300 bound_to 2456
    2.8335   -8.6276    4.4243 LP  0  0  0  0  0  0  0  0  0  0  0  0  # atno 4301 bound_to 2510
    2.2695   -8.9450    5.9236 LP  0  0  0  0  0  0  0  0  0  0  0  0  # atno 4302 bound_to 2510
   -2.6083  -18.1922   14.1080 LP  0  0  0  0  0  0  0  0  0  0  0  0  # atno 4306 bound_to 3712
   -3.3368  -16.8361   14.6531 LP  0  0  0  0  0  0  0  0  0  0  0  0  # atno 4307 bound_to 3712
    3.0255  -20.9685    8.8801 LP  0  0  0  0  0  0  0  0  0  0  0  0  # atno 4314 bound_to 3832
    1.5452  -20.5838    9.4523 LP  0  0  0  0  0  0  0  0  0  0  0  0  # atno 4315 bound_to 3832
   -5.3596  -21.9645   11.0283 LP  0  0  0  0  0  0  0  0  0  0  0  0  # atno 4318 bound_to 3762
   -3.9775  -22.7292   11.4424 LP  0  0  0  0  0  0  0  0  0  0  0  0  # atno 4319 bound_to 3762
   -4.1882   -4.8020    7.7509 LP  0  0  0  0  0  0  0  0  0  0  0  0  # atno 4320 bound_to 2467
   -4.0237   -5.3367    9.2850 LP  0  0  0  0  0  0  0  0  0  0  0  0  # atno 4321 bound_to 2467

> <Gold.Score>
     Score     S(PLP)   S(hbond)     S(cho)   S(metal)  DE(clash)   DE(tors)     intcor
     34.02     -29.11       1.82       0.00       0.00       0.00       0.27       0.00

> <Gold.PLP.Fitness>
34.0179

> <Gold.PLP.PLP>
-29.1128

> <Gold.PLP.part.hbond>
-3.0000

> <Gold.PLP.part.metal>
0.0000

> <Gold.PLP.part.buried>
2.8673

> <Gold.PLP.part.nonpolar>
-30.1365

> <Gold.PLP.part.repulsive>
0.0250

> <Gold.PLP.ligand.clash>
0.0000

> <Gold.PLP.ligand.torsion>
0.2715

> <Gold.PLP.Chemscore.Hbond>
1.8160

> <Gold.PLP.Chemscore.CHOScore>
0.0000

> <Gold.PLP.Chemscore.Metal>
0.0000

> <Gold.Chemscore.Hbonds>
donor molecule, donor type, donor heavy atom, donor atom, acceptor molecule, acceptor atom, score
      L1  H     1    15       P1  2456  1.00
      L1  H     7    18       P1  3417  0.82

> <Gold.PLP.Chemscore.Internal.Correction>
0.0000

