#       Name:                EN300-6479274_i001
#       Creating user name   fsindt
#       Creation time:       Tue Feb 28 22:49:33 2023


#       File generated by GOLD software.
#

@<TRIPOS>MOLECULE
EN300-6479274_i001|amine_1|mol2|6657|dock14
    18    18     1
SMALL
USER_CHARGES


@<TRIPOS>ATOM
      1 N1           2.3298 -11.2234   6.1401 N.4            1 <1>                1.0000
      2 C2           1.0683 -11.9685   6.0335 C.3            1 <1>                0.0000
      3 C3           0.9599 -12.9395   7.1808 C.ar           1 <1>                0.0000
      4 C4           0.8023 -14.2877   6.9203 C.ar           1 <1>                0.0000
      5 C5           0.7038 -15.1747   7.9805 C.ar           1 <1>                0.0000
      6 C6           0.7679 -14.6680   9.2744 C.ar           1 <1>                0.0000
      7 O7           0.6763 -15.4995  10.3455 O.3            1 <1>                0.0000
      8 C8           0.9273 -13.3017   9.4557 C.ar           1 <1>                0.0000
      9 N9           1.0220 -12.4921   8.4198 N.ar           1 <1>                0.0000
     10 H10          0.2308 -11.2717   6.0667 H              1 <1>                0.0000
     11 H11          1.0483 -12.5159   5.0911 H              1 <1>                0.0000
     12 H12          0.7563 -14.6457   5.9024 H              1 <1>                0.0000
     13 H13          0.5799 -16.2333   7.8065 H              1 <1>                0.0000
     14 H14          0.9783 -12.8977  10.4560 H              1 <1>                0.0000
     15 H15          3.0534 -11.7134   5.6358 H              1 <1>                0.0000
     16 H16          2.2105 -10.3020   5.7464 H              1 <1>                0.0000
     17 H17          2.5920 -11.1429   7.1111 H              1 <1>                0.0000
     18 H18          1.3830 -16.1577  10.3940 H              1 <1>                0.0000
@<TRIPOS>BOND
    1    1    2 1     
    2    1   15 1     
    3    1   16 1     
    4    1   17 1     
    5    2    3 1     
    6    2   10 1     
    7    2   11 1     
    8    3    4 ar    
    9    3    9 ar    
   10    4    5 ar    
   11    4   12 1     
   12    5    6 ar    
   13    5   13 1     
   14    6    7 1     
   15    6    8 ar    
   16    7   18 1     
   17    8    9 ar    
   18    8   14 1     
@<TRIPOS>SUBSTRUCTURE
      1 ****           1
@<TRIPOS>SET
DONOR_HYDROGENS      STATIC     ATOMS    <user>   **** ""
4 15 16 17 18
ATOM$RED        STATIC     ATOMS    COLORGROUP SYSTEM
4 15 16 17 18
@<TRIPOS>COMMENT
> <Gold.Version>
2022.2.0

> <Gold.Id.Protein>
3pbl|protein|mol2

> <Gold.Protein.RotatedTorsions>
[ 1303 1298 1297 1294 ] final  -75.88 input  179.99 | X-H torsion
[ 2461 2456 2455 2452 ] final  -12.56 input   30.03 | X-H torsion
[ 2515 2510 2509 2506 ] final    8.02 input  -89.99 | X-H torsion
[ 3721 3712 3711 3710 ] final -155.40 input -179.91 | X-H torsion
[ 3841 3832 3831 3830 ] final  -94.66 input -179.91 | X-H torsion
[ 3767 3762 3761 3758 ] final -167.25 input  -89.99 | X-H torsion
[ 2472 2467 2466 2463 ] final  -48.53 input  -89.97 | X-H torsion

> <Gold.Protein.ActiveResidues>
 VAL82   VAL86   LEU89   PHE106  VAL107  ASP110  VAL111  MET112  CYS114  THR115 
 CYS181  SER182  ILE183  PHE188  VAL189  ILE190  SER192  SER193  SER196  TRP342 
 PHE345  PHE346  HIS349  VAL350  TYR365  THR369  GLY372  TYR373 

> <Gold.Protein.RotatedAtoms>
    3.6562   -8.7711    3.8076 H   0  0  0  0  0  0  0  0  0  0  0  0  # atno 1303 bound_to 1298
    0.8518   -8.0693    7.0456 H   0  0  0  0  0  0  0  0  0  0  0  0  # atno 2461 bound_to 2456
   -3.6631   -5.1215    8.7956 H   0  0  0  0  0  0  0  0  0  0  0  0  # atno 2472 bound_to 2467
    2.4856   -7.5524    4.6998 H   0  0  0  0  0  0  0  0  0  0  0  0  # atno 2515 bound_to 2510
   -3.3341  -16.5301   13.9074 H   0  0  0  0  0  0  0  0  0  0  0  0  # atno 3721 bound_to 3712
   -4.2236  -22.3794   11.6272 H   0  0  0  0  0  0  0  0  0  0  0  0  # atno 3767 bound_to 3762
    1.9034  -19.5995    8.6609 H   0  0  0  0  0  0  0  0  0  0  0  0  # atno 3841 bound_to 3832
    4.9079   -9.0984    4.8038 LP  0  0  0  0  0  0  0  0  0  0  0  0  # atno 4297 bound_to 1298
    3.7983  -10.2521    4.4804 LP  0  0  0  0  0  0  0  0  0  0  0  0  # atno 4298 bound_to 1298
    0.7275   -9.2429    8.1746 LP  0  0  0  0  0  0  0  0  0  0  0  0  # atno 4299 bound_to 2456
    2.1584   -8.4958    7.9277 LP  0  0  0  0  0  0  0  0  0  0  0  0  # atno 4300 bound_to 2456
    2.7521   -9.1524    4.8857 LP  0  0  0  0  0  0  0  0  0  0  0  0  # atno 4301 bound_to 2510
    2.0590   -8.2947    6.0900 LP  0  0  0  0  0  0  0  0  0  0  0  0  # atno 4302 bound_to 2510
   -2.8997  -17.8417   13.0894 LP  0  0  0  0  0  0  0  0  0  0  0  0  # atno 4306 bound_to 3712
   -2.7787  -17.8003   14.7174 LP  0  0  0  0  0  0  0  0  0  0  0  0  # atno 4307 bound_to 3712
    3.1272  -20.6273    8.5117 LP  0  0  0  0  0  0  0  0  0  0  0  0  # atno 4314 bound_to 3832
    1.9034  -20.9376    9.5473 LP  0  0  0  0  0  0  0  0  0  0  0  0  # atno 4315 bound_to 3832
   -4.3986  -23.3253   10.3075 LP  0  0  0  0  0  0  0  0  0  0  0  0  # atno 4318 bound_to 3762
   -5.5050  -22.1702   10.6366 LP  0  0  0  0  0  0  0  0  0  0  0  0  # atno 4319 bound_to 3762
   -5.2260   -5.4238    9.1595 LP  0  0  0  0  0  0  0  0  0  0  0  0  # atno 4320 bound_to 2467
   -4.8277   -4.8482    7.6841 LP  0  0  0  0  0  0  0  0  0  0  0  0  # atno 4321 bound_to 2467

> <Gold.Score>
     Score     S(PLP)   S(hbond)     S(cho)   S(metal)  DE(clash)   DE(tors)     intcor
     35.41     -28.07       2.45       0.00       0.00       0.00       0.01       0.00

> <Gold.PLP.Fitness>
35.4087

> <Gold.PLP.PLP>
-28.0740

> <Gold.PLP.part.hbond>
-3.2298

> <Gold.PLP.part.metal>
0.0000

> <Gold.PLP.part.buried>
-1.7246

> <Gold.PLP.part.nonpolar>
-24.4035

> <Gold.PLP.part.repulsive>
0.0708

> <Gold.PLP.ligand.clash>
0.0000

> <Gold.PLP.ligand.torsion>
0.0077

> <Gold.PLP.Chemscore.Hbond>
2.4500

> <Gold.PLP.Chemscore.CHOScore>
0.0000

> <Gold.PLP.Chemscore.Metal>
0.0000

> <Gold.Chemscore.Hbonds>
donor molecule, donor type, donor heavy atom, donor atom, acceptor molecule, acceptor atom, score
      L1  H     1    15       P1  1235  1.00
      L1  H     1    16       P1  2510  0.45
      L1  H     7    18       P1  1227  1.00

> <Gold.PLP.Chemscore.Internal.Correction>
0.0000

