#       Name:                EN300-6479274_i001
#       Creating user name   fsindt
#       Creation time:       Tue Feb 28 22:49:24 2023


#       File generated by GOLD software.
#

@<TRIPOS>MOLECULE
EN300-6479274_i001
    18    18     1
SMALL
USER_CHARGES


@<TRIPOS>ATOM
      1 N1           2.6011  -0.2121   0.7356 N.4            1 <1>                1.0000
      2 C2           1.9073  -0.0576  -0.5500 C.3            1 <1>                0.0000
      3 C3           0.4178  -0.0695  -0.3217 C.ar           1 <1>                0.0000
      4 C4          -0.2605   1.1269  -0.1845 C.ar           1 <1>                0.0000
      5 C5          -1.6302   1.1080   0.0247 C.ar           1 <1>                0.0000
      6 C6          -2.2722  -0.1244   0.0888 C.ar           1 <1>                0.0000
      7 O7          -3.6143  -0.1927   0.2920 O.3            1 <1>                0.0000
      8 C8          -1.5228  -1.2828  -0.0582 C.ar           1 <1>                0.0000
      9 N9          -0.2218  -1.2212  -0.2609 N.ar           1 <1>                0.0000
     10 H10          2.1972   0.8881  -1.0080 H              1 <1>                0.0000
     11 H11          2.1801  -0.8801  -1.2112 H              1 <1>                0.0000
     12 H12          0.2709   2.0655  -0.2395 H              1 <1>                0.0000
     13 H13         -2.1857   2.0275   0.1357 H              1 <1>                0.0000
     14 H14         -2.0112  -2.2449  -0.0102 H              1 <1>                0.0000
     15 H15          2.3485   0.5493   1.3476 H              1 <1>                0.0000
     16 H16          2.3327  -1.0875   1.1595 H              1 <1>                0.0000
     17 H17          3.5984  -0.2041   0.5827 H              1 <1>                0.0000
     18 H18         -4.1360  -0.1884  -0.5221 H              1 <1>                0.0000
@<TRIPOS>BOND
    1    1    2 1     
    2    1   15 1     
    3    1   16 1     
    4    1   17 1     
    5    2    3 1     
    6    2   10 1     
    7    2   11 1     
    8    3    4 ar    
    9    3    9 ar    
   10    4    5 ar    
   11    4   12 1     
   12    5    6 ar    
   13    5   13 1     
   14    6    7 1     
   15    6    8 ar    
   16    7   18 1     
   17    8    9 ar    
   18    8   14 1     
@<TRIPOS>SUBSTRUCTURE
      1 ****           1
@<TRIPOS>SET
DONOR_HYDROGENS      STATIC     ATOMS    <user>   **** ""
4 15 16 17 18
ATOM$RED        STATIC     ATOMS    COLORGROUP SYSTEM
4 15 16 17 18
