#       Name:                EN300-6479274_i001
#       Creating user name   fsindt
#       Creation time:       Tue Feb 28 22:49:29 2023


#       File generated by GOLD software.
#

@<TRIPOS>MOLECULE
EN300-6479274_i001|amine_1|mol2|6657|dock9
    18    18     1
SMALL
USER_CHARGES


@<TRIPOS>ATOM
      1 N1           0.6200 -10.5363   9.9257 N.4            1 <1>                1.0000
      2 C2          -0.4118 -11.5775   9.8284 C.3            1 <1>                0.0000
      3 C3           0.1162 -12.7339   9.0192 C.ar           1 <1>                0.0000
      4 C4           0.5172 -12.5253   7.7131 C.ar           1 <1>                0.0000
      5 C5           1.0020 -13.5934   6.9753 C.ar           1 <1>                0.0000
      6 C6           1.0658 -14.8425   7.5841 C.ar           1 <1>                0.0000
      7 O7           1.5346 -15.9195   6.9003 O.3            1 <1>                0.0000
      8 C8           0.6446 -14.9731   8.8996 C.ar           1 <1>                0.0000
      9 N9           0.1943 -13.9303   9.5685 N.ar           1 <1>                0.0000
     10 H10         -0.6743 -11.9234  10.8282 H              1 <1>                0.0000
     11 H11         -1.2968 -11.1676   9.3418 H              1 <1>                0.0000
     12 H12          0.4532 -11.5413   7.2726 H              1 <1>                0.0000
     13 H13          1.3221 -13.4595   5.9526 H              1 <1>                0.0000
     14 H14          0.6899 -15.9384   9.3820 H              1 <1>                0.0000
     15 H15          0.7481 -10.1045   9.0228 H              1 <1>                0.0000
     16 H16          0.3312  -9.8381  10.5944 H              1 <1>                0.0000
     17 H17          1.4892 -10.9512  10.2265 H              1 <1>                0.0000
     18 H18          2.4850 -15.8904   6.7244 H              1 <1>                0.0000
@<TRIPOS>BOND
    1    1    2 1     
    2    1   15 1     
    3    1   16 1     
    4    1   17 1     
    5    2    3 1     
    6    2   10 1     
    7    2   11 1     
    8    3    4 ar    
    9    3    9 ar    
   10    4    5 ar    
   11    4   12 1     
   12    5    6 ar    
   13    5   13 1     
   14    6    7 1     
   15    6    8 ar    
   16    7   18 1     
   17    8    9 ar    
   18    8   14 1     
@<TRIPOS>SUBSTRUCTURE
      1 ****           1
@<TRIPOS>SET
DONOR_HYDROGENS      STATIC     ATOMS    <user>   **** ""
4 15 16 17 18
ATOM$RED        STATIC     ATOMS    COLORGROUP SYSTEM
4 15 16 17 18
@<TRIPOS>COMMENT
> <Gold.Version>
2022.2.0

> <Gold.Id.Protein>
3pbl|protein|mol2

> <Gold.Protein.RotatedTorsions>
[ 1303 1298 1297 1294 ] final  130.45 input  179.99 | X-H torsion
[ 2461 2456 2455 2452 ] final   70.66 input   30.03 | X-H torsion
[ 2515 2510 2509 2506 ] final   81.65 input  -89.99 | X-H torsion
[ 3721 3712 3711 3710 ] final   33.72 input -179.91 | X-H torsion
[ 3841 3832 3831 3830 ] final  -21.06 input -179.91 | X-H torsion
[ 3767 3762 3761 3758 ] final  -53.22 input  -89.99 | X-H torsion
[ 2472 2467 2466 2463 ] final  176.19 input  -89.97 | X-H torsion

> <Gold.Protein.ActiveResidues>
 VAL82   VAL86   LEU89   PHE106  VAL107  ASP110  VAL111  MET112  CYS114  THR115 
 CYS181  SER182  ILE183  PHE188  VAL189  ILE190  SER192  SER193  SER196  TRP342 
 PHE345  PHE346  HIS349  VAL350  TYR365  THR369  GLY372  TYR373 

> <Gold.Protein.RotatedAtoms>
    4.8208   -9.6184    4.9457 H   0  0  0  0  0  0  0  0  0  0  0  0  # atno 1303 bound_to 1298
    2.0200   -8.1113    7.4954 H   0  0  0  0  0  0  0  0  0  0  0  0  # atno 2461 bound_to 2456
   -5.3802   -5.3726    8.9682 H   0  0  0  0  0  0  0  0  0  0  0  0  # atno 2472 bound_to 2467
    2.0636   -7.6380    5.7440 H   0  0  0  0  0  0  0  0  0  0  0  0  # atno 2515 bound_to 2510
   -2.4902  -18.0280   13.7450 H   0  0  0  0  0  0  0  0  0  0  0  0  # atno 3721 bound_to 3712
   -5.4899  -22.1153   10.7166 H   0  0  0  0  0  0  0  0  0  0  0  0  # atno 3767 bound_to 3762
    1.5996  -20.2375    9.4202 H   0  0  0  0  0  0  0  0  0  0  0  0  # atno 3841 bound_to 3832
    3.4517   -9.9999    4.1417 LP  0  0  0  0  0  0  0  0  0  0  0  0  # atno 4297 bound_to 1298
    4.0894   -8.5029    4.0039 LP  0  0  0  0  0  0  0  0  0  0  0  0  # atno 4298 bound_to 1298
    0.4357   -8.4339    7.2645 LP  0  0  0  0  0  0  0  0  0  0  0  0  # atno 4299 bound_to 2456
    1.2823   -9.2629    8.3882 LP  0  0  0  0  0  0  0  0  0  0  0  0  # atno 4300 bound_to 2456
    2.7586   -8.1527    4.3591 LP  0  0  0  0  0  0  0  0  0  0  0  0  # atno 4301 bound_to 2510
    2.4747   -9.2087    5.5719 LP  0  0  0  0  0  0  0  0  0  0  0  0  # atno 4302 bound_to 2510
   -3.2024  -17.0482   14.7989 LP  0  0  0  0  0  0  0  0  0  0  0  0  # atno 4306 bound_to 3712
   -3.4503  -16.8644   13.1953 LP  0  0  0  0  0  0  0  0  0  0  0  0  # atno 4307 bound_to 3712
    2.4618  -19.7650    8.1516 LP  0  0  0  0  0  0  0  0  0  0  0  0  # atno 4314 bound_to 3832
    2.9197  -21.0630    9.0303 LP  0  0  0  0  0  0  0  0  0  0  0  0  # atno 4315 bound_to 3832
   -4.1603  -22.4506   11.6035 LP  0  0  0  0  0  0  0  0  0  0  0  0  # atno 4318 bound_to 3762
   -4.4774  -23.3089   10.2509 LP  0  0  0  0  0  0  0  0  0  0  0  0  # atno 4319 bound_to 3762
   -4.5808   -4.8121    7.6593 LP  0  0  0  0  0  0  0  0  0  0  0  0  # atno 4320 bound_to 2467
   -3.7561   -5.2088    9.0117 LP  0  0  0  0  0  0  0  0  0  0  0  0  # atno 4321 bound_to 2467

> <Gold.Score>
     Score     S(PLP)   S(hbond)     S(cho)   S(metal)  DE(clash)   DE(tors)     intcor
     36.19     -27.40       1.96       0.97       0.00       0.00       0.00       0.00

> <Gold.PLP.Fitness>
36.1892

> <Gold.PLP.PLP>
-27.3985

> <Gold.PLP.part.hbond>
-2.2171

> <Gold.PLP.part.metal>
0.0000

> <Gold.PLP.part.buried>
-3.1035

> <Gold.PLP.part.nonpolar>
-22.8003

> <Gold.PLP.part.repulsive>
0.0329

> <Gold.PLP.ligand.clash>
0.0000

> <Gold.PLP.ligand.torsion>
0.0000

> <Gold.PLP.Chemscore.Hbond>
1.9600

> <Gold.PLP.Chemscore.CHOScore>
0.9703

> <Gold.PLP.Chemscore.Metal>
0.0000

> <Gold.Chemscore.Hbonds>
donor molecule, donor type, donor heavy atom, donor atom, acceptor molecule, acceptor atom, score
      L1  H     1    15       P1  2456  0.96
      L1  H     7    18       P1  1223  1.00
      L1  C     8    14       P1  1227  0.97

> <Gold.PLP.Chemscore.Internal.Correction>
0.0000

