#       Name:                EN300-6479274_i001
#       Creating user name   fsindt
#       Creation time:       Tue Feb 28 22:49:25 2023


#       File generated by GOLD software.
#

@<TRIPOS>MOLECULE
EN300-6479274_i001|amine_1|mol2|6657|dock2
    18    18     1
SMALL
USER_CHARGES


@<TRIPOS>ATOM
      1 N1           2.1250 -15.3003  10.9587 N.4            1 <1>                1.0000
      2 C2           0.8193 -14.6979  10.6581 C.3            1 <1>                0.0000
      3 C3           0.9125 -13.9099   9.3770 C.ar           1 <1>                0.0000
      4 C4           1.1764 -14.5671   8.1900 C.ar           1 <1>                0.0000
      5 C5           1.2601 -13.8358   7.0159 C.ar           1 <1>                0.0000
      6 C6           1.0739 -12.4588   7.0801 C.ar           1 <1>                0.0000
      7 O7           1.1464 -11.7002   5.9547 O.3            1 <1>                0.0000
      8 C8           0.8125 -11.8709   8.3094 C.ar           1 <1>                0.0000
      9 N9           0.7359 -12.6033   9.4026 N.ar           1 <1>                0.0000
     10 H10          0.0730 -15.4847  10.5473 H              1 <1>                0.0000
     11 H11          0.5292 -14.0342  11.4726 H              1 <1>                0.0000
     12 H12          1.3158 -15.6379   8.1778 H              1 <1>                0.0000
     13 H13          1.4654 -14.3229   6.0742 H              1 <1>                0.0000
     14 H14          0.6662 -10.8025   8.3705 H              1 <1>                0.0000
     15 H15          2.2368 -15.3788  11.9584 H              1 <1>                0.0000
     16 H16          2.1762 -16.2175  10.5415 H              1 <1>                0.0000
     17 H17          2.8585 -14.7182  10.5829 H              1 <1>                0.0000
     18 H18          1.8499 -11.0371   5.9720 H              1 <1>                0.0000
@<TRIPOS>BOND
    1    1    2 1     
    2    1   15 1     
    3    1   16 1     
    4    1   17 1     
    5    2    3 1     
    6    2   10 1     
    7    2   11 1     
    8    3    4 ar    
    9    3    9 ar    
   10    4    5 ar    
   11    4   12 1     
   12    5    6 ar    
   13    5   13 1     
   14    6    7 1     
   15    6    8 ar    
   16    7   18 1     
   17    8    9 ar    
   18    8   14 1     
@<TRIPOS>SUBSTRUCTURE
      1 ****           1
@<TRIPOS>SET
DONOR_HYDROGENS      STATIC     ATOMS    <user>   **** ""
4 15 16 17 18
ATOM$RED        STATIC     ATOMS    COLORGROUP SYSTEM
4 15 16 17 18
@<TRIPOS>COMMENT
> <Gold.Version>
2022.2.0

> <Gold.Id.Protein>
3pbl|protein|mol2

> <Gold.Protein.RotatedTorsions>
[ 1303 1298 1297 1294 ] final  -50.72 input  179.99 | X-H torsion
[ 2461 2456 2455 2452 ] final   77.76 input   30.03 | X-H torsion
[ 2515 2510 2509 2506 ] final -123.93 input  -89.99 | X-H torsion
[ 3721 3712 3711 3710 ] final  -66.51 input -179.91 | X-H torsion
[ 3841 3832 3831 3830 ] final  -41.12 input -179.91 | X-H torsion
[ 3767 3762 3761 3758 ] final   11.07 input  -89.99 | X-H torsion
[ 2472 2467 2466 2463 ] final  153.36 input  -89.97 | X-H torsion

> <Gold.Protein.ActiveResidues>
 VAL82   VAL86   LEU89   PHE106  VAL107  ASP110  VAL111  MET112  CYS114  THR115 
 CYS181  SER182  ILE183  PHE188  VAL189  ILE190  SER192  SER193  SER196  TRP342 
 PHE345  PHE346  HIS349  VAL350  TYR365  THR369  GLY372  TYR373 

> <Gold.Protein.RotatedAtoms>
    3.4279   -9.1114    3.7810 H   0  0  0  0  0  0  0  0  0  0  0  0  # atno 1303 bound_to 1298
    2.0745   -8.1743    7.5773 H   0  0  0  0  0  0  0  0  0  0  0  0  # atno 2461 bound_to 2456
   -5.5016   -5.2649    8.6323 H   0  0  0  0  0  0  0  0  0  0  0  0  # atno 2472 bound_to 2467
    2.6942   -9.2231    5.0593 H   0  0  0  0  0  0  0  0  0  0  0  0  # atno 2515 bound_to 2510
   -2.8485  -17.2455   14.7581 H   0  0  0  0  0  0  0  0  0  0  0  0  # atno 3721 bound_to 3712
   -5.2127  -22.8503   10.0922 H   0  0  0  0  0  0  0  0  0  0  0  0  # atno 3767 bound_to 3762
    1.5618  -20.0033    9.2340 H   0  0  0  0  0  0  0  0  0  0  0  0  # atno 3841 bound_to 3832
    4.7984   -8.7610    4.5968 LP  0  0  0  0  0  0  0  0  0  0  0  0  # atno 4297 bound_to 1298
    4.1361  -10.2491    4.7140 LP  0  0  0  0  0  0  0  0  0  0  0  0  # atno 4298 bound_to 1298
    0.4946   -8.3529    7.2042 LP  0  0  0  0  0  0  0  0  0  0  0  0  # atno 4299 bound_to 2456
    1.1689   -9.2808    8.3665 LP  0  0  0  0  0  0  0  0  0  0  0  0  # atno 4300 bound_to 2456
    2.0352   -8.1041    6.0490 LP  0  0  0  0  0  0  0  0  0  0  0  0  # atno 4301 bound_to 2510
    2.5672   -7.6715    4.5670 LP  0  0  0  0  0  0  0  0  0  0  0  0  # atno 4302 bound_to 2510
   -3.5257  -16.6997   13.4085 LP  0  0  0  0  0  0  0  0  0  0  0  0  # atno 4306 bound_to 3712
   -2.7133  -18.1163   13.4160 LP  0  0  0  0  0  0  0  0  0  0  0  0  # atno 4307 bound_to 3712
    2.7396  -19.9496    8.1450 LP  0  0  0  0  0  0  0  0  0  0  0  0  # atno 4314 bound_to 3832
    2.6857  -21.1489    9.2520 LP  0  0  0  0  0  0  0  0  0  0  0  0  # atno 4315 bound_to 3832
   -4.9981  -21.9289   11.4233 LP  0  0  0  0  0  0  0  0  0  0  0  0  # atno 4318 bound_to 3762
   -3.9168  -23.0960   11.0552 LP  0  0  0  0  0  0  0  0  0  0  0  0  # atno 4319 bound_to 3762
   -4.2164   -4.8006    7.7384 LP  0  0  0  0  0  0  0  0  0  0  0  0  # atno 4320 bound_to 2467
   -3.9991   -5.3281    9.2685 LP  0  0  0  0  0  0  0  0  0  0  0  0  # atno 4321 bound_to 2467

> <Gold.Score>
     Score     S(PLP)   S(hbond)     S(cho)   S(metal)  DE(clash)   DE(tors)     intcor
     37.16     -28.19       2.00       1.00       0.00       0.00       0.02       0.00

> <Gold.PLP.Fitness>
37.1555

> <Gold.PLP.PLP>
-28.1940

> <Gold.PLP.part.hbond>
-1.0000

> <Gold.PLP.part.metal>
0.0000

> <Gold.PLP.part.buried>
-4.4517

> <Gold.PLP.part.nonpolar>
-23.3076

> <Gold.PLP.part.repulsive>
0.0295

> <Gold.PLP.ligand.clash>
0.0000

> <Gold.PLP.ligand.torsion>
0.0193

> <Gold.PLP.Chemscore.Hbond>
2.0000

> <Gold.PLP.Chemscore.CHOScore>
1.0000

> <Gold.PLP.Chemscore.Metal>
0.0000

> <Gold.Chemscore.Hbonds>
donor molecule, donor type, donor heavy atom, donor atom, acceptor molecule, acceptor atom, score
      L1  H     1    16       P1  1227  2.00
      L1  C     8    14       P1  2456  1.00

> <Gold.PLP.Chemscore.Internal.Correction>
0.0001

