#       Name:                EN300-6479274_i001
#       Creating user name   fsindt
#       Creation time:       Tue Feb 28 22:49:34 2023


#       File generated by GOLD software.
#

@<TRIPOS>MOLECULE
EN300-6479274_i001|amine_1|mol2|6657|dock16
    18    18     1
SMALL
USER_CHARGES


@<TRIPOS>ATOM
      1 N1          -0.1641 -17.2468   9.3949 N.4            1 <1>                1.0000
      2 C2          -0.2003 -16.5547   8.0996 C.3            1 <1>                0.0000
      3 C3           0.0594 -15.0850   8.3079 C.ar           1 <1>                0.0000
      4 C4           0.1643 -14.2492   7.2121 C.ar           1 <1>                0.0000
      5 C5           0.4027 -12.8988   7.4115 C.ar           1 <1>                0.0000
      6 C6           0.5279 -12.4354   8.7171 C.ar           1 <1>                0.0000
      7 O7           0.7616 -11.1191   8.9618 O.3            1 <1>                0.0000
      8 C8           0.4102 -13.3361   9.7659 C.ar           1 <1>                0.0000
      9 N9           0.1781 -14.6127   9.5334 N.ar           1 <1>                0.0000
     10 H10          0.5655 -16.9698   7.4443 H              1 <1>                0.0000
     11 H11         -1.1809 -16.6893   7.6431 H              1 <1>                0.0000
     12 H12          0.0619 -14.6441   6.2121 H              1 <1>                0.0000
     13 H13          0.4897 -12.2227   6.5738 H              1 <1>                0.0000
     14 H14          0.5056 -12.9869  10.7834 H              1 <1>                0.0000
     15 H15         -0.5452 -16.6443  10.1088 H              1 <1>                0.0000
     16 H16         -0.7127 -18.0919   9.3400 H              1 <1>                0.0000
     17 H17          0.7902 -17.4796   9.6253 H              1 <1>                0.0000
     18 H18          0.8234 -10.8986   9.9013 H              1 <1>                0.0000
@<TRIPOS>BOND
    1    1    2 1     
    2    1   15 1     
    3    1   16 1     
    4    1   17 1     
    5    2    3 1     
    6    2   10 1     
    7    2   11 1     
    8    3    4 ar    
    9    3    9 ar    
   10    4    5 ar    
   11    4   12 1     
   12    5    6 ar    
   13    5   13 1     
   14    6    7 1     
   15    6    8 ar    
   16    7   18 1     
   17    8    9 ar    
   18    8   14 1     
@<TRIPOS>SUBSTRUCTURE
      1 ****           1
@<TRIPOS>SET
DONOR_HYDROGENS      STATIC     ATOMS    <user>   **** ""
4 15 16 17 18
ATOM$RED        STATIC     ATOMS    COLORGROUP SYSTEM
4 15 16 17 18
@<TRIPOS>COMMENT
> <Gold.Version>
2022.2.0

> <Gold.Id.Protein>
3pbl|protein|mol2

> <Gold.Protein.RotatedTorsions>
[ 1303 1298 1297 1294 ] final  147.14 input  179.99 | X-H torsion
[ 2461 2456 2455 2452 ] final -130.56 input   30.03 | X-H torsion
[ 2515 2510 2509 2506 ] final   49.46 input  -89.99 | X-H torsion
[ 3721 3712 3711 3710 ] final  168.27 input -179.91 | X-H torsion
[ 3841 3832 3831 3830 ] final   74.25 input -179.91 | X-H torsion
[ 3767 3762 3761 3758 ] final   95.80 input  -89.99 | X-H torsion
[ 2472 2467 2466 2463 ] final -179.26 input  -89.97 | X-H torsion

> <Gold.Protein.ActiveResidues>
 VAL82   VAL86   LEU89   PHE106  VAL107  ASP110  VAL111  MET112  CYS114  THR115 
 CYS181  SER182  ILE183  PHE188  VAL189  ILE190  SER192  SER193  SER196  TRP342 
 PHE345  PHE346  HIS349  VAL350  TYR365  THR369  GLY372  TYR373 

> <Gold.Protein.RotatedAtoms>
    4.8970   -9.3598    4.8983 H   0  0  0  0  0  0  0  0  0  0  0  0  # atno 1303 bound_to 1298
    0.7012   -9.2341    8.1566 H   0  0  0  0  0  0  0  0  0  0  0  0  # atno 2461 bound_to 2456
   -5.3398   -5.3900    9.0289 H   0  0  0  0  0  0  0  0  0  0  0  0  # atno 2472 bound_to 2467
    2.2076   -7.4202    5.2914 H   0  0  0  0  0  0  0  0  0  0  0  0  # atno 2515 bound_to 2510
   -3.2886  -16.6893   13.3933 H   0  0  0  0  0  0  0  0  0  0  0  0  # atno 3721 bound_to 3712
   -4.1334  -23.3165   10.5749 H   0  0  0  0  0  0  0  0  0  0  0  0  # atno 3767 bound_to 3762
    2.6581  -20.9564    9.4085 H   0  0  0  0  0  0  0  0  0  0  0  0  # atno 3841 bound_to 3832
    3.6013  -10.1586    4.3072 LP  0  0  0  0  0  0  0  0  0  0  0  0  # atno 4297 bound_to 1298
    3.8636   -8.6029    3.8858 LP  0  0  0  0  0  0  0  0  0  0  0  0  # atno 4298 bound_to 1298
    2.1553   -8.5196    7.9504 LP  0  0  0  0  0  0  0  0  0  0  0  0  # atno 4299 bound_to 2456
    0.8810   -8.0547    7.0412 LP  0  0  0  0  0  0  0  0  0  0  0  0  # atno 4300 bound_to 2456
    2.8350   -8.6636    4.4393 LP  0  0  0  0  0  0  0  0  0  0  0  0  # atno 4301 bound_to 2510
    2.2543   -8.9158    5.9446 LP  0  0  0  0  0  0  0  0  0  0  0  0  # atno 4302 bound_to 2510
   -2.6743  -18.1657   13.5372 LP  0  0  0  0  0  0  0  0  0  0  0  0  # atno 4306 bound_to 3712
   -3.0567  -17.2925   14.8631 LP  0  0  0  0  0  0  0  0  0  0  0  0  # atno 4307 bound_to 3712
    1.3984  -20.0297    9.0471 LP  0  0  0  0  0  0  0  0  0  0  0  0  # atno 4314 bound_to 3832
    2.7604  -19.9677    8.1483 LP  0  0  0  0  0  0  0  0  0  0  0  0  # atno 4315 bound_to 3832
   -5.4809  -22.4204   10.3557 LP  0  0  0  0  0  0  0  0  0  0  0  0  # atno 4318 bound_to 3762
   -4.5129  -22.1385   11.6403 LP  0  0  0  0  0  0  0  0  0  0  0  0  # atno 4319 bound_to 3762
   -4.6553   -4.8206    7.6601 LP  0  0  0  0  0  0  0  0  0  0  0  0  # atno 4320 bound_to 2467
   -3.7220   -5.1829    8.9502 LP  0  0  0  0  0  0  0  0  0  0  0  0  # atno 4321 bound_to 2467

> <Gold.Score>
     Score     S(PLP)   S(hbond)     S(cho)   S(metal)  DE(clash)   DE(tors)     intcor
     35.44     -26.50       2.99       0.00       0.00       0.00       0.02       0.00

> <Gold.PLP.Fitness>
35.4355

> <Gold.PLP.PLP>
-26.5010

> <Gold.PLP.part.hbond>
-2.0000

> <Gold.PLP.part.metal>
0.0000

> <Gold.PLP.part.buried>
-3.4877

> <Gold.PLP.part.nonpolar>
-21.2904

> <Gold.PLP.part.repulsive>
0.0624

> <Gold.PLP.ligand.clash>
0.0000

> <Gold.PLP.ligand.torsion>
0.0208

> <Gold.PLP.Chemscore.Hbond>
2.9920

> <Gold.PLP.Chemscore.CHOScore>
0.0000

> <Gold.PLP.Chemscore.Metal>
0.0000

> <Gold.Chemscore.Hbonds>
donor molecule, donor type, donor heavy atom, donor atom, acceptor molecule, acceptor atom, score
      L1  H     1    17       P1  1227  2.00
      P1  H  2456  2461       L1     7  0.99

> <Gold.PLP.Chemscore.Internal.Correction>
0.0000

