#       Name:                EN300-6479274_i001
#       Creating user name   fsindt
#       Creation time:       Tue Feb 28 22:49:32 2023


#       File generated by GOLD software.
#

@<TRIPOS>MOLECULE
EN300-6479274_i001|amine_1|mol2|6657|dock13
    18    18     1
SMALL
USER_CHARGES


@<TRIPOS>ATOM
      1 N1           1.0563 -11.3656   7.7419 N.4            1 <1>                1.0000
      2 C2           0.4882 -12.0911   8.8859 C.3            1 <1>                0.0000
      3 C3          -0.8293 -11.4693   9.2711 C.ar           1 <1>                0.0000
      4 C4          -1.8065 -12.2510   9.8581 C.ar           1 <1>                0.0000
      5 C5          -3.0152 -11.6720  10.2101 C.ar           1 <1>                0.0000
      6 C6          -3.1978 -10.3166   9.9562 C.ar           1 <1>                0.0000
      7 O7          -4.3664  -9.7051  10.2844 O.3            1 <1>                0.0000
      8 C8          -2.1696  -9.5978   9.3636 C.ar           1 <1>                0.0000
      9 N9          -1.0325 -10.1854   9.0486 N.ar           1 <1>                0.0000
     10 H10          0.3314 -13.1347   8.6128 H              1 <1>                0.0000
     11 H11          1.1764 -12.0358   9.7293 H              1 <1>                0.0000
     12 H12         -1.6299 -13.3008  10.0401 H              1 <1>                0.0000
     13 H13         -3.7967 -12.2588  10.6699 H              1 <1>                0.0000
     14 H14         -2.3007  -8.5448   9.1621 H              1 <1>                0.0000
     15 H15          1.9591 -11.7534   7.5126 H              1 <1>                0.0000
     16 H16          0.4404 -11.4547   6.9477 H              1 <1>                0.0000
     17 H17          1.1597 -10.3905   7.9798 H              1 <1>                0.0000
     18 H18         -5.1555 -10.1987  10.0225 H              1 <1>                0.0000
@<TRIPOS>BOND
    1    1    2 1     
    2    1   15 1     
    3    1   16 1     
    4    1   17 1     
    5    2    3 1     
    6    2   10 1     
    7    2   11 1     
    8    3    4 ar    
    9    3    9 ar    
   10    4    5 ar    
   11    4   12 1     
   12    5    6 ar    
   13    5   13 1     
   14    6    7 1     
   15    6    8 ar    
   16    7   18 1     
   17    8    9 ar    
   18    8   14 1     
@<TRIPOS>SUBSTRUCTURE
      1 ****           1
@<TRIPOS>SET
DONOR_HYDROGENS      STATIC     ATOMS    <user>   **** ""
4 15 16 17 18
ATOM$RED        STATIC     ATOMS    COLORGROUP SYSTEM
4 15 16 17 18
@<TRIPOS>COMMENT
> <Gold.Version>
2022.2.0

> <Gold.Id.Protein>
3pbl|protein|mol2

> <Gold.Protein.RotatedTorsions>
[ 1303 1298 1297 1294 ] final -179.65 input  179.99 | X-H torsion
[ 2461 2456 2455 2452 ] final   29.14 input   30.03 | X-H torsion
[ 2515 2510 2509 2506 ] final  -30.41 input  -89.99 | X-H torsion
[ 3721 3712 3711 3710 ] final  -97.82 input -179.91 | X-H torsion
[ 3841 3832 3831 3830 ] final   48.42 input -179.91 | X-H torsion
[ 3767 3762 3761 3758 ] final -124.63 input  -89.99 | X-H torsion
[ 2472 2467 2466 2463 ] final -106.33 input  -89.97 | X-H torsion

> <Gold.Protein.ActiveResidues>
 VAL82   VAL86   LEU89   PHE106  VAL107  ASP110  VAL111  MET112  CYS114  THR115 
 CYS181  SER182  ILE183  PHE188  VAL189  ILE190  SER192  SER193  SER196  TRP342 
 PHE345  PHE346  HIS349  VAL350  TYR365  THR369  GLY372  TYR373 

> <Gold.Protein.RotatedAtoms>
    4.8531   -8.8703    4.6779 H   0  0  0  0  0  0  0  0  0  0  0  0  # atno 1303 bound_to 1298
    1.5014   -7.9174    7.1207 H   0  0  0  0  0  0  0  0  0  0  0  0  # atno 2461 bound_to 2456
   -4.2824   -5.4074    9.3999 H   0  0  0  0  0  0  0  0  0  0  0  0  # atno 2472 bound_to 2467
    2.7227   -8.0291    4.3816 H   0  0  0  0  0  0  0  0  0  0  0  0  # atno 2515 bound_to 2510
   -3.0806  -16.8604   14.6303 H   0  0  0  0  0  0  0  0  0  0  0  0  # atno 3721 bound_to 3712
   -4.7844  -21.9925   11.5523 H   0  0  0  0  0  0  0  0  0  0  0  0  # atno 3767 bound_to 3762
    2.3125  -20.9020    9.5738 H   0  0  0  0  0  0  0  0  0  0  0  0  # atno 3841 bound_to 3832
    4.0130  -10.2699    4.6365 LP  0  0  0  0  0  0  0  0  0  0  0  0  # atno 4297 bound_to 1298
    3.4957   -8.9814    3.7771 LP  0  0  0  0  0  0  0  0  0  0  0  0  # atno 4298 bound_to 1298
    0.3570   -8.9169    7.7196 LP  0  0  0  0  0  0  0  0  0  0  0  0  # atno 4299 bound_to 2456
    1.8794   -8.9736    8.3077 LP  0  0  0  0  0  0  0  0  0  0  0  0  # atno 4300 bound_to 2456
    2.5297   -9.2414    5.4581 LP  0  0  0  0  0  0  0  0  0  0  0  0  # atno 4301 bound_to 2510
    2.0442   -7.7287    5.8359 LP  0  0  0  0  0  0  0  0  0  0  0  0  # atno 4302 bound_to 2510
   -3.3599  -17.0432   13.0598 LP  0  0  0  0  0  0  0  0  0  0  0  0  # atno 4306 bound_to 3712
   -2.6112  -18.2176   13.9123 LP  0  0  0  0  0  0  0  0  0  0  0  0  # atno 4307 bound_to 3712
    1.5384  -19.7753    8.7327 LP  0  0  0  0  0  0  0  0  0  0  0  0  # atno 4314 bound_to 3832
    3.0197  -20.2850    8.2718 LP  0  0  0  0  0  0  0  0  0  0  0  0  # atno 4315 bound_to 3832
   -3.9799  -23.2223   10.8402 LP  0  0  0  0  0  0  0  0  0  0  0  0  # atno 4318 bound_to 3762
   -5.3630  -22.6600   10.1788 LP  0  0  0  0  0  0  0  0  0  0  0  0  # atno 4319 bound_to 3762
   -5.4896   -5.1538    8.3300 LP  0  0  0  0  0  0  0  0  0  0  0  0  # atno 4320 bound_to 2467
   -3.9448   -4.8323    7.9094 LP  0  0  0  0  0  0  0  0  0  0  0  0  # atno 4321 bound_to 2467

> <Gold.Score>
     Score     S(PLP)   S(hbond)     S(cho)   S(metal)  DE(clash)   DE(tors)     intcor
     33.78     -28.55       1.00       0.99       0.00       0.00       0.37       0.00

> <Gold.PLP.Fitness>
33.7751

> <Gold.PLP.PLP>
-28.5451

> <Gold.PLP.part.hbond>
-2.0000

> <Gold.PLP.part.metal>
0.0000

> <Gold.PLP.part.buried>
-3.6887

> <Gold.PLP.part.nonpolar>
-23.9216

> <Gold.PLP.part.repulsive>
0.0464

> <Gold.PLP.ligand.clash>
0.0000

> <Gold.PLP.ligand.torsion>
0.3736

> <Gold.PLP.Chemscore.Hbond>
1.0000

> <Gold.PLP.Chemscore.CHOScore>
0.9924

> <Gold.PLP.Chemscore.Metal>
0.0000

> <Gold.Chemscore.Hbonds>
donor molecule, donor type, donor heavy atom, donor atom, acceptor molecule, acceptor atom, score
      L1  H     1    17       P1  2456  1.00
      L1  C     8    14       P1  2398  0.99

> <Gold.PLP.Chemscore.Internal.Correction>
0.0000

