#       Name:                EN300-6479274_i001
#       Creating user name   fsindt
#       Creation time:       Tue Feb 28 22:49:35 2023


#       File generated by GOLD software.
#

@<TRIPOS>MOLECULE
EN300-6479274_i001|amine_1|mol2|6657|dock17
    18    18     1
SMALL
USER_CHARGES


@<TRIPOS>ATOM
      1 N1           0.3807 -11.0509   9.0384 N.4            1 <1>                1.0000
      2 C2          -0.2274 -10.6124  10.3017 C.3            1 <1>                0.0000
      3 C3          -1.7282 -10.6889  10.1901 C.ar           1 <1>                0.0000
      4 C4          -2.3359 -11.9151   9.9962 C.ar           1 <1>                0.0000
      5 C5          -3.7165 -11.9776   9.8951 C.ar           1 <1>                0.0000
      6 C6          -4.4408 -10.7941   9.9934 C.ar           1 <1>                0.0000
      7 O7          -5.7967 -10.8060   9.9006 O.3            1 <1>                0.0000
      8 C8          -3.7592  -9.6013  10.1880 C.ar           1 <1>                0.0000
      9 N9          -2.4446  -9.5857  10.2841 N.ar           1 <1>                0.0000
     10 H10          0.1103 -11.2594  11.1113 H              1 <1>                0.0000
     11 H11          0.0695  -9.5845  10.5102 H              1 <1>                0.0000
     12 H12         -1.7415 -12.8139   9.9242 H              1 <1>                0.0000
     13 H13         -4.2179 -12.9220   9.7432 H              1 <1>                0.0000
     14 H14         -4.3117  -8.6766  10.2658 H              1 <1>                0.0000
     15 H15          1.2934 -11.4399   9.2218 H              1 <1>                0.0000
     16 H16         -0.2039 -11.7526   8.6095 H              1 <1>                0.0000
     17 H17          0.4702 -10.2616   8.4163 H              1 <1>                0.0000
     18 H18         -6.1313 -10.6376   9.0092 H              1 <1>                0.0000
@<TRIPOS>BOND
    1    1    2 1     
    2    1   15 1     
    3    1   16 1     
    4    1   17 1     
    5    2    3 1     
    6    2   10 1     
    7    2   11 1     
    8    3    4 ar    
    9    3    9 ar    
   10    4    5 ar    
   11    4   12 1     
   12    5    6 ar    
   13    5   13 1     
   14    6    7 1     
   15    6    8 ar    
   16    7   18 1     
   17    8    9 ar    
   18    8   14 1     
@<TRIPOS>SUBSTRUCTURE
      1 ****           1
@<TRIPOS>SET
DONOR_HYDROGENS      STATIC     ATOMS    <user>   **** ""
4 15 16 17 18
ATOM$RED        STATIC     ATOMS    COLORGROUP SYSTEM
4 15 16 17 18
@<TRIPOS>COMMENT
> <Gold.Version>
2022.2.0

> <Gold.Id.Protein>
3pbl|protein|mol2

> <Gold.Protein.RotatedTorsions>
[ 1303 1298 1297 1294 ] final -173.27 input  179.99 | X-H torsion
[ 2461 2456 2455 2452 ] final   73.63 input   30.03 | X-H torsion
[ 2515 2510 2509 2506 ] final  -48.37 input  -89.99 | X-H torsion
[ 3721 3712 3711 3710 ] final  136.21 input -179.91 | X-H torsion
[ 3841 3832 3831 3830 ] final   47.30 input -179.91 | X-H torsion
[ 3767 3762 3761 3758 ] final  169.17 input  -89.99 | X-H torsion
[ 2472 2467 2466 2463 ] final  146.86 input  -89.97 | X-H torsion

> <Gold.Protein.ActiveResidues>
 VAL82   VAL86   LEU89   PHE106  VAL107  ASP110  VAL111  MET112  CYS114  THR115 
 CYS181  SER182  ILE183  PHE188  VAL189  ILE190  SER192  SER193  SER196  TRP342 
 PHE345  PHE346  HIS349  VAL350  TYR365  THR369  GLY372  TYR373 

> <Gold.Protein.RotatedAtoms>
    4.8154   -8.7908    4.6208 H   0  0  0  0  0  0  0  0  0  0  0  0  # atno 1303 bound_to 1298
    2.0443   -8.1368    7.5294 H   0  0  0  0  0  0  0  0  0  0  0  0  # atno 2461 bound_to 2456
   -5.5099   -5.2296    8.5318 H   0  0  0  0  0  0  0  0  0  0  0  0  # atno 2472 bound_to 2467
    2.7949   -8.3132    4.3555 H   0  0  0  0  0  0  0  0  0  0  0  0  # atno 2515 bound_to 2510
   -3.1223  -17.0256   13.0964 H   0  0  0  0  0  0  0  0  0  0  0  0  # atno 3721 bound_to 3712
   -4.0086  -22.6667   11.4869 H   0  0  0  0  0  0  0  0  0  0  0  0  # atno 3767 bound_to 3762
    2.2971  -20.8966    9.5785 H   0  0  0  0  0  0  0  0  0  0  0  0  # atno 3841 bound_to 3832
    4.1008  -10.2572    4.6926 LP  0  0  0  0  0  0  0  0  0  0  0  0  # atno 4297 bound_to 1298
    3.4457   -9.0735    3.7781 LP  0  0  0  0  0  0  0  0  0  0  0  0  # atno 4298 bound_to 1298
    0.4589   -8.3996    7.2384 LP  0  0  0  0  0  0  0  0  0  0  0  0  # atno 4299 bound_to 2456
    1.2348   -9.2716    8.3804 LP  0  0  0  0  0  0  0  0  0  0  0  0  # atno 4300 bound_to 2456
    2.4042   -9.1436    5.7058 LP  0  0  0  0  0  0  0  0  0  0  0  0  # atno 4301 bound_to 2510
    2.0974   -7.5423    5.6144 LP  0  0  0  0  0  0  0  0  0  0  0  0  # atno 4302 bound_to 2510
   -2.6071  -18.2016   14.0606 LP  0  0  0  0  0  0  0  0  0  0  0  0  # atno 4306 bound_to 3712
   -3.3158  -16.8683   14.6825 LP  0  0  0  0  0  0  0  0  0  0  0  0  # atno 4307 bound_to 3712
    1.5480  -19.7668    8.7191 LP  0  0  0  0  0  0  0  0  0  0  0  0  # atno 4314 bound_to 3832
    3.0278  -20.2998    8.2800 LP  0  0  0  0  0  0  0  0  0  0  0  0  # atno 4315 bound_to 3832
   -4.7203  -23.2185   10.1246 LP  0  0  0  0  0  0  0  0  0  0  0  0  # atno 4318 bound_to 3762
   -5.3982  -21.9899   10.9598 LP  0  0  0  0  0  0  0  0  0  0  0  0  # atno 4319 bound_to 3762
   -4.1205   -4.8069    7.7851 LP  0  0  0  0  0  0  0  0  0  0  0  0  # atno 4320 bound_to 2467
   -4.0867   -5.3571    9.3222 LP  0  0  0  0  0  0  0  0  0  0  0  0  # atno 4321 bound_to 2467

> <Gold.Score>
     Score     S(PLP)   S(hbond)     S(cho)   S(metal)  DE(clash)   DE(tors)     intcor
     37.41     -31.40       1.32       0.69       0.00       0.00       0.01       0.00

> <Gold.PLP.Fitness>
37.4097

> <Gold.PLP.PLP>
-31.4006

> <Gold.PLP.part.hbond>
-3.0000

> <Gold.PLP.part.metal>
0.0000

> <Gold.PLP.part.buried>
-1.6229

> <Gold.PLP.part.nonpolar>
-27.8423

> <Gold.PLP.part.repulsive>
0.8998

> <Gold.PLP.ligand.clash>
0.0000

> <Gold.PLP.ligand.torsion>
0.0109

> <Gold.PLP.Chemscore.Hbond>
1.3159

> <Gold.PLP.Chemscore.CHOScore>
0.6944

> <Gold.PLP.Chemscore.Metal>
0.0000

> <Gold.Chemscore.Hbonds>
donor molecule, donor type, donor heavy atom, donor atom, acceptor molecule, acceptor atom, score
      L1  H     1    17       P1  2456  1.00
      L1  H     7    18       P1  3417  0.32
      L1  C     8    14       P1  2398  0.69

> <Gold.PLP.Chemscore.Internal.Correction>
0.0000

