#       Name:                EN300-6479274_i001
#       Creating user name   fsindt
#       Creation time:       Tue Feb 28 22:49:24 2023


#       File generated by GOLD software.
#

@<TRIPOS>MOLECULE
EN300-6479274_i001|amine_1|mol2|6657|dock1
    18    18     1
SMALL
USER_CHARGES


@<TRIPOS>ATOM
      1 N1           0.2022 -16.8669   8.1215 N.4            1 <1>                1.0000
      2 C2           0.8022 -15.9202   7.1720 C.3            1 <1>                0.0000
      3 C3           0.6607 -14.5174   7.7039 C.ar           1 <1>                0.0000
      4 C4           1.0581 -13.4486   6.9228 C.ar           1 <1>                0.0000
      5 C5           0.9244 -12.1616   7.4185 C.ar           1 <1>                0.0000
      6 C6           0.3915 -11.9960   8.6928 C.ar           1 <1>                0.0000
      7 O7           0.2410 -10.7527   9.2207 O.3            1 <1>                0.0000
      8 C8           0.0153 -13.1183   9.4167 C.ar           1 <1>                0.0000
      9 N9           0.1543 -14.3257   8.9065 N.ar           1 <1>                0.0000
     10 H10          1.8588 -16.1551   7.0432 H              1 <1>                0.0000
     11 H11          0.2931 -15.9975   6.2112 H              1 <1>                0.0000
     12 H12          1.4681 -13.6148   5.9376 H              1 <1>                0.0000
     13 H13          1.2269 -11.3079   6.8303 H              1 <1>                0.0000
     14 H14         -0.3996 -13.0011  10.4069 H              1 <1>                0.0000
     15 H15         -0.5089 -16.3967   8.6612 H              1 <1>                0.0000
     16 H16         -0.2128 -17.6342   7.6145 H              1 <1>                0.0000
     17 H17          0.9161 -17.2200   8.7410 H              1 <1>                0.0000
     18 H18          0.6947 -10.0574   8.7250 H              1 <1>                0.0000
@<TRIPOS>BOND
    1    1    2 1     
    2    1   15 1     
    3    1   16 1     
    4    1   17 1     
    5    2    3 1     
    6    2   10 1     
    7    2   11 1     
    8    3    4 ar    
    9    3    9 ar    
   10    4    5 ar    
   11    4   12 1     
   12    5    6 ar    
   13    5   13 1     
   14    6    7 1     
   15    6    8 ar    
   16    7   18 1     
   17    8    9 ar    
   18    8   14 1     
@<TRIPOS>SUBSTRUCTURE
      1 ****           1
@<TRIPOS>SET
DONOR_HYDROGENS      STATIC     ATOMS    <user>   **** ""
4 15 16 17 18
ATOM$RED        STATIC     ATOMS    COLORGROUP SYSTEM
4 15 16 17 18
@<TRIPOS>COMMENT
> <Gold.Version>
2022.2.0

> <Gold.Id.Protein>
3pbl|protein|mol2

> <Gold.Protein.RotatedTorsions>
[ 1303 1298 1297 1294 ] final  125.58 input  179.99 | X-H torsion
[ 2461 2456 2455 2452 ] final   23.81 input   30.03 | X-H torsion
[ 2515 2510 2509 2506 ] final -170.89 input  -89.99 | X-H torsion
[ 3721 3712 3711 3710 ] final   66.57 input -179.91 | X-H torsion
[ 3841 3832 3831 3830 ] final  165.03 input -179.91 | X-H torsion
[ 3767 3762 3761 3758 ] final -116.23 input  -89.99 | X-H torsion
[ 2472 2467 2466 2463 ] final   75.64 input  -89.97 | X-H torsion

> <Gold.Protein.ActiveResidues>
 VAL82   VAL86   LEU89   PHE106  VAL107  ASP110  VAL111  MET112  CYS114  THR115 
 CYS181  SER182  ILE183  PHE188  VAL189  ILE190  SER192  SER193  SER196  TRP342 
 PHE345  PHE346  HIS349  VAL350  TYR365  THR369  GLY372  TYR373 

> <Gold.Protein.RotatedAtoms>
    4.7871   -9.6908    4.9504 H   0  0  0  0  0  0  0  0  0  0  0  0  # atno 1303 bound_to 1298
    1.4186   -7.9173    7.0917 H   0  0  0  0  0  0  0  0  0  0  0  0  # atno 2461 bound_to 2456
   -4.8925   -4.8624    7.7013 H   0  0  0  0  0  0  0  0  0  0  0  0  # atno 2472 bound_to 2467
    2.3867   -9.1230    5.7371 H   0  0  0  0  0  0  0  0  0  0  0  0  # atno 2515 bound_to 2510
   -2.6278  -17.8559   13.3076 H   0  0  0  0  0  0  0  0  0  0  0  0  # atno 3721 bound_to 3712
   -4.9003  -21.9519   11.4891 H   0  0  0  0  0  0  0  0  0  0  0  0  # atno 3767 bound_to 3762
    3.0649  -20.2261    8.5028 H   0  0  0  0  0  0  0  0  0  0  0  0  # atno 3841 bound_to 3832
    3.4183   -9.9431    4.0965 LP  0  0  0  0  0  0  0  0  0  0  0  0  # atno 4297 bound_to 1298
    4.1565   -8.4874    4.0445 LP  0  0  0  0  0  0  0  0  0  0  0  0  # atno 4298 bound_to 1298
    0.3812   -8.9722    7.7833 LP  0  0  0  0  0  0  0  0  0  0  0  0  # atno 4299 bound_to 2456
    1.9381   -8.9184    8.2730 LP  0  0  0  0  0  0  0  0  0  0  0  0  # atno 4300 bound_to 2456
    2.1077   -7.5220    5.5797 LP  0  0  0  0  0  0  0  0  0  0  0  0  # atno 4301 bound_to 2510
    2.8024   -8.3538    4.3582 LP  0  0  0  0  0  0  0  0  0  0  0  0  # atno 4302 bound_to 2510
   -2.9311  -17.5143   14.8468 LP  0  0  0  0  0  0  0  0  0  0  0  0  # atno 4306 bound_to 3712
   -3.5628  -16.5971   13.6525 LP  0  0  0  0  0  0  0  0  0  0  0  0  # atno 4307 bound_to 3712
    2.1469  -21.0690    9.5142 LP  0  0  0  0  0  0  0  0  0  0  0  0  # atno 4314 bound_to 3832
    1.5420  -19.7721    8.7275 LP  0  0  0  0  0  0  0  0  0  0  0  0  # atno 4315 bound_to 3832
   -3.9390  -23.1597   10.9562 LP  0  0  0  0  0  0  0  0  0  0  0  0  # atno 4318 bound_to 3762
   -5.2882  -22.7633   10.1260 LP  0  0  0  0  0  0  0  0  0  0  0  0  # atno 4319 bound_to 3762
   -3.6489   -5.0967    8.7333 LP  0  0  0  0  0  0  0  0  0  0  0  0  # atno 4320 bound_to 2467
   -5.1756   -5.4344    9.2044 LP  0  0  0  0  0  0  0  0  0  0  0  0  # atno 4321 bound_to 2467

> <Gold.Score>
     Score     S(PLP)   S(hbond)     S(cho)   S(metal)  DE(clash)   DE(tors)     intcor
     38.33     -29.39       3.00       0.00       0.00       0.00       0.03       0.00

> <Gold.PLP.Fitness>
38.3334

> <Gold.PLP.PLP>
-29.3869

> <Gold.PLP.part.hbond>
-2.0000

> <Gold.PLP.part.metal>
0.0000

> <Gold.PLP.part.buried>
-4.0118

> <Gold.PLP.part.nonpolar>
-23.4888

> <Gold.PLP.part.repulsive>
0.0464

> <Gold.PLP.ligand.clash>
0.0000

> <Gold.PLP.ligand.torsion>
0.0268

> <Gold.PLP.Chemscore.Hbond>
3.0000

> <Gold.PLP.Chemscore.CHOScore>
0.0000

> <Gold.PLP.Chemscore.Metal>
0.0000

> <Gold.Chemscore.Hbonds>
donor molecule, donor type, donor heavy atom, donor atom, acceptor molecule, acceptor atom, score
      L1  H     1    17       P1  1227  2.00
      L1  H     7    18       P1  2456  1.00

> <Gold.PLP.Chemscore.Internal.Correction>
0.0001

