#       Name:                EN300-1722344_i001
#       Creating user name   aseyller
#       Creation time:       Fri Apr 21 16:38:37 2023


#       File generated by GOLD software.
#

@<TRIPOS>MOLECULE
EN300-1722344_i001|aminophenols|mol2|81|dock6
    18    18     1
SMALL
USER_CHARGES


@<TRIPOS>ATOM
      1 N1          34.1048  36.6948  34.6044 N.pl3          1 <1>                0.0000
      2 C2          33.0580  36.7196  35.5331 C.ar           1 <1>                0.0000
      3 C3          32.9648  35.7318  36.5026 C.ar           1 <1>                0.0000
      4 C4          31.9294  35.7587  37.4191 C.ar           1 <1>                0.0000
      5 Br5         31.8038  34.4119  38.7404 Br             1 <1>                0.0000
      6 C6          30.9857  36.7691  37.3714 C.ar           1 <1>                0.0000
      7 C7          31.0727  37.7565  36.4072 C.ar           1 <1>                0.0000
      8 C8          32.1103  37.7398  35.4899 C.ar           1 <1>                0.0000
      9 O9          32.1970  38.7110  34.5414 O.3            1 <1>                0.0000
     10 C10         30.0419  38.8546  36.3587 C.3            1 <1>                0.0000
     11 F11         30.6511  40.0795  36.6510 F              1 <1>                0.0000
     12 F12         29.4772  38.9080  35.0798 F              1 <1>                0.0000
     13 F13         29.0400  38.5957  37.3002 F              1 <1>                0.0000
     14 H14         33.7002  34.9418  36.5413 H              1 <1>                0.0000
     15 H15         30.1787  36.7865  38.0889 H              1 <1>                0.0000
     16 H16         34.7663  35.9862  34.6382 H              1 <1>                0.0000
     17 H17         34.1665  37.3839  33.9246 H              1 <1>                0.0000
     18 H18         32.9751  38.6364  33.9721 H              1 <1>                0.0000
@<TRIPOS>BOND
    1    1    2 1     
    2    1   16 1     
    3    1   17 1     
    4    2    3 ar    
    5    2    8 ar    
    6    3    4 ar    
    7    3   14 1     
    8    4    5 1     
    9    4    6 ar    
   10    6    7 ar    
   11    6   15 1     
   12    7    8 ar    
   13    7   10 1     
   14    8    9 1     
   15    9   18 1     
   16   10   11 1     
   17   10   12 1     
   18   10   13 1     
@<TRIPOS>SUBSTRUCTURE
      1 ****           1
@<TRIPOS>SET
DONOR_HYDROGENS      STATIC     ATOMS    <user>   **** ""
3 16 17 18
ATOM$RED        STATIC     ATOMS    COLORGROUP SYSTEM
3 16 17 18
@<TRIPOS>COMMENT
> <Gold.Version>
2022.2.0

> <Gold.Id.Protein>
1qkm|1qkm_protein|mol2

> <Gold.Protein.RotatedTorsions>
[  496  491  490  487 ] final  131.11 input  -89.99 | X-H torsion

> <Gold.Protein.ActiveResidues>
 MET295  LEU298  THR299  LEU301  ALA302  GLU305  TRP335  MET336  LEU339  MET340 
 GLY342  LEU343  ARG346  PHE356  ILE373  ILE376  PHE377  LEU380  LYS471  GLY472 
 MET473  HIS475  LEU476  LEU477  ASN478  MET479  VAL484  VAL487 

> <Gold.Protein.RotatedAtoms>
   37.1603   32.9758   41.4578 H   0  0  0  0  0  0  0  0  0  0  0  0  # atno 496  bound_to 491 

> <Gold.Score>
     Score     S(PLP)   S(hbond)     S(cho)   S(metal)  DE(clash)   DE(tors)     intcor
     39.84     -37.21       0.90       0.00       0.00       2.88       0.08       2.96

> <Gold.PLP.Fitness>
39.8388

> <Gold.PLP.PLP>
-37.2062

> <Gold.PLP.part.hbond>
-1.0000

> <Gold.PLP.part.metal>
0.0000

> <Gold.PLP.part.buried>
-1.2322

> <Gold.PLP.part.nonpolar>
-34.9714

> <Gold.PLP.part.repulsive>
0.0891

> <Gold.PLP.ligand.clash>
2.8778

> <Gold.PLP.ligand.torsion>
0.0832

> <Gold.PLP.Chemscore.Hbond>
0.9040

> <Gold.PLP.Chemscore.CHOScore>
0.0000

> <Gold.PLP.Chemscore.Metal>
0.0000

> <Gold.Chemscore.Hbonds>
donor molecule, donor type, donor heavy atom, donor atom, acceptor molecule, acceptor atom, score
      L1  H     1    17       P1  3229  0.90

> <Gold.PLP.Chemscore.Internal.Correction>
2.9648

