#       Name:                EN300-1722344_i001
#       Creating user name   aseyller
#       Creation time:       Fri Apr 21 16:38:42 2023


#       File generated by GOLD software.
#

@<TRIPOS>MOLECULE
EN300-1722344_i001|aminophenols|mol2|81|dock15
    18    18     1
SMALL
USER_CHARGES


@<TRIPOS>ATOM
      1 N1          29.0686  36.3800  39.5142 N.pl3          1 <1>                0.0000
      2 C2          29.7370  37.0204  38.4645 C.ar           1 <1>                0.0000
      3 C3          29.3144  38.2678  38.0291 C.ar           1 <1>                0.0000
      4 C4          29.9766  38.8984  36.9916 C.ar           1 <1>                0.0000
      5 Br5         29.3998  40.5991  36.3994 Br             1 <1>                0.0000
      6 C6          31.0603  38.2877  36.3864 C.ar           1 <1>                0.0000
      7 C7          31.4864  37.0441  36.8154 C.ar           1 <1>                0.0000
      8 C8          30.8321  36.4091  37.8580 C.ar           1 <1>                0.0000
      9 O9          31.2508  35.1860  38.2810 O.3            1 <1>                0.0000
     10 C10         32.6668  36.3824  36.1524 C.3            1 <1>                0.0000
     11 F11         32.2488  35.2053  35.5226 F              1 <1>                0.0000
     12 F12         33.2150  37.2505  35.2021 F              1 <1>                0.0000
     13 F13         33.6329  36.0772  37.1173 F              1 <1>                0.0000
     14 H14         28.4682  38.7462  38.4999 H              1 <1>                0.0000
     15 H15         31.5748  38.7834  35.5764 H              1 <1>                0.0000
     16 H16         28.3087  36.8085  39.9384 H              1 <1>                0.0000
     17 H17         29.3627  35.5060  39.8150 H              1 <1>                0.0000
     18 H18         31.6453  35.1889  39.1639 H              1 <1>                0.0000
@<TRIPOS>BOND
    1    1    2 1     
    2    1   16 1     
    3    1   17 1     
    4    2    3 ar    
    5    2    8 ar    
    6    3    4 ar    
    7    3   14 1     
    8    4    5 1     
    9    4    6 ar    
   10    6    7 ar    
   11    6   15 1     
   12    7    8 ar    
   13    7   10 1     
   14    8    9 1     
   15    9   18 1     
   16   10   11 1     
   17   10   12 1     
   18   10   13 1     
@<TRIPOS>SUBSTRUCTURE
      1 ****           1
@<TRIPOS>SET
DONOR_HYDROGENS      STATIC     ATOMS    <user>   **** ""
3 16 17 18
ATOM$RED        STATIC     ATOMS    COLORGROUP SYSTEM
3 16 17 18
@<TRIPOS>COMMENT
> <Gold.Version>
2022.2.0

> <Gold.Id.Protein>
1qkm|1qkm_protein|mol2

> <Gold.Protein.RotatedTorsions>
[  496  491  490  487 ] final  103.09 input  -89.99 | X-H torsion

> <Gold.Protein.ActiveResidues>
 MET295  LEU298  THR299  LEU301  ALA302  GLU305  TRP335  MET336  LEU339  MET340 
 GLY342  LEU343  ARG346  PHE356  ILE373  ILE376  PHE377  LEU380  LYS471  GLY472 
 MET473  HIS475  LEU476  LEU477  ASN478  MET479  VAL484  VAL487 

> <Gold.Protein.RotatedAtoms>
   36.9392   32.9580   41.8570 H   0  0  0  0  0  0  0  0  0  0  0  0  # atno 496  bound_to 491 

> <Gold.Score>
     Score     S(PLP)   S(hbond)     S(cho)   S(metal)  DE(clash)   DE(tors)     intcor
     37.84     -37.89       0.00       0.00       0.00       2.92       0.05       2.96

> <Gold.PLP.Fitness>
37.8358

> <Gold.PLP.PLP>
-37.8873

> <Gold.PLP.part.hbond>
0.0000

> <Gold.PLP.part.metal>
0.0000

> <Gold.PLP.part.buried>
-3.0705

> <Gold.PLP.part.nonpolar>
-34.6928

> <Gold.PLP.part.repulsive>
0.0000

> <Gold.PLP.ligand.clash>
2.9170

> <Gold.PLP.ligand.torsion>
0.0497

> <Gold.PLP.Chemscore.Hbond>
0.0000

> <Gold.PLP.Chemscore.CHOScore>
0.0000

> <Gold.PLP.Chemscore.Metal>
0.0000

> <Gold.PLP.Chemscore.Internal.Correction>
2.9648

