#       Name:                EN300-1722344_i001
#       Creating user name   aseyller
#       Creation time:       Fri Apr 21 16:38:44 2023


#       File generated by GOLD software.
#

@<TRIPOS>MOLECULE
EN300-1722344_i001|aminophenols|mol2|81|dock20
    18    18     1
SMALL
USER_CHARGES


@<TRIPOS>ATOM
      1 N1          32.1058  33.6958  37.9180 N.pl3          1 <1>                0.0000
      2 C2          31.4919  34.9514  37.9914 C.ar           1 <1>                0.0000
      3 C3          30.7317  35.2899  39.1013 C.ar           1 <1>                0.0000
      4 C4          30.1260  36.5313  39.1714 C.ar           1 <1>                0.0000
      5 Br5         29.0905  36.9917  40.6851 Br             1 <1>                0.0000
      6 C6          30.2766  37.4369  38.1366 C.ar           1 <1>                0.0000
      7 C7          31.0327  37.1055  37.0273 C.ar           1 <1>                0.0000
      8 C8          31.6475  35.8666  36.9527 C.ar           1 <1>                0.0000
      9 O9          32.3919  35.5398  35.8621 O.3            1 <1>                0.0000
     10 C10         31.1931  38.0950  35.9022 C.3            1 <1>                0.0000
     11 F11         30.9208  39.3841  36.3724 F              1 <1>                0.0000
     12 F12         32.5047  38.0425  35.4183 F              1 <1>                0.0000
     13 F13         30.3027  37.7770  34.8710 F              1 <1>                0.0000
     14 H14         30.6124  34.5842  39.9101 H              1 <1>                0.0000
     15 H15         29.8021  38.4053  38.1952 H              1 <1>                0.0000
     16 H16         32.0000  33.0610  38.6437 H              1 <1>                0.0000
     17 H17         32.6338  33.4589  37.1395 H              1 <1>                0.0000
     18 H18         31.9192  35.6262  35.0230 H              1 <1>                0.0000
@<TRIPOS>BOND
    1    1    2 1     
    2    1   16 1     
    3    1   17 1     
    4    2    3 ar    
    5    2    8 ar    
    6    3    4 ar    
    7    3   14 1     
    8    4    5 1     
    9    4    6 ar    
   10    6    7 ar    
   11    6   15 1     
   12    7    8 ar    
   13    7   10 1     
   14    8    9 1     
   15    9   18 1     
   16   10   11 1     
   17   10   12 1     
   18   10   13 1     
@<TRIPOS>SUBSTRUCTURE
      1 ****           1
@<TRIPOS>SET
DONOR_HYDROGENS      STATIC     ATOMS    <user>   **** ""
3 16 17 18
ATOM$RED        STATIC     ATOMS    COLORGROUP SYSTEM
3 16 17 18
@<TRIPOS>COMMENT
> <Gold.Version>
2022.2.0

> <Gold.Id.Protein>
1qkm|1qkm_protein|mol2

> <Gold.Protein.RotatedTorsions>
[  496  491  490  487 ] final  -81.74 input  -89.99 | X-H torsion

> <Gold.Protein.ActiveResidues>
 MET295  LEU298  THR299  LEU301  ALA302  GLU305  TRP335  MET336  LEU339  MET340 
 GLY342  LEU343  ARG346  PHE356  ILE373  ILE376  PHE377  LEU380  LYS471  GLY472 
 MET473  HIS475  LEU476  LEU477  ASN478  MET479  VAL484  VAL487 

> <Gold.Protein.RotatedAtoms>
   36.6816   34.6989   41.1825 H   0  0  0  0  0  0  0  0  0  0  0  0  # atno 496  bound_to 491 

> <Gold.Score>
     Score     S(PLP)   S(hbond)     S(cho)   S(metal)  DE(clash)   DE(tors)     intcor
     39.73     -40.14       0.00       0.00       0.00       1.61       0.89       2.96

> <Gold.PLP.Fitness>
39.7297

> <Gold.PLP.PLP>
-40.1450

> <Gold.PLP.part.hbond>
0.0000

> <Gold.PLP.part.metal>
0.0000

> <Gold.PLP.part.buried>
-2.5843

> <Gold.PLP.part.nonpolar>
-37.0729

> <Gold.PLP.part.repulsive>
0.0244

> <Gold.PLP.ligand.clash>
1.6091

> <Gold.PLP.ligand.torsion>
0.8854

> <Gold.PLP.Chemscore.Hbond>
0.0000

> <Gold.PLP.Chemscore.CHOScore>
0.0000

> <Gold.PLP.Chemscore.Metal>
0.0000

> <Gold.PLP.Chemscore.Internal.Correction>
2.9648

