#       Name:                EN300-1722344_i001
#       Creating user name   aseyller
#       Creation time:       Fri Apr 21 16:38:43 2023


#       File generated by GOLD software.
#

@<TRIPOS>MOLECULE
EN300-1722344_i001|aminophenols|mol2|81|dock17
    18    18     1
SMALL
USER_CHARGES


@<TRIPOS>ATOM
      1 N1          27.9083  39.0067  37.0021 N.pl3          1 <1>                0.0000
      2 C2          28.7844  38.0749  37.5706 C.ar           1 <1>                0.0000
      3 C3          28.4242  37.3964  38.7256 C.ar           1 <1>                0.0000
      4 C4          29.2917  36.4762  39.2854 C.ar           1 <1>                0.0000
      5 Br5         28.7992  35.5516  40.8596 Br             1 <1>                0.0000
      6 C6          30.5188  36.2306  38.6958 C.ar           1 <1>                0.0000
      7 C7          30.8840  36.9040  37.5446 C.ar           1 <1>                0.0000
      8 C8          30.0180  37.8223  36.9746 C.ar           1 <1>                0.0000
      9 O9          30.3761  38.4849  35.8419 O.3            1 <1>                0.0000
     10 C10         32.2222  36.6337  36.9064 C.3            1 <1>                0.0000
     11 F11         33.1093  36.1458  37.8718 F              1 <1>                0.0000
     12 F12         32.0709  35.6846  35.8899 F              1 <1>                0.0000
     13 F13         32.7286  37.8202  36.3649 F              1 <1>                0.0000
     14 H14         27.4668  37.5869  39.1878 H              1 <1>                0.0000
     15 H15         31.1935  35.5113  39.1360 H              1 <1>                0.0000
     16 H16         27.0480  39.1786  37.4157 H              1 <1>                0.0000
     17 H17         28.1631  39.4834  36.1966 H              1 <1>                0.0000
     18 H18         31.2446  38.2348  35.4979 H              1 <1>                0.0000
@<TRIPOS>BOND
    1    1    2 1     
    2    1   16 1     
    3    1   17 1     
    4    2    3 ar    
    5    2    8 ar    
    6    3    4 ar    
    7    3   14 1     
    8    4    5 1     
    9    4    6 ar    
   10    6    7 ar    
   11    6   15 1     
   12    7    8 ar    
   13    7   10 1     
   14    8    9 1     
   15    9   18 1     
   16   10   11 1     
   17   10   12 1     
   18   10   13 1     
@<TRIPOS>SUBSTRUCTURE
      1 ****           1
@<TRIPOS>SET
DONOR_HYDROGENS      STATIC     ATOMS    <user>   **** ""
3 16 17 18
ATOM$RED        STATIC     ATOMS    COLORGROUP SYSTEM
3 16 17 18
@<TRIPOS>COMMENT
> <Gold.Version>
2022.2.0

> <Gold.Id.Protein>
1qkm|1qkm_protein|mol2

> <Gold.Protein.RotatedTorsions>
[  496  491  490  487 ] final  131.38 input  -89.99 | X-H torsion

> <Gold.Protein.ActiveResidues>
 MET295  LEU298  THR299  LEU301  ALA302  GLU305  TRP335  MET336  LEU339  MET340 
 GLY342  LEU343  ARG346  PHE356  ILE373  ILE376  PHE377  LEU380  LYS471  GLY472 
 MET473  HIS475  LEU476  LEU477  ASN478  MET479  VAL484  VAL487 

> <Gold.Protein.RotatedAtoms>
   37.1622   32.9771   41.4538 H   0  0  0  0  0  0  0  0  0  0  0  0  # atno 496  bound_to 491 

> <Gold.Score>
     Score     S(PLP)   S(hbond)     S(cho)   S(metal)  DE(clash)   DE(tors)     intcor
     37.08     -37.27       0.00       0.00       0.00       1.10       1.03       2.96

> <Gold.PLP.Fitness>
37.0782

> <Gold.PLP.PLP>
-37.2708

> <Gold.PLP.part.hbond>
0.0000

> <Gold.PLP.part.metal>
0.0000

> <Gold.PLP.part.buried>
-2.4971

> <Gold.PLP.part.nonpolar>
-35.2676

> <Gold.PLP.part.repulsive>
0.0000

> <Gold.PLP.ligand.clash>
1.0982

> <Gold.PLP.ligand.torsion>
1.0296

> <Gold.PLP.Chemscore.Hbond>
0.0000

> <Gold.PLP.Chemscore.CHOScore>
0.0000

> <Gold.PLP.Chemscore.Metal>
0.0000

> <Gold.PLP.Chemscore.Internal.Correction>
2.9648

