#       Name:                EN300-1722344_i001
#       Creating user name   aseyller
#       Creation time:       Fri Apr 21 16:38:36 2023


#       File generated by GOLD software.
#

@<TRIPOS>MOLECULE
EN300-1722344_i001|aminophenols|mol2|81|dock3
    18    18     1
SMALL
USER_CHARGES


@<TRIPOS>ATOM
      1 N1          28.8498  36.9930  39.9349 N.pl3          1 <1>                0.0000
      2 C2          29.7835  36.5656  38.9840 C.ar           1 <1>                0.0000
      3 C3          30.3732  35.3155  39.1012 C.ar           1 <1>                0.0000
      4 C4          31.2956  34.8956  38.1602 C.ar           1 <1>                0.0000
      5 Br5         32.0983  33.1911  38.3209 Br             1 <1>                0.0000
      6 C6          31.6319  35.7199  37.1014 C.ar           1 <1>                0.0000
      7 C7          31.0480  36.9674  36.9790 C.ar           1 <1>                0.0000
      8 C8          30.1188  37.3924  37.9140 C.ar           1 <1>                0.0000
      9 O9          29.5435  38.6191  37.7942 O.3            1 <1>                0.0000
     10 C10         31.4182  37.8622  35.8243 C.3            1 <1>                0.0000
     11 F11         32.6891  37.5150  35.3539 F              1 <1>                0.0000
     12 F12         30.4822  37.7081  34.7961 F              1 <1>                0.0000
     13 F13         31.4269  39.1946  36.2511 F              1 <1>                0.0000
     14 H14         30.1124  34.6705  39.9273 H              1 <1>                0.0000
     15 H15         32.3527  35.3884  36.3686 H              1 <1>                0.0000
     16 H16         28.6142  36.4147  40.6772 H              1 <1>                0.0000
     17 H17         28.4412  37.8690  39.8539 H              1 <1>                0.0000
     18 H18         29.9602  39.3035  38.3355 H              1 <1>                0.0000
@<TRIPOS>BOND
    1    1    2 1     
    2    1   16 1     
    3    1   17 1     
    4    2    3 ar    
    5    2    8 ar    
    6    3    4 ar    
    7    3   14 1     
    8    4    5 1     
    9    4    6 ar    
   10    6    7 ar    
   11    6   15 1     
   12    7    8 ar    
   13    7   10 1     
   14    8    9 1     
   15    9   18 1     
   16   10   11 1     
   17   10   12 1     
   18   10   13 1     
@<TRIPOS>SUBSTRUCTURE
      1 ****           1
@<TRIPOS>SET
DONOR_HYDROGENS      STATIC     ATOMS    <user>   **** ""
3 16 17 18
ATOM$RED        STATIC     ATOMS    COLORGROUP SYSTEM
3 16 17 18
@<TRIPOS>COMMENT
> <Gold.Version>
2022.2.0

> <Gold.Id.Protein>
1qkm|1qkm_protein|mol2

> <Gold.Protein.RotatedTorsions>
[  496  491  490  487 ] final -123.33 input  -89.99 | X-H torsion

> <Gold.Protein.ActiveResidues>
 MET295  LEU298  THR299  LEU301  ALA302  GLU305  TRP335  MET336  LEU339  MET340 
 GLY342  LEU343  ARG346  PHE356  ILE373  ILE376  PHE377  LEU380  LYS471  GLY472 
 MET473  HIS475  LEU476  LEU477  ASN478  MET479  VAL484  VAL487 

> <Gold.Protein.RotatedAtoms>
   37.0532   34.3126   40.7810 H   0  0  0  0  0  0  0  0  0  0  0  0  # atno 496  bound_to 491 

> <Gold.Score>
     Score     S(PLP)   S(hbond)     S(cho)   S(metal)  DE(clash)   DE(tors)     intcor
     38.80     -39.00       0.00       0.00       0.00       1.12       1.02       2.96

> <Gold.PLP.Fitness>
38.7968

> <Gold.PLP.PLP>
-38.9961

> <Gold.PLP.part.hbond>
0.0000

> <Gold.PLP.part.metal>
0.0000

> <Gold.PLP.part.buried>
-1.7154

> <Gold.PLP.part.nonpolar>
-37.5344

> <Gold.PLP.part.repulsive>
0.0000

> <Gold.PLP.ligand.clash>
1.1181

> <Gold.PLP.ligand.torsion>
1.0230

> <Gold.PLP.Chemscore.Hbond>
0.0000

> <Gold.PLP.Chemscore.CHOScore>
0.0000

> <Gold.PLP.Chemscore.Metal>
0.0000

> <Gold.PLP.Chemscore.Internal.Correction>
2.9648

