#       Name:                EN300-1722344_i001
#       Creating user name   aseyller
#       Creation time:       Fri Apr 21 16:38:42 2023


#       File generated by GOLD software.
#

@<TRIPOS>MOLECULE
EN300-1722344_i001|aminophenols|mol2|81|dock16
    18    18     1
SMALL
USER_CHARGES


@<TRIPOS>ATOM
      1 N1          33.0385  37.0053  33.9996 N.pl3          1 <1>                0.0000
      2 C2          32.2555  36.7672  35.1351 C.ar           1 <1>                0.0000
      3 C3          32.5178  35.6707  35.9432 C.ar           1 <1>                0.0000
      4 C4          31.7426  35.4376  37.0646 C.ar           1 <1>                0.0000
      5 Br5         32.1015  33.9428  38.1656 Br             1 <1>                0.0000
      6 C6          30.7056  36.2961  37.3827 C.ar           1 <1>                0.0000
      7 C7          30.4387  37.3907  36.5810 C.ar           1 <1>                0.0000
      8 C8          31.2145  37.6342  35.4598 C.ar           1 <1>                0.0000
      9 O9          30.9531  38.7110  34.6709 O.3            1 <1>                0.0000
     10 C10         29.3073  38.3226  36.9310 C.3            1 <1>                0.0000
     11 F11         28.3636  37.6401  37.7059 F              1 <1>                0.0000
     12 F12         29.8063  39.4106  37.6552 F              1 <1>                0.0000
     13 F13         28.7017  38.7825  35.7567 F              1 <1>                0.0000
     14 H14         33.3267  34.9989  35.6965 H              1 <1>                0.0000
     15 H15         30.1025  36.1107  38.2592 H              1 <1>                0.0000
     16 H16         33.7655  36.4032  33.7769 H              1 <1>                0.0000
     17 H17         32.8514  37.7702  33.4332 H              1 <1>                0.0000
     18 H18         30.1924  38.5943  34.0854 H              1 <1>                0.0000
@<TRIPOS>BOND
    1    1    2 1     
    2    1   16 1     
    3    1   17 1     
    4    2    3 ar    
    5    2    8 ar    
    6    3    4 ar    
    7    3   14 1     
    8    4    5 1     
    9    4    6 ar    
   10    6    7 ar    
   11    6   15 1     
   12    7    8 ar    
   13    7   10 1     
   14    8    9 1     
   15    9   18 1     
   16   10   11 1     
   17   10   12 1     
   18   10   13 1     
@<TRIPOS>SUBSTRUCTURE
      1 ****           1
@<TRIPOS>SET
DONOR_HYDROGENS      STATIC     ATOMS    <user>   **** ""
3 16 17 18
ATOM$RED        STATIC     ATOMS    COLORGROUP SYSTEM
3 16 17 18
@<TRIPOS>COMMENT
> <Gold.Version>
2022.2.0

> <Gold.Id.Protein>
1qkm|1qkm_protein|mol2

> <Gold.Protein.RotatedTorsions>
[  496  491  490  487 ] final -131.76 input  -89.99 | X-H torsion

> <Gold.Protein.ActiveResidues>
 MET295  LEU298  THR299  LEU301  ALA302  GLU305  TRP335  MET336  LEU339  MET340 
 GLY342  LEU343  ARG346  PHE356  ILE373  ILE376  PHE377  LEU380  LYS471  GLY472 
 MET473  HIS475  LEU476  LEU477  ASN478  MET479  VAL484  VAL487 

> <Gold.Protein.RotatedAtoms>
   37.1177   34.1956   40.7435 H   0  0  0  0  0  0  0  0  0  0  0  0  # atno 496  bound_to 491 

> <Gold.Score>
     Score     S(PLP)   S(hbond)     S(cho)   S(metal)  DE(clash)   DE(tors)     intcor
     35.68     -35.87       0.00       0.00       0.00       1.10       1.03       2.96

> <Gold.PLP.Fitness>
35.6819

> <Gold.PLP.PLP>
-35.8724

> <Gold.PLP.part.hbond>
-1.8809

> <Gold.PLP.part.metal>
0.0000

> <Gold.PLP.part.buried>
-3.2203

> <Gold.PLP.part.nonpolar>
-31.0628

> <Gold.PLP.part.repulsive>
0.0878

> <Gold.PLP.ligand.clash>
1.1026

> <Gold.PLP.ligand.torsion>
1.0263

> <Gold.PLP.Chemscore.Hbond>
0.0000

> <Gold.PLP.Chemscore.CHOScore>
0.0000

> <Gold.PLP.Chemscore.Metal>
0.0000

> <Gold.PLP.Chemscore.Internal.Correction>
2.9648

