#       Name:                EN300-1722344_i001
#       Creating user name   aseyller
#       Creation time:       Fri Apr 21 16:38:40 2023


#       File generated by GOLD software.
#

@<TRIPOS>MOLECULE
EN300-1722344_i001|aminophenols|mol2|81|dock11
    18    18     1
SMALL
USER_CHARGES


@<TRIPOS>ATOM
      1 N1          31.4953  35.4630  39.1008 N.pl3          1 <1>                0.0000
      2 C2          30.5068  36.3453  38.6498 C.ar           1 <1>                0.0000
      3 C3          30.8441  37.3979  37.8117 C.ar           1 <1>                0.0000
      4 C4          29.8655  38.2683  37.3675 C.ar           1 <1>                0.0000
      5 Br5         30.3265  39.7025  36.2246 Br             1 <1>                0.0000
      6 C6          28.5500  38.0917  37.7573 C.ar           1 <1>                0.0000
      7 C7          28.2073  37.0446  38.5929 C.ar           1 <1>                0.0000
      8 C8          29.1807  36.1651  39.0369 C.ar           1 <1>                0.0000
      9 O9          28.8445  35.1345  39.8585 O.3            1 <1>                0.0000
     10 C10         26.7730  36.8568  39.0156 C.3            1 <1>                0.0000
     11 F11         26.0015  37.9191  38.5327 F              1 <1>                0.0000
     12 F12         26.2871  35.6528  38.4944 F              1 <1>                0.0000
     13 F13         26.6990  36.8239  40.4123 F              1 <1>                0.0000
     14 H14         31.8706  37.5379  37.5065 H              1 <1>                0.0000
     15 H15         27.7887  38.7736  37.4082 H              1 <1>                0.0000
     16 H16         32.4176  35.5871  38.8273 H              1 <1>                0.0000
     17 H17         31.2587  34.7297  39.6901 H              1 <1>                0.0000
     18 H18         28.1432  35.3472  40.4894 H              1 <1>                0.0000
@<TRIPOS>BOND
    1    1    2 1     
    2    1   16 1     
    3    1   17 1     
    4    2    3 ar    
    5    2    8 ar    
    6    3    4 ar    
    7    3   14 1     
    8    4    5 1     
    9    4    6 ar    
   10    6    7 ar    
   11    6   15 1     
   12    7    8 ar    
   13    7   10 1     
   14    8    9 1     
   15    9   18 1     
   16   10   11 1     
   17   10   12 1     
   18   10   13 1     
@<TRIPOS>SUBSTRUCTURE
      1 ****           1
@<TRIPOS>SET
DONOR_HYDROGENS      STATIC     ATOMS    <user>   **** ""
3 16 17 18
ATOM$RED        STATIC     ATOMS    COLORGROUP SYSTEM
3 16 17 18
@<TRIPOS>COMMENT
> <Gold.Version>
2022.2.0

> <Gold.Id.Protein>
1qkm|1qkm_protein|mol2

> <Gold.Protein.RotatedTorsions>
[  496  491  490  487 ] final -102.96 input  -89.99 | X-H torsion

> <Gold.Protein.ActiveResidues>
 MET295  LEU298  THR299  LEU301  ALA302  GLU305  TRP335  MET336  LEU339  MET340 
 GLY342  LEU343  ARG346  PHE356  ILE373  ILE376  PHE377  LEU380  LYS471  GLY472 
 MET473  HIS475  LEU476  LEU477  ASN478  MET479  VAL484  VAL487 

> <Gold.Protein.RotatedAtoms>
   36.8767   34.5482   40.9378 H   0  0  0  0  0  0  0  0  0  0  0  0  # atno 496  bound_to 491 

> <Gold.Score>
     Score     S(PLP)   S(hbond)     S(cho)   S(metal)  DE(clash)   DE(tors)     intcor
     40.59     -40.65       0.00       0.00       0.00       2.89       0.07       2.96

> <Gold.PLP.Fitness>
40.5882

> <Gold.PLP.PLP>
-40.6533

> <Gold.PLP.part.hbond>
-1.0000

> <Gold.PLP.part.metal>
0.0000

> <Gold.PLP.part.buried>
-1.5440

> <Gold.PLP.part.nonpolar>
-38.3296

> <Gold.PLP.part.repulsive>
0.0711

> <Gold.PLP.ligand.clash>
2.8872

> <Gold.PLP.ligand.torsion>
0.0713

> <Gold.PLP.Chemscore.Hbond>
0.0000

> <Gold.PLP.Chemscore.CHOScore>
0.0000

> <Gold.PLP.Chemscore.Metal>
0.0000

> <Gold.PLP.Chemscore.Internal.Correction>
2.9648

