#       Name:                EN300-1722344_i001
#       Creating user name   aseyller
#       Creation time:       Fri Apr 21 16:38:39 2023


#       File generated by GOLD software.
#

@<TRIPOS>MOLECULE
EN300-1722344_i001|aminophenols|mol2|81|dock9
    18    18     1
SMALL
USER_CHARGES


@<TRIPOS>ATOM
      1 N1          30.7632  35.1888  39.4287 N.pl3          1 <1>                0.0000
      2 C2          29.8814  36.1022  38.8396 C.ar           1 <1>                0.0000
      3 C3          28.5407  36.1031  39.1957 C.ar           1 <1>                0.0000
      4 C4          27.6714  37.0067  38.6121 C.ar           1 <1>                0.0000
      5 Br5         25.8442  37.0072  39.0988 Br             1 <1>                0.0000
      6 C6          28.1360  37.9103  37.6734 C.ar           1 <1>                0.0000
      7 C7          29.4712  37.9143  37.3137 C.ar           1 <1>                0.0000
      8 C8          30.3491  37.0166  37.8984 C.ar           1 <1>                0.0000
      9 O9          31.6628  37.0201  37.5457 O.3            1 <1>                0.0000
     10 C10         29.9725  38.9000  36.2900 C.3            1 <1>                0.0000
     11 F11         29.9995  38.2914  35.0306 F              1 <1>                0.0000
     12 F12         29.1203  40.0088  36.2538 F              1 <1>                0.0000
     13 F13         31.2632  39.3149  36.6351 F              1 <1>                0.0000
     14 H14         28.1758  35.3982  39.9281 H              1 <1>                0.0000
     15 H15         27.4540  38.6143  37.2199 H              1 <1>                0.0000
     16 H16         30.4371  34.5554  40.0869 H              1 <1>                0.0000
     17 H17         31.6997  35.1866  39.1758 H              1 <1>                0.0000
     18 H18         31.8512  37.5131  36.7354 H              1 <1>                0.0000
@<TRIPOS>BOND
    1    1    2 1     
    2    1   16 1     
    3    1   17 1     
    4    2    3 ar    
    5    2    8 ar    
    6    3    4 ar    
    7    3   14 1     
    8    4    5 1     
    9    4    6 ar    
   10    6    7 ar    
   11    6   15 1     
   12    7    8 ar    
   13    7   10 1     
   14    8    9 1     
   15    9   18 1     
   16   10   11 1     
   17   10   12 1     
   18   10   13 1     
@<TRIPOS>SUBSTRUCTURE
      1 ****           1
@<TRIPOS>SET
DONOR_HYDROGENS      STATIC     ATOMS    <user>   **** ""
3 16 17 18
ATOM$RED        STATIC     ATOMS    COLORGROUP SYSTEM
3 16 17 18
@<TRIPOS>COMMENT
> <Gold.Version>
2022.2.0

> <Gold.Id.Protein>
1qkm|1qkm_protein|mol2

> <Gold.Protein.RotatedTorsions>
[  496  491  490  487 ] final  168.06 input  -89.99 | X-H torsion

> <Gold.Protein.ActiveResidues>
 MET295  LEU298  THR299  LEU301  ALA302  GLU305  TRP335  MET336  LEU339  MET340 
 GLY342  LEU343  ARG346  PHE356  ILE373  ILE376  PHE377  LEU380  LYS471  GLY472 
 MET473  HIS475  LEU476  LEU477  ASN478  MET479  VAL484  VAL487 

> <Gold.Protein.RotatedAtoms>
   37.3129   33.3010   40.9800 H   0  0  0  0  0  0  0  0  0  0  0  0  # atno 496  bound_to 491 

> <Gold.Score>
     Score     S(PLP)   S(hbond)     S(cho)   S(metal)  DE(clash)   DE(tors)     intcor
     40.09     -40.33       0.00       0.00       0.00       1.16       1.02       2.96

> <Gold.PLP.Fitness>
40.0923

> <Gold.PLP.PLP>
-40.3278

> <Gold.PLP.part.hbond>
-1.0000

> <Gold.PLP.part.metal>
0.0000

> <Gold.PLP.part.buried>
-2.4308

> <Gold.PLP.part.nonpolar>
-37.6991

> <Gold.PLP.part.repulsive>
0.0731

> <Gold.PLP.ligand.clash>
1.1556

> <Gold.PLP.ligand.torsion>
1.0223

> <Gold.PLP.Chemscore.Hbond>
0.0000

> <Gold.PLP.Chemscore.CHOScore>
0.0000

> <Gold.PLP.Chemscore.Metal>
0.0000

> <Gold.PLP.Chemscore.Internal.Correction>
2.9648

