#       Name:                EN300-1722344_i001
#       Creating user name   aseyller
#       Creation time:       Fri Apr 21 16:38:43 2023


#       File generated by GOLD software.
#

@<TRIPOS>MOLECULE
EN300-1722344_i001|aminophenols|mol2|81|dock18
    18    18     1
SMALL
USER_CHARGES


@<TRIPOS>ATOM
      1 N1          28.6245  35.5040  40.9826 N.pl3          1 <1>                0.0000
      2 C2          28.8555  36.1384  39.7566 C.ar           1 <1>                0.0000
      3 C3          27.9045  36.9998  39.2293 C.ar           1 <1>                0.0000
      4 C4          28.1351  37.6255  38.0177 C.ar           1 <1>                0.0000
      5 Br5         26.8382  38.7998  37.3003 Br             1 <1>                0.0000
      6 C6          29.3128  37.3943  37.3297 C.ar           1 <1>                0.0000
      7 C7          30.2646  36.5364  37.8497 C.ar           1 <1>                0.0000
      8 C8          30.0435  35.9110  39.0656 C.ar           1 <1>                0.0000
      9 O9          30.9794  35.0674  39.5781 O.3            1 <1>                0.0000
     10 C10         31.5456  36.2870  37.0962 C.3            1 <1>                0.0000
     11 F11         31.3507  36.5668  35.7395 F              1 <1>                0.0000
     12 F12         32.5534  37.1144  37.6030 F              1 <1>                0.0000
     13 F13         31.9220  34.9479  37.2468 F              1 <1>                0.0000
     14 H14         26.9842  37.1814  39.7645 H              1 <1>                0.0000
     15 H15         29.4892  37.8847  36.3838 H              1 <1>                0.0000
     16 H16         27.7987  35.6664  41.4647 H              1 <1>                0.0000
     17 H17         29.2886  34.8988  41.3482 H              1 <1>                0.0000
     18 H18         31.1766  35.2197  40.5125 H              1 <1>                0.0000
@<TRIPOS>BOND
    1    1    2 1     
    2    1   16 1     
    3    1   17 1     
    4    2    3 ar    
    5    2    8 ar    
    6    3    4 ar    
    7    3   14 1     
    8    4    5 1     
    9    4    6 ar    
   10    6    7 ar    
   11    6   15 1     
   12    7    8 ar    
   13    7   10 1     
   14    8    9 1     
   15    9   18 1     
   16   10   11 1     
   17   10   12 1     
   18   10   13 1     
@<TRIPOS>SUBSTRUCTURE
      1 ****           1
@<TRIPOS>SET
DONOR_HYDROGENS      STATIC     ATOMS    <user>   **** ""
3 16 17 18
ATOM$RED        STATIC     ATOMS    COLORGROUP SYSTEM
3 16 17 18
@<TRIPOS>COMMENT
> <Gold.Version>
2022.2.0

> <Gold.Id.Protein>
1qkm|1qkm_protein|mol2

> <Gold.Protein.RotatedTorsions>
[  496  491  490  487 ] final -138.82 input  -89.99 | X-H torsion

> <Gold.Protein.ActiveResidues>
 MET295  LEU298  THR299  LEU301  ALA302  GLU305  TRP335  MET336  LEU339  MET340 
 GLY342  LEU343  ARG346  PHE356  ILE373  ILE376  PHE377  LEU380  LYS471  GLY472 
 MET473  HIS475  LEU476  LEU477  ASN478  MET479  VAL484  VAL487 

> <Gold.Protein.RotatedAtoms>
   37.1663   34.0917   40.7256 H   0  0  0  0  0  0  0  0  0  0  0  0  # atno 496  bound_to 491 

> <Gold.Score>
     Score     S(PLP)   S(hbond)     S(cho)   S(metal)  DE(clash)   DE(tors)     intcor
     38.28     -35.57       1.00       0.00       0.00       1.29       0.98       2.96

> <Gold.PLP.Fitness>
38.2799

> <Gold.PLP.PLP>
-35.5667

> <Gold.PLP.part.hbond>
-1.0000

> <Gold.PLP.part.metal>
0.0000

> <Gold.PLP.part.buried>
-1.7554

> <Gold.PLP.part.nonpolar>
-32.8726

> <Gold.PLP.part.repulsive>
0.0651

> <Gold.PLP.ligand.clash>
1.2938

> <Gold.PLP.ligand.torsion>
0.9789

> <Gold.PLP.Chemscore.Hbond>
1.0000

> <Gold.PLP.Chemscore.CHOScore>
0.0000

> <Gold.PLP.Chemscore.Metal>
0.0000

> <Gold.Chemscore.Hbonds>
donor molecule, donor type, donor heavy atom, donor atom, acceptor molecule, acceptor atom, score
      L1  H     9    18       P1   470  1.00

> <Gold.PLP.Chemscore.Internal.Correction>
2.9648

