#       Name:                EN300-1722344_i001
#       Creating user name   aseyller
#       Creation time:       Fri Apr 21 16:38:38 2023


#       File generated by GOLD software.
#

@<TRIPOS>MOLECULE
EN300-1722344_i001|aminophenols|mol2|81|dock7
    18    18     1
SMALL
USER_CHARGES


@<TRIPOS>ATOM
      1 N1          28.4689  36.8391  39.8980 N.pl3          1 <1>                0.0000
      2 C2          29.3872  37.1299  38.8826 C.ar           1 <1>                0.0000
      3 C3          29.2319  38.2721  38.1109 C.ar           1 <1>                0.0000
      4 C4          30.1407  38.5573  37.1081 C.ar           1 <1>                0.0000
      5 Br5         29.9282  40.1149  36.0572 Br             1 <1>                0.0000
      6 C6          31.2050  37.7056  36.8726 C.ar           1 <1>                0.0000
      7 C7          31.3652  36.5651  37.6381 C.ar           1 <1>                0.0000
      8 C8          30.4627  36.2761  38.6482 C.ar           1 <1>                0.0000
      9 O9          30.6197  35.1548  39.4021 O.3            1 <1>                0.0000
     10 C10         32.5256  35.6398  37.3772 C.3            1 <1>                0.0000
     11 F11         33.5765  35.9533  38.2458 F              1 <1>                0.0000
     12 F12         32.1240  34.3167  37.5896 F              1 <1>                0.0000
     13 F13         32.9538  35.7904  36.0539 F              1 <1>                0.0000
     14 H14         28.4014  38.9383  38.2927 H              1 <1>                0.0000
     15 H15         31.9125  37.9317  36.0886 H              1 <1>                0.0000
     16 H16         27.7228  37.4365  40.0629 H              1 <1>                0.0000
     17 H17         28.5764  36.0379  40.4343 H              1 <1>                0.0000
     18 H18         31.1298  35.2934  40.2118 H              1 <1>                0.0000
@<TRIPOS>BOND
    1    1    2 1     
    2    1   16 1     
    3    1   17 1     
    4    2    3 ar    
    5    2    8 ar    
    6    3    4 ar    
    7    3   14 1     
    8    4    5 1     
    9    4    6 ar    
   10    6    7 ar    
   11    6   15 1     
   12    7    8 ar    
   13    7   10 1     
   14    8    9 1     
   15    9   18 1     
   16   10   11 1     
   17   10   12 1     
   18   10   13 1     
@<TRIPOS>SUBSTRUCTURE
      1 ****           1
@<TRIPOS>SET
DONOR_HYDROGENS      STATIC     ATOMS    <user>   **** ""
3 16 17 18
ATOM$RED        STATIC     ATOMS    COLORGROUP SYSTEM
3 16 17 18
@<TRIPOS>COMMENT
> <Gold.Version>
2022.2.0

> <Gold.Id.Protein>
1qkm|1qkm_protein|mol2

> <Gold.Protein.RotatedTorsions>
[  496  491  490  487 ] final  122.78 input  -89.99 | X-H torsion

> <Gold.Protein.ActiveResidues>
 MET295  LEU298  THR299  LEU301  ALA302  GLU305  TRP335  MET336  LEU339  MET340 
 GLY342  LEU343  ARG346  PHE356  ILE373  ILE376  PHE377  LEU380  LYS471  GLY472 
 MET473  HIS475  LEU476  LEU477  ASN478  MET479  VAL484  VAL487 

> <Gold.Protein.RotatedAtoms>
   37.1017   32.9483   41.5785 H   0  0  0  0  0  0  0  0  0  0  0  0  # atno 496  bound_to 491 

> <Gold.Score>
     Score     S(PLP)   S(hbond)     S(cho)   S(metal)  DE(clash)   DE(tors)     intcor
     42.28     -39.47       1.00       0.00       0.00       1.10       1.03       2.96

> <Gold.PLP.Fitness>
42.2764

> <Gold.PLP.PLP>
-39.4700

> <Gold.PLP.part.hbond>
-1.0000

> <Gold.PLP.part.metal>
0.0000

> <Gold.PLP.part.buried>
-3.0173

> <Gold.PLP.part.nonpolar>
-36.0160

> <Gold.PLP.part.repulsive>
0.0000

> <Gold.PLP.ligand.clash>
1.0991

> <Gold.PLP.ligand.torsion>
1.0296

> <Gold.PLP.Chemscore.Hbond>
1.0000

> <Gold.PLP.Chemscore.CHOScore>
0.0000

> <Gold.PLP.Chemscore.Metal>
0.0000

> <Gold.Chemscore.Hbonds>
donor molecule, donor type, donor heavy atom, donor atom, acceptor molecule, acceptor atom, score
      L1  H     9    18       P1   470  1.00

> <Gold.PLP.Chemscore.Internal.Correction>
2.9648

