#       Name:                EN300-1722344_i001
#       Creating user name   aseyller
#       Creation time:       Fri Apr 21 16:38:35 2023


#       File generated by GOLD software.
#

@<TRIPOS>MOLECULE
EN300-1722344_i001|aminophenols|mol2|81|dock1
    18    18     1
SMALL
USER_CHARGES


@<TRIPOS>ATOM
      1 N1          28.8067  35.5766  40.5513 N.pl3          1 <1>                0.0000
      2 C2          29.3662  36.2009  39.4305 C.ar           1 <1>                0.0000
      3 C3          28.7349  37.2943  38.8559 C.ar           1 <1>                0.0000
      4 C4          29.2899  37.9093  37.7485 C.ar           1 <1>                0.0000
      5 Br5         28.4285  39.4000  36.9665 Br             1 <1>                0.0000
      6 C6          30.4740  37.4365  37.2120 C.ar           1 <1>                0.0000
      7 C7          31.1081  36.3467  37.7798 C.ar           1 <1>                0.0000
      8 C8          30.5617  35.7294  38.8928 C.ar           1 <1>                0.0000
      9 O9          31.1850  34.6576  39.4523 O.3            1 <1>                0.0000
     10 C10         32.3974  35.8346  37.1913 C.3            1 <1>                0.0000
     11 F11         33.4790  36.3890  37.8840 F              1 <1>                0.0000
     12 F12         32.4388  34.4406  37.3007 F              1 <1>                0.0000
     13 F13         32.4715  36.1989  35.8425 F              1 <1>                0.0000
     14 H14         27.8101  37.6648  39.2729 H              1 <1>                0.0000
     15 H15         30.9042  37.9195  36.3471 H              1 <1>                0.0000
     16 H16         27.9764  35.9084  40.9272 H              1 <1>                0.0000
     17 H17         29.2472  34.8096  40.9497 H              1 <1>                0.0000
     18 H18         31.4884  34.8078  40.3581 H              1 <1>                0.0000
@<TRIPOS>BOND
    1    1    2 1     
    2    1   16 1     
    3    1   17 1     
    4    2    3 ar    
    5    2    8 ar    
    6    3    4 ar    
    7    3   14 1     
    8    4    5 1     
    9    4    6 ar    
   10    6    7 ar    
   11    6   15 1     
   12    7    8 ar    
   13    7   10 1     
   14    8    9 1     
   15    9   18 1     
   16   10   11 1     
   17   10   12 1     
   18   10   13 1     
@<TRIPOS>SUBSTRUCTURE
      1 ****           1
@<TRIPOS>SET
DONOR_HYDROGENS      STATIC     ATOMS    <user>   **** ""
3 16 17 18
ATOM$RED        STATIC     ATOMS    COLORGROUP SYSTEM
3 16 17 18
@<TRIPOS>COMMENT
> <Gold.Version>
2022.2.0

> <Gold.Id.Protein>
1qkm|1qkm_protein|mol2

> <Gold.Protein.RotatedTorsions>
[  496  491  490  487 ] final  -87.71 input  -89.99 | X-H torsion

> <Gold.Protein.ActiveResidues>
 MET295  LEU298  THR299  LEU301  ALA302  GLU305  TRP335  MET336  LEU339  MET340 
 GLY342  LEU343  ARG346  PHE356  ILE373  ILE376  PHE377  LEU380  LYS471  GLY472 
 MET473  HIS475  LEU476  LEU477  ASN478  MET479  VAL484  VAL487 

> <Gold.Protein.RotatedAtoms>
   36.7362   34.6677   41.1070 H   0  0  0  0  0  0  0  0  0  0  0  0  # atno 496  bound_to 491 

> <Gold.Score>
     Score     S(PLP)   S(hbond)     S(cho)   S(metal)  DE(clash)   DE(tors)     intcor
     43.21     -40.41       1.00       0.00       0.00       1.11       1.03       2.97

> <Gold.PLP.Fitness>
43.2104

> <Gold.PLP.PLP>
-40.4106

> <Gold.PLP.part.hbond>
-1.0000

> <Gold.PLP.part.metal>
0.0000

> <Gold.PLP.part.buried>
-1.9161

> <Gold.PLP.part.nonpolar>
-37.3546

> <Gold.PLP.part.repulsive>
0.0498

> <Gold.PLP.ligand.clash>
1.1059

> <Gold.PLP.ligand.torsion>
1.0296

> <Gold.PLP.Chemscore.Hbond>
1.0000

> <Gold.PLP.Chemscore.CHOScore>
0.0000

> <Gold.PLP.Chemscore.Metal>
0.0000

> <Gold.Chemscore.Hbonds>
donor molecule, donor type, donor heavy atom, donor atom, acceptor molecule, acceptor atom, score
      L1  H     9    18       P1   470  1.00

> <Gold.PLP.Chemscore.Internal.Correction>
2.9650

