#       Name:                EN300-1722344_i001
#       Creating user name   aseyller
#       Creation time:       Fri Apr 21 16:38:39 2023


#       File generated by GOLD software.
#

@<TRIPOS>MOLECULE
EN300-1722344_i001|aminophenols|mol2|81|dock8
    18    18     1
SMALL
USER_CHARGES


@<TRIPOS>ATOM
      1 N1          29.0273  35.5097  41.3725 N.pl3          1 <1>                0.0000
      2 C2          28.7711  36.1418  40.1503 C.ar           1 <1>                0.0000
      3 C3          27.5231  36.6937  39.9010 C.ar           1 <1>                0.0000
      4 C4          27.2725  37.3178  38.6926 C.ar           1 <1>                0.0000
      5 Br5         25.5709  38.0701  38.3542 Br             1 <1>                0.0000
      6 C6          28.2641  37.3931  37.7310 C.ar           1 <1>                0.0000
      7 C7          29.5102  36.8446  37.9731 C.ar           1 <1>                0.0000
      8 C8          29.7707  36.2235  39.1834 C.ar           1 <1>                0.0000
      9 O9          30.9962  35.6842  39.4227 O.3            1 <1>                0.0000
     10 C10         30.5870  36.9283  36.9223 C.3            1 <1>                0.0000
     11 F11         31.4051  38.0336  37.1797 F              1 <1>                0.0000
     12 F12         31.3577  35.7611  36.9503 F              1 <1>                0.0000
     13 F13         29.9979  37.0679  35.6610 F              1 <1>                0.0000
     14 H14         26.7473  36.6357  40.6502 H              1 <1>                0.0000
     15 H15         28.0645  37.8812  36.7885 H              1 <1>                0.0000
     16 H16         28.3318  35.4571  42.0465 H              1 <1>                0.0000
     17 H17         29.8992  35.1208  41.5439 H              1 <1>                0.0000
     18 H18         31.1167  35.3677  40.3285 H              1 <1>                0.0000
@<TRIPOS>BOND
    1    1    2 1     
    2    1   16 1     
    3    1   17 1     
    4    2    3 ar    
    5    2    8 ar    
    6    3    4 ar    
    7    3   14 1     
    8    4    5 1     
    9    4    6 ar    
   10    6    7 ar    
   11    6   15 1     
   12    7    8 ar    
   13    7   10 1     
   14    8    9 1     
   15    9   18 1     
   16   10   11 1     
   17   10   12 1     
   18   10   13 1     
@<TRIPOS>SUBSTRUCTURE
      1 ****           1
@<TRIPOS>SET
DONOR_HYDROGENS      STATIC     ATOMS    <user>   **** ""
3 16 17 18
ATOM$RED        STATIC     ATOMS    COLORGROUP SYSTEM
3 16 17 18
@<TRIPOS>COMMENT
> <Gold.Version>
2022.2.0

> <Gold.Id.Protein>
1qkm|1qkm_protein|mol2

> <Gold.Protein.RotatedTorsions>
[  496  491  490  487 ] final   46.29 input  -89.99 | X-H torsion

> <Gold.Protein.ActiveResidues>
 MET295  LEU298  THR299  LEU301  ALA302  GLU305  TRP335  MET336  LEU339  MET340 
 GLY342  LEU343  ARG346  PHE356  ILE373  ILE376  PHE377  LEU380  LYS471  GLY472 
 MET473  HIS475  LEU476  LEU477  ASN478  MET479  VAL484  VAL487 

> <Gold.Protein.RotatedAtoms>
   36.4459   33.5079   42.3661 H   0  0  0  0  0  0  0  0  0  0  0  0  # atno 496  bound_to 491 

> <Gold.Score>
     Score     S(PLP)   S(hbond)     S(cho)   S(metal)  DE(clash)   DE(tors)     intcor
     37.82     -32.01       2.00       0.00       0.00       1.10       1.03       2.96

> <Gold.PLP.Fitness>
37.8194

> <Gold.PLP.PLP>
-32.0147

> <Gold.PLP.part.hbond>
-2.0000

> <Gold.PLP.part.metal>
0.0000

> <Gold.PLP.part.buried>
-1.3208

> <Gold.PLP.part.nonpolar>
-28.8048

> <Gold.PLP.part.repulsive>
0.0874

> <Gold.PLP.ligand.clash>
1.1008

> <Gold.PLP.ligand.torsion>
1.0296

> <Gold.PLP.Chemscore.Hbond>
2.0000

> <Gold.PLP.Chemscore.CHOScore>
0.0000

> <Gold.PLP.Chemscore.Metal>
0.0000

> <Gold.Chemscore.Hbonds>
donor molecule, donor type, donor heavy atom, donor atom, acceptor molecule, acceptor atom, score
      L1  H     1    17       P1   470  1.00
      L1  H     9    18       P1   470  1.00

> <Gold.PLP.Chemscore.Internal.Correction>
2.9648

