#       Name:                EN300-1722344_i001
#       Creating user name   aseyller
#       Creation time:       Fri Apr 21 16:38:36 2023


#       File generated by GOLD software.
#

@<TRIPOS>MOLECULE
EN300-1722344_i001|aminophenols|mol2|81|dock2
    18    18     1
SMALL
USER_CHARGES


@<TRIPOS>ATOM
      1 N1          32.7079  35.8656  37.8190 N.pl3          1 <1>                0.0000
      2 C2          31.4880  36.5487  37.8842 C.ar           1 <1>                0.0000
      3 C3          31.2996  37.7076  37.1455 C.ar           1 <1>                0.0000
      4 C4          30.0933  38.3807  37.2116 C.ar           1 <1>                0.0000
      5 Br5         29.8376  39.9601  36.2037 Br             1 <1>                0.0000
      6 C6          29.0732  37.9007  38.0133 C.ar           1 <1>                0.0000
      7 C7          29.2548  36.7463  38.7525 C.ar           1 <1>                0.0000
      8 C8          30.4579  36.0632  38.6866 C.ar           1 <1>                0.0000
      9 O9          30.6372  34.9272  39.4130 O.3            1 <1>                0.0000
     10 C10         28.1410  36.2277  39.6251 C.3            1 <1>                0.0000
     11 F11         26.9934  37.0028  39.4265 F              1 <1>                0.0000
     12 F12         27.8683  34.8968  39.2916 F              1 <1>                0.0000
     13 F13         28.5273  36.3022  40.9677 F              1 <1>                0.0000
     14 H14         32.0948  38.0844  36.5192 H              1 <1>                0.0000
     15 H15         28.1326  38.4292  38.0623 H              1 <1>                0.0000
     16 H16         33.4229  36.2024  37.2568 H              1 <1>                0.0000
     17 H17         32.8396  35.0575  38.3392 H              1 <1>                0.0000
     18 H18         31.2986  35.0087  40.1137 H              1 <1>                0.0000
@<TRIPOS>BOND
    1    1    2 1     
    2    1   16 1     
    3    1   17 1     
    4    2    3 ar    
    5    2    8 ar    
    6    3    4 ar    
    7    3   14 1     
    8    4    5 1     
    9    4    6 ar    
   10    6    7 ar    
   11    6   15 1     
   12    7    8 ar    
   13    7   10 1     
   14    8    9 1     
   15    9   18 1     
   16   10   11 1     
   17   10   12 1     
   18   10   13 1     
@<TRIPOS>SUBSTRUCTURE
      1 ****           1
@<TRIPOS>SET
DONOR_HYDROGENS      STATIC     ATOMS    <user>   **** ""
3 16 17 18
ATOM$RED        STATIC     ATOMS    COLORGROUP SYSTEM
3 16 17 18
@<TRIPOS>COMMENT
> <Gold.Version>
2022.2.0

> <Gold.Id.Protein>
1qkm|1qkm_protein|mol2

> <Gold.Protein.RotatedTorsions>
[  496  491  490  487 ] final  128.57 input  -89.99 | X-H torsion

> <Gold.Protein.ActiveResidues>
 MET295  LEU298  THR299  LEU301  ALA302  GLU305  TRP335  MET336  LEU339  MET340 
 GLY342  LEU343  ARG346  PHE356  ILE373  ILE376  PHE377  LEU380  LYS471  GLY472 
 MET473  HIS475  LEU476  LEU477  ASN478  MET479  VAL484  VAL487 

> <Gold.Protein.RotatedAtoms>
   37.1433   32.9655   41.4944 H   0  0  0  0  0  0  0  0  0  0  0  0  # atno 496  bound_to 491 

> <Gold.Score>
     Score     S(PLP)   S(hbond)     S(cho)   S(metal)  DE(clash)   DE(tors)     intcor
     43.90     -40.99       1.00       0.00       0.00       2.87       0.10       2.96

> <Gold.PLP.Fitness>
43.9014

> <Gold.PLP.PLP>
-40.9949

> <Gold.PLP.part.hbond>
-1.0000

> <Gold.PLP.part.metal>
0.0000

> <Gold.PLP.part.buried>
-2.8500

> <Gold.PLP.part.nonpolar>
-38.1586

> <Gold.PLP.part.repulsive>
0.0435

> <Gold.PLP.ligand.clash>
2.8676

> <Gold.PLP.ligand.torsion>
0.0954

> <Gold.PLP.Chemscore.Hbond>
1.0000

> <Gold.PLP.Chemscore.CHOScore>
0.0000

> <Gold.PLP.Chemscore.Metal>
0.0000

> <Gold.Chemscore.Hbonds>
donor molecule, donor type, donor heavy atom, donor atom, acceptor molecule, acceptor atom, score
      L1  H     9    18       P1   470  1.00

> <Gold.PLP.Chemscore.Internal.Correction>
2.9648

