#       Name:                EN300-1722344_i001
#       Creating user name   aseyller
#       Creation time:       Fri Apr 21 16:38:39 2023


#       File generated by GOLD software.
#

@<TRIPOS>MOLECULE
EN300-1722344_i001|aminophenols|mol2|81|dock10
    18    18     1
SMALL
USER_CHARGES


@<TRIPOS>ATOM
      1 N1          31.9748  35.7889  38.4342 N.pl3          1 <1>                0.0000
      2 C2          30.7401  36.4479  38.4386 C.ar           1 <1>                0.0000
      3 C3          30.4763  37.4370  37.5024 C.ar           1 <1>                0.0000
      4 C4          29.2555  38.0867  37.5089 C.ar           1 <1>                0.0000
      5 Br5         28.8971  39.4344  36.2318 Br             1 <1>                0.0000
      6 C6          28.2959  37.7524  38.4476 C.ar           1 <1>                0.0000
      7 C7          28.5527  36.7677  39.3838 C.ar           1 <1>                0.0000
      8 C8          29.7706  36.1082  39.3796 C.ar           1 <1>                0.0000
      9 O9          30.0239  35.1391  40.2998 O.3            1 <1>                0.0000
     10 C10         27.5045  36.4076  40.4049 C.3            1 <1>                0.0000
     11 F11         27.2198  35.0407  40.3190 F              1 <1>                0.0000
     12 F12         27.9802  36.7052  41.6864 F              1 <1>                0.0000
     13 F13         26.3403  37.1429  40.1573 F              1 <1>                0.0000
     14 H14         31.2243  37.6999  36.7689 H              1 <1>                0.0000
     15 H15         27.3437  38.2621  38.4494 H              1 <1>                0.0000
     16 H16         32.6474  36.0235  37.7759 H              1 <1>                0.0000
     17 H17         32.1593  35.1002  39.0919 H              1 <1>                0.0000
     18 H18         30.8642  35.2489  40.7656 H              1 <1>                0.0000
@<TRIPOS>BOND
    1    1    2 1     
    2    1   16 1     
    3    1   17 1     
    4    2    3 ar    
    5    2    8 ar    
    6    3    4 ar    
    7    3   14 1     
    8    4    5 1     
    9    4    6 ar    
   10    6    7 ar    
   11    6   15 1     
   12    7    8 ar    
   13    7   10 1     
   14    8    9 1     
   15    9   18 1     
   16   10   11 1     
   17   10   12 1     
   18   10   13 1     
@<TRIPOS>SUBSTRUCTURE
      1 ****           1
@<TRIPOS>SET
DONOR_HYDROGENS      STATIC     ATOMS    <user>   **** ""
3 16 17 18
ATOM$RED        STATIC     ATOMS    COLORGROUP SYSTEM
3 16 17 18
@<TRIPOS>COMMENT
> <Gold.Version>
2022.2.0

> <Gold.Id.Protein>
1qkm|1qkm_protein|mol2

> <Gold.Protein.RotatedTorsions>
[  496  491  490  487 ] final   -4.02 input  -89.99 | X-H torsion

> <Gold.Protein.ActiveResidues>
 MET295  LEU298  THR299  LEU301  ALA302  GLU305  TRP335  MET336  LEU339  MET340 
 GLY342  LEU343  ARG346  PHE356  ILE373  ILE376  PHE377  LEU380  LYS471  GLY472 
 MET473  HIS475  LEU476  LEU477  ASN478  MET479  VAL484  VAL487 

> <Gold.Protein.RotatedAtoms>
   36.2588   34.2698   42.2013 H   0  0  0  0  0  0  0  0  0  0  0  0  # atno 496  bound_to 491 

> <Gold.Score>
     Score     S(PLP)   S(hbond)     S(cho)   S(metal)  DE(clash)   DE(tors)     intcor
     38.85     -35.89       1.00       0.00       0.00       2.93       0.04       2.96

> <Gold.PLP.Fitness>
38.8508

> <Gold.PLP.PLP>
-35.8946

> <Gold.PLP.part.hbond>
-0.9929

> <Gold.PLP.part.metal>
0.0000

> <Gold.PLP.part.buried>
-1.2130

> <Gold.PLP.part.nonpolar>
-34.5140

> <Gold.PLP.part.repulsive>
0.0568

> <Gold.PLP.ligand.clash>
2.9321

> <Gold.PLP.ligand.torsion>
0.0383

> <Gold.PLP.Chemscore.Hbond>
1.0000

> <Gold.PLP.Chemscore.CHOScore>
0.0000

> <Gold.PLP.Chemscore.Metal>
0.0000

> <Gold.Chemscore.Hbonds>
donor molecule, donor type, donor heavy atom, donor atom, acceptor molecule, acceptor atom, score
      L1  H     9    18       P1   470  1.00

> <Gold.PLP.Chemscore.Internal.Correction>
2.9648

