#       Name:                EN300-1722344_i001
#       Creating user name   aseyller
#       Creation time:       Fri Apr 21 16:38:44 2023


#       File generated by GOLD software.
#

@<TRIPOS>MOLECULE
EN300-1722344_i001|aminophenols|mol2|81|dock19
    18    18     1
SMALL
USER_CHARGES


@<TRIPOS>ATOM
      1 N1          29.0837  39.8464  36.1060 N.pl3          1 <1>                0.0000
      2 C2          29.7375  38.7790  36.7322 C.ar           1 <1>                0.0000
      3 C3          29.3221  38.3466  37.9832 C.ar           1 <1>                0.0000
      4 C4          29.9699  37.2917  38.5998 C.ar           1 <1>                0.0000
      5 Br5         29.4024  36.7030  40.3049 Br             1 <1>                0.0000
      6 C6          31.0317  36.6660  37.9716 C.ar           1 <1>                0.0000
      7 C7          31.4509  37.0924  36.7248 C.ar           1 <1>                0.0000
      8 C8          30.8032  38.1441  36.0982 C.ar           1 <1>                0.0000
      9 O9          31.2145  38.5640  34.8715 O.3            1 <1>                0.0000
     10 C10         32.6087  36.4082  36.0448 C.3            1 <1>                0.0000
     11 F11         33.4252  35.8057  37.0077 F              1 <1>                0.0000
     12 F12         32.1238  35.4322  35.1677 F              1 <1>                0.0000
     13 F13         33.3519  37.3519  35.3275 F              1 <1>                0.0000
     14 H14         28.4936  38.8340  38.4756 H              1 <1>                0.0000
     15 H15         31.5349  35.8425  38.4565 H              1 <1>                0.0000
     16 H16         28.3392  40.2848  36.5467 H              1 <1>                0.0000
     17 H17         29.3777  40.1502  35.2330 H              1 <1>                0.0000
     18 H18         32.1037  38.2688  34.6324 H              1 <1>                0.0000
@<TRIPOS>BOND
    1    1    2 1     
    2    1   16 1     
    3    1   17 1     
    4    2    3 ar    
    5    2    8 ar    
    6    3    4 ar    
    7    3   14 1     
    8    4    5 1     
    9    4    6 ar    
   10    6    7 ar    
   11    6   15 1     
   12    7    8 ar    
   13    7   10 1     
   14    8    9 1     
   15    9   18 1     
   16   10   11 1     
   17   10   12 1     
   18   10   13 1     
@<TRIPOS>SUBSTRUCTURE
      1 ****           1
@<TRIPOS>SET
DONOR_HYDROGENS      STATIC     ATOMS    <user>   **** ""
3 16 17 18
ATOM$RED        STATIC     ATOMS    COLORGROUP SYSTEM
3 16 17 18
@<TRIPOS>COMMENT
> <Gold.Version>
2022.2.0

> <Gold.Id.Protein>
1qkm|1qkm_protein|mol2

> <Gold.Protein.RotatedTorsions>
[  496  491  490  487 ] final  -62.31 input  -89.99 | X-H torsion

> <Gold.Protein.ActiveResidues>
 MET295  LEU298  THR299  LEU301  ALA302  GLU305  TRP335  MET336  LEU339  MET340 
 GLY342  LEU343  ARG346  PHE356  ILE373  ILE376  PHE377  LEU380  LYS471  GLY472 
 MET473  HIS475  LEU476  LEU477  ASN478  MET479  VAL484  VAL487 

> <Gold.Protein.RotatedAtoms>
   36.5151   34.7346   41.4513 H   0  0  0  0  0  0  0  0  0  0  0  0  # atno 496  bound_to 491 

> <Gold.Score>
     Score     S(PLP)   S(hbond)     S(cho)   S(metal)  DE(clash)   DE(tors)     intcor
     36.43     -36.64       0.00       0.00       0.00       1.12       1.03       2.96

> <Gold.PLP.Fitness>
36.4287

> <Gold.PLP.PLP>
-36.6427

> <Gold.PLP.part.hbond>
0.0000

> <Gold.PLP.part.metal>
0.0000

> <Gold.PLP.part.buried>
-2.2834

> <Gold.PLP.part.nonpolar>
-35.0595

> <Gold.PLP.part.repulsive>
0.0000

> <Gold.PLP.ligand.clash>
1.1195

> <Gold.PLP.ligand.torsion>
1.0296

> <Gold.PLP.Chemscore.Hbond>
0.0000

> <Gold.PLP.Chemscore.CHOScore>
0.0000

> <Gold.PLP.Chemscore.Metal>
0.0000

> <Gold.PLP.Chemscore.Internal.Correction>
2.9648

