#       Name:                EN300-1722344_i001
#       Creating user name   aseyller
#       Creation time:       Fri Apr 21 16:38:37 2023


#       File generated by GOLD software.
#

@<TRIPOS>MOLECULE
EN300-1722344_i001|aminophenols|mol2|81|dock5
    18    18     1
SMALL
USER_CHARGES


@<TRIPOS>ATOM
      1 N1          33.1852  35.1171  37.2677 N.pl3          1 <1>                0.0000
      2 C2          32.0959  35.9904  37.3660 C.ar           1 <1>                0.0000
      3 C3          31.9870  37.0667  36.4977 C.ar           1 <1>                0.0000
      4 C4          30.9096  37.9282  36.5969 C.ar           1 <1>                0.0000
      5 Br5         30.7621  39.3947  35.4123 Br             1 <1>                0.0000
      6 C6          29.9395  37.7190  37.5607 C.ar           1 <1>                0.0000
      7 C7          30.0425  36.6482  38.4295 C.ar           1 <1>                0.0000
      8 C8          31.1152  35.7775  38.3323 C.ar           1 <1>                0.0000
      9 O9          31.2171  34.7236  39.1862 O.3            1 <1>                0.0000
     10 C10         28.9837  36.4249  39.4784 C.3            1 <1>                0.0000
     11 F11         29.3984  36.9923  40.6879 F              1 <1>                0.0000
     12 F12         27.7875  37.0234  39.0684 F              1 <1>                0.0000
     13 F13         28.7822  35.0514  39.6525 F              1 <1>                0.0000
     14 H14         32.7434  37.2322  35.7448 H              1 <1>                0.0000
     15 H15         29.0997  38.3940  37.6349 H              1 <1>                0.0000
     16 H16         33.8652  35.2640  36.5918 H              1 <1>                0.0000
     17 H17         33.2622  34.3671  37.8781 H              1 <1>                0.0000
     18 H18         31.3142  34.9773  40.1142 H              1 <1>                0.0000
@<TRIPOS>BOND
    1    1    2 1     
    2    1   16 1     
    3    1   17 1     
    4    2    3 ar    
    5    2    8 ar    
    6    3    4 ar    
    7    3   14 1     
    8    4    5 1     
    9    4    6 ar    
   10    6    7 ar    
   11    6   15 1     
   12    7    8 ar    
   13    7   10 1     
   14    8    9 1     
   15    9   18 1     
   16   10   11 1     
   17   10   12 1     
   18   10   13 1     
@<TRIPOS>SUBSTRUCTURE
      1 ****           1
@<TRIPOS>SET
DONOR_HYDROGENS      STATIC     ATOMS    <user>   **** ""
3 16 17 18
ATOM$RED        STATIC     ATOMS    COLORGROUP SYSTEM
3 16 17 18
@<TRIPOS>COMMENT
> <Gold.Version>
2022.2.0

> <Gold.Id.Protein>
1qkm|1qkm_protein|mol2

> <Gold.Protein.RotatedTorsions>
[  496  491  490  487 ] final  -48.08 input  -89.99 | X-H torsion

> <Gold.Protein.ActiveResidues>
 MET295  LEU298  THR299  LEU301  ALA302  GLU305  TRP335  MET336  LEU339  MET340 
 GLY342  LEU343  ARG346  PHE356  ILE373  ILE376  PHE377  LEU380  LYS471  GLY472 
 MET473  HIS475  LEU476  LEU477  ASN478  MET479  VAL484  VAL487 

> <Gold.Protein.RotatedAtoms>
   36.4119   34.6958   41.6573 H   0  0  0  0  0  0  0  0  0  0  0  0  # atno 496  bound_to 491 

> <Gold.Score>
     Score     S(PLP)   S(hbond)     S(cho)   S(metal)  DE(clash)   DE(tors)     intcor
     40.80     -38.04       1.00       0.00       0.00       1.15       1.02       2.96

> <Gold.PLP.Fitness>
40.8041

> <Gold.PLP.PLP>
-38.0367

> <Gold.PLP.part.hbond>
-1.0000

> <Gold.PLP.part.metal>
0.0000

> <Gold.PLP.part.buried>
-1.5368

> <Gold.PLP.part.nonpolar>
-36.5827

> <Gold.PLP.part.repulsive>
0.0241

> <Gold.PLP.ligand.clash>
1.1527

> <Gold.PLP.ligand.torsion>
1.0223

> <Gold.PLP.Chemscore.Hbond>
1.0000

> <Gold.PLP.Chemscore.CHOScore>
0.0000

> <Gold.PLP.Chemscore.Metal>
0.0000

> <Gold.Chemscore.Hbonds>
donor molecule, donor type, donor heavy atom, donor atom, acceptor molecule, acceptor atom, score
      L1  H     9    18       P1   470  1.00

> <Gold.PLP.Chemscore.Internal.Correction>
2.9648

