#       Name:                EN300-1722344_i001
#       Creating user name   aseyller
#       Creation time:       Fri Apr 21 16:38:40 2023


#       File generated by GOLD software.
#

@<TRIPOS>MOLECULE
EN300-1722344_i001|aminophenols|mol2|81|dock12
    18    18     1
SMALL
USER_CHARGES


@<TRIPOS>ATOM
      1 N1          31.7990  34.3723  39.0910 N.pl3          1 <1>                0.0000
      2 C2          30.9099  35.4115  38.7932 C.ar           1 <1>                0.0000
      3 C3          29.7175  35.5283  39.4924 C.ar           1 <1>                0.0000
      4 C4          28.8407  36.5560  39.1962 C.ar           1 <1>                0.0000
      5 Br5         27.2158  36.7144  40.1503 Br             1 <1>                0.0000
      6 C6          29.1502  37.4686  38.2037 C.ar           1 <1>                0.0000
      7 C7          30.3370  37.3574  37.5028 C.ar           1 <1>                0.0000
      8 C8          31.2230  36.3346  37.7980 C.ar           1 <1>                0.0000
      9 O9          32.3909  36.2248  37.1094 O.3            1 <1>                0.0000
     10 C10         30.6693  38.3534  36.4218 C.3            1 <1>                0.0000
     11 F11         30.2947  37.8341  35.1780 F              1 <1>                0.0000
     12 F12         29.9765  39.5457  36.6572 F              1 <1>                0.0000
     13 F13         32.0455  38.6050  36.4267 F              1 <1>                0.0000
     14 H14         29.4737  34.8167  40.2674 H              1 <1>                0.0000
     15 H15         28.4628  38.2697  37.9753 H              1 <1>                0.0000
     16 H16         31.5817  33.7327  39.7870 H              1 <1>                0.0000
     17 H17         32.6306  34.2895  38.5986 H              1 <1>                0.0000
     18 H18         32.5385  36.9346  36.4695 H              1 <1>                0.0000
@<TRIPOS>BOND
    1    1    2 1     
    2    1   16 1     
    3    1   17 1     
    4    2    3 ar    
    5    2    8 ar    
    6    3    4 ar    
    7    3   14 1     
    8    4    5 1     
    9    4    6 ar    
   10    6    7 ar    
   11    6   15 1     
   12    7    8 ar    
   13    7   10 1     
   14    8    9 1     
   15    9   18 1     
   16   10   11 1     
   17   10   12 1     
   18   10   13 1     
@<TRIPOS>SUBSTRUCTURE
      1 ****           1
@<TRIPOS>SET
DONOR_HYDROGENS      STATIC     ATOMS    <user>   **** ""
3 16 17 18
ATOM$RED        STATIC     ATOMS    COLORGROUP SYSTEM
3 16 17 18
@<TRIPOS>COMMENT
> <Gold.Version>
2022.2.0

> <Gold.Id.Protein>
1qkm|1qkm_protein|mol2

> <Gold.Protein.RotatedTorsions>
[  496  491  490  487 ] final -130.69 input  -89.99 | X-H torsion

> <Gold.Protein.ActiveResidues>
 MET295  LEU298  THR299  LEU301  ALA302  GLU305  TRP335  MET336  LEU339  MET340 
 GLY342  LEU343  ARG346  PHE356  ILE373  ILE376  PHE377  LEU380  LYS471  GLY472 
 MET473  HIS475  LEU476  LEU477  ASN478  MET479  VAL484  VAL487 

> <Gold.Protein.RotatedAtoms>
   37.1099   34.2110   40.7473 H   0  0  0  0  0  0  0  0  0  0  0  0  # atno 496  bound_to 491 

> <Gold.Score>
     Score     S(PLP)   S(hbond)     S(cho)   S(metal)  DE(clash)   DE(tors)     intcor
     38.76     -38.99       0.00       0.00       0.00       1.15       1.02       2.96

> <Gold.PLP.Fitness>
38.7588

> <Gold.PLP.PLP>
-38.9851

> <Gold.PLP.part.hbond>
-0.9285

> <Gold.PLP.part.metal>
0.0000

> <Gold.PLP.part.buried>
-2.7871

> <Gold.PLP.part.nonpolar>
-36.2962

> <Gold.PLP.part.repulsive>
0.0846

> <Gold.PLP.ligand.clash>
1.1465

> <Gold.PLP.ligand.torsion>
1.0223

> <Gold.PLP.Chemscore.Hbond>
0.0000

> <Gold.PLP.Chemscore.CHOScore>
0.0000

> <Gold.PLP.Chemscore.Metal>
0.0000

> <Gold.PLP.Chemscore.Internal.Correction>
2.9648

