#       Name:                EN300-1722344_i001
#       Creating user name   aseyller
#       Creation time:       Fri Apr 21 16:38:41 2023


#       File generated by GOLD software.
#

@<TRIPOS>MOLECULE
EN300-1722344_i001|aminophenols|mol2|81|dock14
    18    18     1
SMALL
USER_CHARGES


@<TRIPOS>ATOM
      1 N1          32.6761  33.9476  37.9019 N.pl3          1 <1>                0.0000
      2 C2          31.8844  35.0735  37.6480 C.ar           1 <1>                0.0000
      3 C3          32.1886  35.9124  36.5859 C.ar           1 <1>                0.0000
      4 C4          31.4047  37.0243  36.3372 C.ar           1 <1>                0.0000
      5 Br5         31.8202  38.1667  34.8888 Br             1 <1>                0.0000
      6 C6          30.3170  37.3021  37.1455 C.ar           1 <1>                0.0000
      7 C7          30.0087  36.4701  38.2061 C.ar           1 <1>                0.0000
      8 C8          30.7853  35.3512  38.4577 C.ar           1 <1>                0.0000
      9 O9          30.4825  34.5319  39.5004 O.3            1 <1>                0.0000
     10 C10         28.8233  36.7773  39.0844 C.3            1 <1>                0.0000
     11 F11         29.2595  37.0029  40.3944 F              1 <1>                0.0000
     12 F12         28.1723  37.9197  38.6065 F              1 <1>                0.0000
     13 F13         27.9375  35.6946  39.0678 F              1 <1>                0.0000
     14 H14         33.0376  35.6976  35.9538 H              1 <1>                0.0000
     15 H15         29.7073  38.1714  36.9480 H              1 <1>                0.0000
     16 H16         33.4387  33.7531  37.3349 H              1 <1>                0.0000
     17 H17         32.4646  33.3641  38.6473 H              1 <1>                0.0000
     18 H18         30.9473  34.7499  40.3198 H              1 <1>                0.0000
@<TRIPOS>BOND
    1    1    2 1     
    2    1   16 1     
    3    1   17 1     
    4    2    3 ar    
    5    2    8 ar    
    6    3    4 ar    
    7    3   14 1     
    8    4    5 1     
    9    4    6 ar    
   10    6    7 ar    
   11    6   15 1     
   12    7    8 ar    
   13    7   10 1     
   14    8    9 1     
   15    9   18 1     
   16   10   11 1     
   17   10   12 1     
   18   10   13 1     
@<TRIPOS>SUBSTRUCTURE
      1 ****           1
@<TRIPOS>SET
DONOR_HYDROGENS      STATIC     ATOMS    <user>   **** ""
3 16 17 18
ATOM$RED        STATIC     ATOMS    COLORGROUP SYSTEM
3 16 17 18
@<TRIPOS>COMMENT
> <Gold.Version>
2022.2.0

> <Gold.Id.Protein>
1qkm|1qkm_protein|mol2

> <Gold.Protein.RotatedTorsions>
[  496  491  490  487 ] final  -78.76 input  -89.99 | X-H torsion

> <Gold.Protein.ActiveResidues>
 MET295  LEU298  THR299  LEU301  ALA302  GLU305  TRP335  MET336  LEU339  MET340 
 GLY342  LEU343  ARG346  PHE356  ILE373  ILE376  PHE377  LEU380  LYS471  GLY472 
 MET473  HIS475  LEU476  LEU477  ASN478  MET479  VAL484  VAL487 

> <Gold.Protein.RotatedAtoms>
   36.6548   34.7110   41.2217 H   0  0  0  0  0  0  0  0  0  0  0  0  # atno 496  bound_to 491 

> <Gold.Score>
     Score     S(PLP)   S(hbond)     S(cho)   S(metal)  DE(clash)   DE(tors)     intcor
     35.31     -32.32       1.00       0.00       0.00       2.96       0.01       2.96

> <Gold.PLP.Fitness>
35.3055

> <Gold.PLP.PLP>
-32.3199

> <Gold.PLP.part.hbond>
-1.0000

> <Gold.PLP.part.metal>
0.0000

> <Gold.PLP.part.buried>
2.1055

> <Gold.PLP.part.nonpolar>
-33.7039

> <Gold.PLP.part.repulsive>
0.0402

> <Gold.PLP.ligand.clash>
2.9560

> <Gold.PLP.ligand.torsion>
0.0116

> <Gold.PLP.Chemscore.Hbond>
1.0000

> <Gold.PLP.Chemscore.CHOScore>
0.0000

> <Gold.PLP.Chemscore.Metal>
0.0000

> <Gold.Chemscore.Hbonds>
donor molecule, donor type, donor heavy atom, donor atom, acceptor molecule, acceptor atom, score
      L1  H     9    18       P1   470  1.00

> <Gold.PLP.Chemscore.Internal.Correction>
2.9648

