#       Name:                EN300-1722344_i001
#       Creating user name   aseyller
#       Creation time:       Fri Apr 21 16:38:35 2023


#       File generated by GOLD software.
#

@<TRIPOS>MOLECULE
EN300-1722344_i001
    18    18     1
SMALL
USER_CHARGES


@<TRIPOS>ATOM
      1 N1           0.2310   2.6927  -0.0599 N.pl3          1 <1>                0.0000
      2 C2           0.4406   1.3089  -0.0539 C.ar           1 <1>                0.0000
      3 C3           1.7315   0.8011  -0.0493 C.ar           1 <1>                0.0000
      4 C4           1.9359  -0.5667  -0.0434 C.ar           1 <1>                0.0000
      5 Br5          3.6961  -1.2576  -0.0366 Br             1 <1>                0.0000
      6 C6           0.8553  -1.4304  -0.0420 C.ar           1 <1>                0.0000
      7 C7          -0.4340  -0.9306  -0.0470 C.ar           1 <1>                0.0000
      8 C8          -0.6467   0.4380  -0.0466 C.ar           1 <1>                0.0000
      9 O9          -1.9146   0.9306  -0.0510 O.3            1 <1>                0.0000
     10 C10         -1.6080  -1.8754  -0.0464 C.3            1 <1>                0.0000
     11 F11         -1.1445  -3.1953  -0.0405 F              1 <1>                0.0000
     12 F12         -2.3876  -1.6498   1.0931 F              1 <1>                0.0000
     13 F13         -2.3820  -1.6581  -1.1914 F              1 <1>                0.0000
     14 H14          2.5766   1.4736  -0.0508 H              1 <1>                0.0000
     15 H15          1.0191  -2.4979  -0.0374 H              1 <1>                0.0000
     16 H16          0.9889   3.2980  -0.0608 H              1 <1>                0.0000
     17 H17         -0.6722   3.0464  -0.0672 H              1 <1>                0.0000
     18 H18         -2.2846   1.0723   0.8311 H              1 <1>                0.0000
@<TRIPOS>BOND
    1    1    2 1     
    2    1   16 1     
    3    1   17 1     
    4    2    3 ar    
    5    2    8 ar    
    6    3    4 ar    
    7    3   14 1     
    8    4    5 1     
    9    4    6 ar    
   10    6    7 ar    
   11    6   15 1     
   12    7    8 ar    
   13    7   10 1     
   14    8    9 1     
   15    9   18 1     
   16   10   11 1     
   17   10   12 1     
   18   10   13 1     
@<TRIPOS>SUBSTRUCTURE
      1 ****           1
@<TRIPOS>SET
DONOR_HYDROGENS      STATIC     ATOMS    <user>   **** ""
3 16 17 18
ATOM$RED        STATIC     ATOMS    COLORGROUP SYSTEM
3 16 17 18
