#       Name:                EN300-1722344_i001
#       Creating user name   aseyller
#       Creation time:       Fri Apr 21 16:38:37 2023


#       File generated by GOLD software.
#

@<TRIPOS>MOLECULE
EN300-1722344_i001|aminophenols|mol2|81|dock4
    18    18     1
SMALL
USER_CHARGES


@<TRIPOS>ATOM
      1 N1          29.7055  35.7319  40.4268 N.pl3          1 <1>                0.0000
      2 C2          29.8595  36.4065  39.2102 C.ar           1 <1>                0.0000
      3 C3          28.8883  37.3001  38.7827 C.ar           1 <1>                0.0000
      4 C4          29.0429  37.9653  37.5801 C.ar           1 <1>                0.0000
      5 Br5         27.7185  39.1835  36.9988 Br             1 <1>                0.0000
      6 C6          30.1645  37.7418  36.8018 C.ar           1 <1>                0.0000
      7 C7          31.1360  36.8520  37.2221 C.ar           1 <1>                0.0000
      8 C8          30.9913  36.1867  38.4282 C.ar           1 <1>                0.0000
      9 O9          31.9467  35.3116  38.8427 O.3            1 <1>                0.0000
     10 C10         32.3557  36.6110  36.3704 C.3            1 <1>                0.0000
     11 F11         33.4689  36.4152  37.1947 F              1 <1>                0.0000
     12 F12         32.1552  35.4745  35.5797 F              1 <1>                0.0000
     13 F13         32.5752  37.7198  35.5460 F              1 <1>                0.0000
     14 H14         28.0117  37.4758  39.3885 H              1 <1>                0.0000
     15 H15         30.2815  38.2632  35.8633 H              1 <1>                0.0000
     16 H16         28.9190  35.8890  40.9722 H              1 <1>                0.0000
     17 H17         30.3835  35.1044  40.7225 H              1 <1>                0.0000
     18 H18         31.8457  35.0247  39.7606 H              1 <1>                0.0000
@<TRIPOS>BOND
    1    1    2 1     
    2    1   16 1     
    3    1   17 1     
    4    2    3 ar    
    5    2    8 ar    
    6    3    4 ar    
    7    3   14 1     
    8    4    5 1     
    9    4    6 ar    
   10    6    7 ar    
   11    6   15 1     
   12    7    8 ar    
   13    7   10 1     
   14    8    9 1     
   15    9   18 1     
   16   10   11 1     
   17   10   12 1     
   18   10   13 1     
@<TRIPOS>SUBSTRUCTURE
      1 ****           1
@<TRIPOS>SET
DONOR_HYDROGENS      STATIC     ATOMS    <user>   **** ""
3 16 17 18
ATOM$RED        STATIC     ATOMS    COLORGROUP SYSTEM
3 16 17 18
@<TRIPOS>COMMENT
> <Gold.Version>
2022.2.0

> <Gold.Id.Protein>
1qkm|1qkm_protein|mol2

> <Gold.Protein.RotatedTorsions>
[  496  491  490  487 ] final -173.12 input  -89.99 | X-H torsion

> <Gold.Protein.ActiveResidues>
 MET295  LEU298  THR299  LEU301  ALA302  GLU305  TRP335  MET336  LEU339  MET340 
 GLY342  LEU343  ARG346  PHE356  ILE373  ILE376  PHE377  LEU380  LYS471  GLY472 
 MET473  HIS475  LEU476  LEU477  ASN478  MET479  VAL484  VAL487 

> <Gold.Protein.RotatedAtoms>
   37.3103   33.5621   40.8157 H   0  0  0  0  0  0  0  0  0  0  0  0  # atno 496  bound_to 491 

> <Gold.Score>
     Score     S(PLP)   S(hbond)     S(cho)   S(metal)  DE(clash)   DE(tors)     intcor
     40.17     -37.94       0.82       0.00       0.00       1.15       1.03       2.96

> <Gold.PLP.Fitness>
40.1718

> <Gold.PLP.PLP>
-37.9380

> <Gold.PLP.part.hbond>
-1.3779

> <Gold.PLP.part.metal>
0.0000

> <Gold.PLP.part.buried>
-2.7953

> <Gold.PLP.part.nonpolar>
-33.9738

> <Gold.PLP.part.repulsive>
0.0719

> <Gold.PLP.ligand.clash>
1.1468

> <Gold.PLP.ligand.torsion>
1.0257

> <Gold.PLP.Chemscore.Hbond>
0.8224

> <Gold.PLP.Chemscore.CHOScore>
0.0000

> <Gold.PLP.Chemscore.Metal>
0.0000

> <Gold.Chemscore.Hbonds>
donor molecule, donor type, donor heavy atom, donor atom, acceptor molecule, acceptor atom, score
      L1  H     1    17       P1   470  0.72
      L1  H     9    18       P1   470  0.10

> <Gold.PLP.Chemscore.Internal.Correction>
2.9648

