#       Name:                EN300-1722344_i001
#       Creating user name   aseyller
#       Creation time:       Fri Apr 21 16:38:41 2023


#       File generated by GOLD software.
#

@<TRIPOS>MOLECULE
EN300-1722344_i001|aminophenols|mol2|81|dock13
    18    18     1
SMALL
USER_CHARGES


@<TRIPOS>ATOM
      1 N1          33.0433  36.5600  36.5647 N.pl3          1 <1>                0.0000
      2 C2          31.8361  37.1448  36.9641 C.ar           1 <1>                0.0000
      3 C3          31.4428  38.3627  36.4292 C.ar           1 <1>                0.0000
      4 C4          30.2494  38.9384  36.8255 C.ar           1 <1>                0.0000
      5 Br5         29.7142  40.5985  36.0951 Br             1 <1>                0.0000
      6 C6          29.4463  38.3021  37.7549 C.ar           1 <1>                0.0000
      7 C7          29.8328  37.0880  38.2923 C.ar           1 <1>                0.0000
      8 C8          31.0235  36.5023  37.8956 C.ar           1 <1>                0.0000
      9 O9          31.4043  35.3078  38.4233 O.3            1 <1>                0.0000
     10 C10         28.9550  36.3991  39.3051 C.3            1 <1>                0.0000
     11 F11         29.0194  35.0149  39.1132 F              1 <1>                0.0000
     12 F12         29.3969  36.7122  40.5949 F              1 <1>                0.0000
     13 F13         27.6336  36.8307  39.1472 F              1 <1>                0.0000
     14 H14         32.0685  38.8615  35.7038 H              1 <1>                0.0000
     15 H15         28.5151  38.7549  38.0618 H              1 <1>                0.0000
     16 H16         33.6062  37.0065  35.9131 H              1 <1>                0.0000
     17 H17         33.3190  35.7103  36.9426 H              1 <1>                0.0000
     18 H18         31.8649  35.3809  39.2704 H              1 <1>                0.0000
@<TRIPOS>BOND
    1    1    2 1     
    2    1   16 1     
    3    1   17 1     
    4    2    3 ar    
    5    2    8 ar    
    6    3    4 ar    
    7    3   14 1     
    8    4    5 1     
    9    4    6 ar    
   10    6    7 ar    
   11    6   15 1     
   12    7    8 ar    
   13    7   10 1     
   14    8    9 1     
   15    9   18 1     
   16   10   11 1     
   17   10   12 1     
   18   10   13 1     
@<TRIPOS>SUBSTRUCTURE
      1 ****           1
@<TRIPOS>SET
DONOR_HYDROGENS      STATIC     ATOMS    <user>   **** ""
3 16 17 18
ATOM$RED        STATIC     ATOMS    COLORGROUP SYSTEM
3 16 17 18
@<TRIPOS>COMMENT
> <Gold.Version>
2022.2.0

> <Gold.Id.Protein>
1qkm|1qkm_protein|mol2

> <Gold.Protein.RotatedTorsions>
[  496  491  490  487 ] final  -32.23 input  -89.99 | X-H torsion

> <Gold.Protein.ActiveResidues>
 MET295  LEU298  THR299  LEU301  ALA302  GLU305  TRP335  MET336  LEU339  MET340 
 GLY342  LEU343  ARG346  PHE356  ILE373  ILE376  PHE377  LEU380  LYS471  GLY472 
 MET473  HIS475  LEU476  LEU477  ASN478  MET479  VAL484  VAL487 

> <Gold.Protein.RotatedAtoms>
   36.3244   34.5907   41.8786 H   0  0  0  0  0  0  0  0  0  0  0  0  # atno 496  bound_to 491 

> <Gold.Score>
     Score     S(PLP)   S(hbond)     S(cho)   S(metal)  DE(clash)   DE(tors)     intcor
     38.31     -38.55       0.00       0.00       0.00       1.15       1.03       2.96

> <Gold.PLP.Fitness>
38.3147

> <Gold.PLP.PLP>
-38.5479

> <Gold.PLP.part.hbond>
0.0000

> <Gold.PLP.part.metal>
0.0000

> <Gold.PLP.part.buried>
-2.1159

> <Gold.PLP.part.nonpolar>
-37.4032

> <Gold.PLP.part.repulsive>
0.0000

> <Gold.PLP.ligand.clash>
1.1466

> <Gold.PLP.ligand.torsion>
1.0257

> <Gold.PLP.Chemscore.Hbond>
0.0000

> <Gold.PLP.Chemscore.CHOScore>
0.0000

> <Gold.PLP.Chemscore.Metal>
0.0000

> <Gold.PLP.Chemscore.Internal.Correction>
2.9648

