#       Name:                EN300-109345_i001
#       Creating user name   aseyller
#       Creation time:       Fri Apr 21 12:23:17 2023


#       File generated by GOLD software.
#

@<TRIPOS>MOLECULE
EN300-109345_i001|amine_1|mol2|39|dock4
    23    23     1
SMALL
USER_CHARGES


@<TRIPOS>ATOM
      1 C1          25.6426  37.2269  41.1978 C.3            1 <1>                0.0000
      2 N2          26.6488  36.3973  41.8741 N.4            1 <1>                1.0000
      3 C3          27.2910  35.5107  40.8946 C.3            1 <1>                0.0000
      4 C4          28.1252  36.3316  39.9452 C.2            1 <1>                0.0000
      5 C5          29.4334  36.7728  40.1698 C.2            1 <1>                0.0000
      6 N6          29.8208  37.4532  39.1216 N.2            1 <1>                0.0000
      7 N7          28.7700  37.4666  38.1956 N.pl3          1 <1>                0.0000
      8 C8          28.7849  38.1198  36.8843 C.3            1 <1>                0.0000
      9 C9          29.6138  39.3345  36.9506 C.1            1 <1>                0.0000
     10 C10         30.2749  40.3032  37.0034 C.1            1 <1>                0.0000
     11 C11         27.7432  36.7671  38.7223 C.2            1 <1>                0.0000
     12 H12         24.8898  36.5847  40.7407 H              1 <1>                0.0000
     13 H13         25.1660  37.8848  41.9246 H              1 <1>                0.0000
     14 H14         26.1253  37.8269  40.4263 H              1 <1>                0.0000
     15 H15         27.9294  34.7966  41.4147 H              1 <1>                0.0000
     16 H16         26.5258  34.9733  40.3343 H              1 <1>                0.0000
     17 H17         30.0219  36.5844  41.0556 H              1 <1>                0.0000
     18 H18         29.1998  37.4369  36.1429 H              1 <1>                0.0000
     19 H19         27.7675  38.3892  36.6009 H              1 <1>                0.0000
     20 H20         30.8661  41.1696  37.0507 H              1 <1>                0.0000
     21 H21         26.7856  36.5920  38.2545 H              1 <1>                0.0000
     22 H22         27.3456  36.9918  42.2972 H              1 <1>                0.0000
     23 H23         26.2020  35.8420  42.5882 H              1 <1>                0.0000
@<TRIPOS>BOND
    1    1    2 1     
    2    1   12 1     
    3    1   13 1     
    4    1   14 1     
    5    2    3 1     
    6    2   22 1     
    7    2   23 1     
    8    3    4 1     
    9    3   15 1     
   10    3   16 1     
   11    4    5 1     
   12    4   11 2     
   13    5    6 2     
   14    5   17 1     
   15    6    7 1     
   16    7    8 1     
   17    7   11 1     
   18    8    9 1     
   19    8   18 1     
   20    8   19 1     
   21    9   10 3     
   22   10   20 1     
   23   11   21 1     
@<TRIPOS>SUBSTRUCTURE
      1 ****           1
@<TRIPOS>SET
DONOR_HYDROGENS      STATIC     ATOMS    <user>   **** ""
2 22 23
ATOM$RED        STATIC     ATOMS    COLORGROUP SYSTEM
2 22 23
@<TRIPOS>COMMENT
> <Gold.Version>
2022.2.0

> <Gold.Id.Protein>
1qkm|1qkm_protein|mol2

> <Gold.Protein.RotatedTorsions>
[  496  491  490  487 ] final  -17.05 input  -89.99 | X-H torsion

> <Gold.Protein.ActiveResidues>
 MET295  LEU298  THR299  LEU301  ALA302  GLU305  TRP335  MET336  LEU339  MET340 
 GLY342  LEU343  ARG346  PHE356  ILE373  ILE376  PHE377  LEU380  LYS471  GLY472 
 MET473  HIS475  LEU476  LEU477  ASN478  MET479  VAL484  VAL487 

> <Gold.Protein.RotatedAtoms>
   36.2737   34.4362   42.0675 H   0  0  0  0  0  0  0  0  0  0  0  0  # atno 496  bound_to 491 

> <Gold.Score>
     Score     S(PLP)   S(hbond)     S(cho)   S(metal)  DE(clash)   DE(tors)     intcor
     46.32     -38.76       2.00       1.00       0.00       0.00       0.72       0.00

> <Gold.PLP.Fitness>
46.3215

> <Gold.PLP.PLP>
-38.7557

> <Gold.PLP.part.hbond>
-1.0000

> <Gold.PLP.part.metal>
0.0000

> <Gold.PLP.part.buried>
-2.8102

> <Gold.PLP.part.nonpolar>
-35.1461

> <Gold.PLP.part.repulsive>
0.0917

> <Gold.PLP.ligand.clash>
0.0000

> <Gold.PLP.ligand.torsion>
0.7185

> <Gold.PLP.Chemscore.Hbond>
2.0000

> <Gold.PLP.Chemscore.CHOScore>
1.0000

> <Gold.PLP.Chemscore.Metal>
0.0000

> <Gold.Chemscore.Hbonds>
donor molecule, donor type, donor heavy atom, donor atom, acceptor molecule, acceptor atom, score
      L1  H     2    23       P1   582  2.00
      L1  C     5    17       P1   470  1.00

> <Gold.PLP.Chemscore.Internal.Correction>
0.0029

