#       Name:                EN300-109345_i001
#       Creating user name   aseyller
#       Creation time:       Fri Apr 21 12:23:16 2023


#       File generated by GOLD software.
#

@<TRIPOS>MOLECULE
EN300-109345_i001|amine_1|mol2|39|dock2
    23    23     1
SMALL
USER_CHARGES


@<TRIPOS>ATOM
      1 C1          25.6438  37.1679  41.0168 C.3            1 <1>                0.0000
      2 N2          26.7339  36.5486  41.7824 N.4            1 <1>                1.0000
      3 C3          27.3673  35.5001  40.9718 C.3            1 <1>                0.0000
      4 C4          28.0725  36.1296  39.7982 C.2            1 <1>                0.0000
      5 C5          27.4590  36.6828  38.6695 C.2            1 <1>                0.0000
      6 N6          28.3957  37.1293  37.8727 N.2            1 <1>                0.0000
      7 N7          29.6368  36.8740  38.4699 N.pl3          1 <1>                0.0000
      8 C8          30.9481  37.2135  37.9117 C.3            1 <1>                0.0000
      9 C9          31.7521  35.9889  37.7680 C.1            1 <1>                0.0000
     10 C10         32.3932  35.0121  37.6535 C.1            1 <1>                0.0000
     11 C11         29.4111  36.2649  39.6527 C.2            1 <1>                0.0000
     12 H12         24.9036  36.4101  40.7605 H              1 <1>                0.0000
     13 H13         25.1738  37.9461  41.6183 H              1 <1>                0.0000
     14 H14         26.0452  37.6074  40.1036 H              1 <1>                0.0000
     15 H15         28.0898  34.9567  41.5809 H              1 <1>                0.0000
     16 H16         26.6050  34.8100  40.6102 H              1 <1>                0.0000
     17 H17         26.3956  36.7324  38.4872 H              1 <1>                0.0000
     18 H18         30.8176  37.6791  36.9348 H              1 <1>                0.0000
     19 H19         31.4587  37.9072  38.5796 H              1 <1>                0.0000
     20 H20         32.9667  34.1385  37.5510 H              1 <1>                0.0000
     21 H21         30.1641  35.9378  40.3545 H              1 <1>                0.0000
     22 H22         27.4191  37.2503  42.0197 H              1 <1>                0.0000
     23 H23         26.3625  36.1420  42.6277 H              1 <1>                0.0000
@<TRIPOS>BOND
    1    1    2 1     
    2    1   12 1     
    3    1   13 1     
    4    1   14 1     
    5    2    3 1     
    6    2   22 1     
    7    2   23 1     
    8    3    4 1     
    9    3   15 1     
   10    3   16 1     
   11    4    5 1     
   12    4   11 2     
   13    5    6 2     
   14    5   17 1     
   15    6    7 1     
   16    7    8 1     
   17    7   11 1     
   18    8    9 1     
   19    8   18 1     
   20    8   19 1     
   21    9   10 3     
   22   10   20 1     
   23   11   21 1     
@<TRIPOS>SUBSTRUCTURE
      1 ****           1
@<TRIPOS>SET
DONOR_HYDROGENS      STATIC     ATOMS    <user>   **** ""
2 22 23
ATOM$RED        STATIC     ATOMS    COLORGROUP SYSTEM
2 22 23
@<TRIPOS>COMMENT
> <Gold.Version>
2022.2.0

> <Gold.Id.Protein>
1qkm|1qkm_protein|mol2

> <Gold.Protein.RotatedTorsions>
[  496  491  490  487 ] final  -69.63 input  -89.99 | X-H torsion

> <Gold.Protein.ActiveResidues>
 MET295  LEU298  THR299  LEU301  ALA302  GLU305  TRP335  MET336  LEU339  MET340 
 GLY342  LEU343  ARG346  PHE356  ILE373  ILE376  PHE377  LEU380  LYS471  GLY472 
 MET473  HIS475  LEU476  LEU477  ASN478  MET479  VAL484  VAL487 

> <Gold.Protein.RotatedAtoms>
   36.5751   34.7332   41.3471 H   0  0  0  0  0  0  0  0  0  0  0  0  # atno 496  bound_to 491 

> <Gold.Score>
     Score     S(PLP)   S(hbond)     S(cho)   S(metal)  DE(clash)   DE(tors)     intcor
     48.15     -39.48       2.00       1.00       0.00       0.00       0.17       0.00

> <Gold.PLP.Fitness>
48.1497

> <Gold.PLP.PLP>
-39.4776

> <Gold.PLP.part.hbond>
-1.0000

> <Gold.PLP.part.metal>
0.0000

> <Gold.PLP.part.buried>
-3.1058

> <Gold.PLP.part.nonpolar>
-35.7505

> <Gold.PLP.part.repulsive>
0.0511

> <Gold.PLP.ligand.clash>
0.0000

> <Gold.PLP.ligand.torsion>
0.1662

> <Gold.PLP.Chemscore.Hbond>
2.0000

> <Gold.PLP.Chemscore.CHOScore>
1.0000

> <Gold.PLP.Chemscore.Metal>
0.0000

> <Gold.Chemscore.Hbonds>
donor molecule, donor type, donor heavy atom, donor atom, acceptor molecule, acceptor atom, score
      L1  H     2    23       P1   582  2.00
      L1  C    11    21       P1   470  1.00

> <Gold.PLP.Chemscore.Internal.Correction>
0.0045

