#       Name:                EN300-109345_i001
#       Creating user name   aseyller
#       Creation time:       Fri Apr 21 12:23:24 2023


#       File generated by GOLD software.
#

@<TRIPOS>MOLECULE
EN300-109345_i001|amine_1|mol2|39|dock14
    23    23     1
SMALL
USER_CHARGES


@<TRIPOS>ATOM
      1 C1          28.6071  36.4712  41.8355 C.3            1 <1>                0.0000
      2 N2          27.1901  36.1393  41.6362 N.4            1 <1>                1.0000
      3 C3          27.0152  35.5086  40.3211 C.3            1 <1>                0.0000
      4 C4          27.4638  36.4615  39.2433 C.2            1 <1>                0.0000
      5 C5          26.6383  37.3137  38.5025 C.2            1 <1>                0.0000
      6 N6          27.3884  37.9840  37.6660 N.2            1 <1>                0.0000
      7 N7          28.7169  37.5790  37.8483 N.pl3          1 <1>                0.0000
      8 C8          29.8799  38.0814  37.1124 C.3            1 <1>                0.0000
      9 C9          29.6427  39.4786  36.7146 C.1            1 <1>                0.0000
     10 C10         29.4535  40.5930  36.3976 C.1            1 <1>                0.0000
     11 C11         28.7371  36.6482  38.8251 C.2            1 <1>                0.0000
     12 H12         28.9321  37.1603  41.0560 H              1 <1>                0.0000
     13 H13         28.7369  36.9392  42.8114 H              1 <1>                0.0000
     14 H14         29.2039  35.5604  41.7872 H              1 <1>                0.0000
     15 H15         27.6124  34.5981  40.2726 H              1 <1>                0.0000
     16 H16         25.9638  35.2618  40.1734 H              1 <1>                0.0000
     17 H17         25.5667  37.4027  38.6034 H              1 <1>                0.0000
     18 H18         30.7629  38.0298  37.7494 H              1 <1>                0.0000
     19 H19         30.0377  37.4720  36.2225 H              1 <1>                0.0000
     20 H20         29.2843  41.5897  36.1138 H              1 <1>                0.0000
     21 H21         29.6120  36.1387  39.2012 H              1 <1>                0.0000
     22 H22         26.8893  35.5015  42.3578 H              1 <1>                0.0000
     23 H23         26.6376  36.9824  41.6810 H              1 <1>                0.0000
@<TRIPOS>BOND
    1    1    2 1     
    2    1   12 1     
    3    1   13 1     
    4    1   14 1     
    5    2    3 1     
    6    2   22 1     
    7    2   23 1     
    8    3    4 1     
    9    3   15 1     
   10    3   16 1     
   11    4    5 1     
   12    4   11 2     
   13    5    6 2     
   14    5   17 1     
   15    6    7 1     
   16    7    8 1     
   17    7   11 1     
   18    8    9 1     
   19    8   18 1     
   20    8   19 1     
   21    9   10 3     
   22   10   20 1     
   23   11   21 1     
@<TRIPOS>SUBSTRUCTURE
      1 ****           1
@<TRIPOS>SET
DONOR_HYDROGENS      STATIC     ATOMS    <user>   **** ""
2 22 23
ATOM$RED        STATIC     ATOMS    COLORGROUP SYSTEM
2 22 23
@<TRIPOS>COMMENT
> <Gold.Version>
2022.2.0

> <Gold.Id.Protein>
1qkm|1qkm_protein|mol2

> <Gold.Protein.RotatedTorsions>
[  496  491  490  487 ] final  -79.17 input  -89.99 | X-H torsion

> <Gold.Protein.ActiveResidues>
 MET295  LEU298  THR299  LEU301  ALA302  GLU305  TRP335  MET336  LEU339  MET340 
 GLY342  LEU343  ARG346  PHE356  ILE373  ILE376  PHE377  LEU380  LYS471  GLY472 
 MET473  HIS475  LEU476  LEU477  ASN478  MET479  VAL484  VAL487 

> <Gold.Protein.RotatedAtoms>
   36.6585   34.7094   41.2162 H   0  0  0  0  0  0  0  0  0  0  0  0  # atno 496  bound_to 491 

> <Gold.Score>
     Score     S(PLP)   S(hbond)     S(cho)   S(metal)  DE(clash)   DE(tors)     intcor
     43.66     -39.07       2.00       0.00       0.00       0.00       0.71       0.00

> <Gold.PLP.Fitness>
43.6558

> <Gold.PLP.PLP>
-39.0685

> <Gold.PLP.part.hbond>
-1.0000

> <Gold.PLP.part.metal>
0.0000

> <Gold.PLP.part.buried>
-3.2012

> <Gold.PLP.part.nonpolar>
-35.9836

> <Gold.PLP.part.repulsive>
0.0369

> <Gold.PLP.ligand.clash>
0.0000

> <Gold.PLP.ligand.torsion>
0.7064

> <Gold.PLP.Chemscore.Hbond>
2.0000

> <Gold.PLP.Chemscore.CHOScore>
0.0000

> <Gold.PLP.Chemscore.Metal>
0.0000

> <Gold.Chemscore.Hbonds>
donor molecule, donor type, donor heavy atom, donor atom, acceptor molecule, acceptor atom, score
      L1  H     2    22       P1   582  2.00

> <Gold.PLP.Chemscore.Internal.Correction>
0.0001

