#       Name:                EN300-109345_i001
#       Creating user name   aseyller
#       Creation time:       Fri Apr 21 12:23:22 2023


#       File generated by GOLD software.
#

@<TRIPOS>MOLECULE
EN300-109345_i001|amine_1|mol2|39|dock12
    23    23     1
SMALL
USER_CHARGES


@<TRIPOS>ATOM
      1 C1          28.4311  36.4060  42.2102 C.3            1 <1>                0.0000
      2 N2          29.4294  36.6794  41.1678 N.4            1 <1>                1.0000
      3 C3          28.8550  36.3804  39.8493 C.3            1 <1>                0.0000
      4 C4          29.9407  36.4299  38.8054 C.2            1 <1>                0.0000
      5 C5          31.1120  35.6653  38.7992 C.2            1 <1>                0.0000
      6 N6          31.8041  35.9864  37.7364 N.2            1 <1>                0.0000
      7 N7          31.0942  36.9669  37.0316 N.pl3          1 <1>                0.0000
      8 C8          31.5146  37.6036  35.7808 C.3            1 <1>                0.0000
      9 C9          32.7445  36.9595  35.2916 C.1            1 <1>                0.0000
     10 C10         33.7254  36.4457  34.9016 C.1            1 <1>                0.0000
     11 C11         29.9521  37.2177  37.7052 C.2            1 <1>                0.0000
     12 H12         28.1417  35.3560  42.1697 H              1 <1>                0.0000
     13 H13         28.8573  36.6279  43.1886 H              1 <1>                0.0000
     14 H14         27.5536  37.0315  42.0459 H              1 <1>                0.0000
     15 H15         28.4102  35.3854  39.8638 H              1 <1>                0.0000
     16 H16         28.0882  37.1177  39.6113 H              1 <1>                0.0000
     17 H17         31.3960  34.9360  39.5435 H              1 <1>                0.0000
     18 H18         30.7267  37.4956  35.0354 H              1 <1>                0.0000
     19 H19         31.7046  38.6622  35.9580 H              1 <1>                0.0000
     20 H20         34.6026  35.9862  34.5526 H              1 <1>                0.0000
     21 H21         29.1874  37.9253  37.4208 H              1 <1>                0.0000
     22 H22         29.6974  37.6515  41.2053 H              1 <1>                0.0000
     23 H23         30.2417  36.1006  41.3199 H              1 <1>                0.0000
@<TRIPOS>BOND
    1    1    2 1     
    2    1   12 1     
    3    1   13 1     
    4    1   14 1     
    5    2    3 1     
    6    2   22 1     
    7    2   23 1     
    8    3    4 1     
    9    3   15 1     
   10    3   16 1     
   11    4    5 1     
   12    4   11 2     
   13    5    6 2     
   14    5   17 1     
   15    6    7 1     
   16    7    8 1     
   17    7   11 1     
   18    8    9 1     
   19    8   18 1     
   20    8   19 1     
   21    9   10 3     
   22   10   20 1     
   23   11   21 1     
@<TRIPOS>SUBSTRUCTURE
      1 ****           1
@<TRIPOS>SET
DONOR_HYDROGENS      STATIC     ATOMS    <user>   **** ""
2 22 23
ATOM$RED        STATIC     ATOMS    COLORGROUP SYSTEM
2 22 23
@<TRIPOS>COMMENT
> <Gold.Version>
2022.2.0

> <Gold.Id.Protein>
1qkm|1qkm_protein|mol2

> <Gold.Protein.RotatedTorsions>
[  496  491  490  487 ] final  -19.63 input  -89.99 | X-H torsion

> <Gold.Protein.ActiveResidues>
 MET295  LEU298  THR299  LEU301  ALA302  GLU305  TRP335  MET336  LEU339  MET340 
 GLY342  LEU343  ARG346  PHE356  ILE373  ILE376  PHE377  LEU380  LYS471  GLY472 
 MET473  HIS475  LEU476  LEU477  ASN478  MET479  VAL484  VAL487 

> <Gold.Protein.RotatedAtoms>
   36.2799   34.4658   42.0375 H   0  0  0  0  0  0  0  0  0  0  0  0  # atno 496  bound_to 491 

> <Gold.Score>
     Score     S(PLP)   S(hbond)     S(cho)   S(metal)  DE(clash)   DE(tors)     intcor
     42.24     -37.22       1.00       0.72       0.00       0.00       0.06       0.00

> <Gold.PLP.Fitness>
42.2404

> <Gold.PLP.PLP>
-37.2222

> <Gold.PLP.part.hbond>
-1.0000

> <Gold.PLP.part.metal>
0.0000

> <Gold.PLP.part.buried>
-3.8436

> <Gold.PLP.part.nonpolar>
-33.0590

> <Gold.PLP.part.repulsive>
0.0691

> <Gold.PLP.ligand.clash>
0.0000

> <Gold.PLP.ligand.torsion>
0.0645

> <Gold.PLP.Chemscore.Hbond>
1.0000

> <Gold.PLP.Chemscore.CHOScore>
0.7157

> <Gold.PLP.Chemscore.Metal>
0.0000

> <Gold.Chemscore.Hbonds>
donor molecule, donor type, donor heavy atom, donor atom, acceptor molecule, acceptor atom, score
      L1  H     2    23       P1   470  1.00
      L1  C     5    17       P1   470  0.72

> <Gold.PLP.Chemscore.Internal.Correction>
0.0001

