#       Name:                EN300-109345_i001
#       Creating user name   aseyller
#       Creation time:       Fri Apr 21 12:23:15 2023


#       File generated by GOLD software.
#

@<TRIPOS>MOLECULE
EN300-109345_i001|amine_1|mol2|39|dock1
    23    23     1
SMALL
USER_CHARGES


@<TRIPOS>ATOM
      1 C1          25.6234  36.9855  41.1358 C.3            1 <1>                0.0000
      2 N2          26.5229  35.8257  41.1972 N.4            1 <1>                1.0000
      3 C3          27.8925  36.2820  41.4685 C.3            1 <1>                0.0000
      4 C4          28.6522  36.3900  40.1714 C.2            1 <1>                0.0000
      5 C5          28.2353  37.0802  39.0285 C.2            1 <1>                0.0000
      6 N6          29.1582  36.9461  38.1108 N.2            1 <1>                0.0000
      7 N7          30.1930  36.1654  38.6415 N.pl3          1 <1>                0.0000
      8 C8          31.4215  35.7743  37.9456 C.3            1 <1>                0.0000
      9 C9          31.6289  34.3245  38.0936 C.1            1 <1>                0.0000
     10 C10         31.7941  33.1682  38.2116 C.1            1 <1>                0.0000
     11 C11         29.8610  35.8413  39.9087 C.2            1 <1>                0.0000
     12 H12         25.9477  37.6551  40.3392 H              1 <1>                0.0000
     13 H13         24.6071  36.6469  40.9346 H              1 <1>                0.0000
     14 H14         25.6480  37.5152  42.0882 H              1 <1>                0.0000
     15 H15         27.8611  37.2577  41.9533 H              1 <1>                0.0000
     16 H16         28.3909  35.5669  42.1230 H              1 <1>                0.0000
     17 H17         27.3111  37.6287  38.9219 H              1 <1>                0.0000
     18 H18         31.3347  36.0228  36.8878 H              1 <1>                0.0000
     19 H19         32.2686  36.3083  38.3760 H              1 <1>                0.0000
     20 H20         31.9421  32.1341  38.3171 H              1 <1>                0.0000
     21 H21         30.4511  35.2452  40.5890 H              1 <1>                0.0000
     22 H22         26.2226  35.2059  41.9346 H              1 <1>                0.0000
     23 H23         26.5001  35.3354  40.3157 H              1 <1>                0.0000
@<TRIPOS>BOND
    1    1    2 1     
    2    1   12 1     
    3    1   13 1     
    4    1   14 1     
    5    2    3 1     
    6    2   22 1     
    7    2   23 1     
    8    3    4 1     
    9    3   15 1     
   10    3   16 1     
   11    4    5 1     
   12    4   11 2     
   13    5    6 2     
   14    5   17 1     
   15    6    7 1     
   16    7    8 1     
   17    7   11 1     
   18    8    9 1     
   19    8   18 1     
   20    8   19 1     
   21    9   10 3     
   22   10   20 1     
   23   11   21 1     
@<TRIPOS>SUBSTRUCTURE
      1 ****           1
@<TRIPOS>SET
DONOR_HYDROGENS      STATIC     ATOMS    <user>   **** ""
2 22 23
ATOM$RED        STATIC     ATOMS    COLORGROUP SYSTEM
2 22 23
@<TRIPOS>COMMENT
> <Gold.Version>
2022.2.0

> <Gold.Id.Protein>
1qkm|1qkm_protein|mol2

> <Gold.Protein.RotatedTorsions>
[  496  491  490  487 ] final   -9.37 input  -89.99 | X-H torsion

> <Gold.Protein.ActiveResidues>
 MET295  LEU298  THR299  LEU301  ALA302  GLU305  TRP335  MET336  LEU339  MET340 
 GLY342  LEU343  ARG346  PHE356  ILE373  ILE376  PHE377  LEU380  LYS471  GLY472 
 MET473  HIS475  LEU476  LEU477  ASN478  MET479  VAL484  VAL487 

> <Gold.Protein.RotatedAtoms>
   36.2617   34.3414   42.1499 H   0  0  0  0  0  0  0  0  0  0  0  0  # atno 496  bound_to 491 

> <Gold.Score>
     Score     S(PLP)   S(hbond)     S(cho)   S(metal)  DE(clash)   DE(tors)     intcor
     49.52     -41.38       2.00       0.99       0.00       0.00       0.42       0.01

> <Gold.PLP.Fitness>
49.5244

> <Gold.PLP.PLP>
-41.3793

> <Gold.PLP.part.hbond>
-1.0000

> <Gold.PLP.part.metal>
0.0000

> <Gold.PLP.part.buried>
-2.1333

> <Gold.PLP.part.nonpolar>
-39.0986

> <Gold.PLP.part.repulsive>
0.0278

> <Gold.PLP.ligand.clash>
0.0000

> <Gold.PLP.ligand.torsion>
0.4192

> <Gold.PLP.Chemscore.Hbond>
2.0000

> <Gold.PLP.Chemscore.CHOScore>
0.9920

> <Gold.PLP.Chemscore.Metal>
0.0000

> <Gold.Chemscore.Hbonds>
donor molecule, donor type, donor heavy atom, donor atom, acceptor molecule, acceptor atom, score
      L1  H     2    22       P1   582  2.00
      L1  C    11    21       P1   470  0.99

> <Gold.PLP.Chemscore.Internal.Correction>
0.0075

