#       Name:                EN300-109345_i001
#       Creating user name   aseyller
#       Creation time:       Fri Apr 21 12:23:27 2023


#       File generated by GOLD software.
#

@<TRIPOS>MOLECULE
EN300-109345_i001|amine_1|mol2|39|dock18
    23    23     1
SMALL
USER_CHARGES


@<TRIPOS>ATOM
      1 C1          28.5854  36.6468  42.1072 C.3            1 <1>                0.0000
      2 N2          27.4103  36.0078  41.4999 N.4            1 <1>                1.0000
      3 C3          27.8268  35.2364  40.3213 C.3            1 <1>                0.0000
      4 C4          28.6326  36.1183  39.4027 C.2            1 <1>                0.0000
      5 C5          30.0260  36.1251  39.2814 C.2            1 <1>                0.0000
      6 N6          30.3540  37.0220  38.3870 N.2            1 <1>                0.0000
      7 N7          29.1781  37.6152  37.9103 N.pl3          1 <1>                0.0000
      8 C8          29.0942  38.6701  36.8971 C.3            1 <1>                0.0000
      9 C9          30.0162  38.3629  35.7915 C.1            1 <1>                0.0000
     10 C10         30.7514  38.1180  34.9096 C.1            1 <1>                0.0000
     11 C11         28.1356  37.0397  38.5451 C.2            1 <1>                0.0000
     12 H12         29.0513  37.3142  41.3823 H              1 <1>                0.0000
     13 H13         28.2763  37.2192  42.9819 H              1 <1>                0.0000
     14 H14         29.3004  35.8811  42.4082 H              1 <1>                0.0000
     15 H15         28.4354  34.3894  40.6379 H              1 <1>                0.0000
     16 H16         26.9444  34.8729  39.7944 H              1 <1>                0.0000
     17 H17         30.7126  35.4984  39.8312 H              1 <1>                0.0000
     18 H18         28.0749  38.7268  36.5151 H              1 <1>                0.0000
     19 H19         29.3684  39.6257  37.3440 H              1 <1>                0.0000
     20 H20         31.4091  37.8989  34.1210 H              1 <1>                0.0000
     21 H21         27.0920  37.2766  38.3998 H              1 <1>                0.0000
     22 H22         26.9790  35.3899  42.1710 H              1 <1>                0.0000
     23 H23         26.7484  36.7165  41.2214 H              1 <1>                0.0000
@<TRIPOS>BOND
    1    1    2 1     
    2    1   12 1     
    3    1   13 1     
    4    1   14 1     
    5    2    3 1     
    6    2   22 1     
    7    2   23 1     
    8    3    4 1     
    9    3   15 1     
   10    3   16 1     
   11    4    5 1     
   12    4   11 2     
   13    5    6 2     
   14    5   17 1     
   15    6    7 1     
   16    7    8 1     
   17    7   11 1     
   18    8    9 1     
   19    8   18 1     
   20    8   19 1     
   21    9   10 3     
   22   10   20 1     
   23   11   21 1     
@<TRIPOS>SUBSTRUCTURE
      1 ****           1
@<TRIPOS>SET
DONOR_HYDROGENS      STATIC     ATOMS    <user>   **** ""
2 22 23
ATOM$RED        STATIC     ATOMS    COLORGROUP SYSTEM
2 22 23
@<TRIPOS>COMMENT
> <Gold.Version>
2022.2.0

> <Gold.Id.Protein>
1qkm|1qkm_protein|mol2

> <Gold.Protein.RotatedTorsions>
[  496  491  490  487 ] final  176.03 input  -89.99 | X-H torsion

> <Gold.Protein.ActiveResidues>
 MET295  LEU298  THR299  LEU301  ALA302  GLU305  TRP335  MET336  LEU339  MET340 
 GLY342  LEU343  ARG346  PHE356  ILE373  ILE376  PHE377  LEU380  LYS471  GLY472 
 MET473  HIS475  LEU476  LEU477  ASN478  MET479  VAL484  VAL487 

> <Gold.Protein.RotatedAtoms>
   37.3188   33.4061   40.9018 H   0  0  0  0  0  0  0  0  0  0  0  0  # atno 496  bound_to 491 

> <Gold.Score>
     Score     S(PLP)   S(hbond)     S(cho)   S(metal)  DE(clash)   DE(tors)     intcor
     42.65     -34.63       2.00       1.00       0.00       0.00       0.49       0.00

> <Gold.PLP.Fitness>
42.6541

> <Gold.PLP.PLP>
-34.6306

> <Gold.PLP.part.hbond>
-1.0000

> <Gold.PLP.part.metal>
0.0000

> <Gold.PLP.part.buried>
-3.2176

> <Gold.PLP.part.nonpolar>
-30.8235

> <Gold.PLP.part.repulsive>
0.0599

> <Gold.PLP.ligand.clash>
0.0000

> <Gold.PLP.ligand.torsion>
0.4883

> <Gold.PLP.Chemscore.Hbond>
2.0000

> <Gold.PLP.Chemscore.CHOScore>
1.0000

> <Gold.PLP.Chemscore.Metal>
0.0000

> <Gold.Chemscore.Hbonds>
donor molecule, donor type, donor heavy atom, donor atom, acceptor molecule, acceptor atom, score
      L1  H     2    22       P1   582  2.00
      L1  C     5    17       P1   470  1.00

> <Gold.PLP.Chemscore.Internal.Correction>
0.0001

