#       Name:                EN300-109345_i001
#       Creating user name   aseyller
#       Creation time:       Fri Apr 21 12:23:22 2023


#       File generated by GOLD software.
#

@<TRIPOS>MOLECULE
EN300-109345_i001|amine_1|mol2|39|dock11
    23    23     1
SMALL
USER_CHARGES


@<TRIPOS>ATOM
      1 C1          26.0622  36.6984  40.5405 C.3            1 <1>                0.0000
      2 N2          26.9912  35.8565  41.3060 N.4            1 <1>                1.0000
      3 C3          28.2974  36.5227  41.3932 C.3            1 <1>                0.0000
      4 C4          29.0399  36.3447  40.0940 C.2            1 <1>                0.0000
      5 C5          28.8058  37.0500  38.9090 C.2            1 <1>                0.0000
      6 N6          29.6464  36.6188  38.0039 N.2            1 <1>                0.0000
      7 N7          30.4431  35.6241  38.5850 N.pl3          1 <1>                0.0000
      8 C8          31.5130  34.8776  37.9182 C.3            1 <1>                0.0000
      9 C9          32.3507  35.8076  37.1434 C.1            1 <1>                0.0000
     10 C10         33.0189  36.5491  36.5254 C.1            1 <1>                0.0000
     11 C11         30.0548  35.4784  39.8692 C.2            1 <1>                0.0000
     12 H12         26.4574  36.8559  39.5369 H              1 <1>                0.0000
     13 H13         25.0929  36.2041  40.4758 H              1 <1>                0.0000
     14 H14         25.9469  37.6600  41.0407 H              1 <1>                0.0000
     15 H15         28.1511  37.5856  41.5853 H              1 <1>                0.0000
     16 H16         28.8761  36.0830  42.2056 H              1 <1>                0.0000
     17 H17         28.0598  37.8177  38.7659 H              1 <1>                0.0000
     18 H18         32.1254  34.3741  38.6662 H              1 <1>                0.0000
     19 H19         31.0762  34.1374  37.2479 H              1 <1>                0.0000
     20 H20         33.6165  37.2124  35.9728 H              1 <1>                0.0000
     21 H21         30.4744  34.7891  40.5870 H              1 <1>                0.0000
     22 H22         26.6253  35.7107  42.2350 H              1 <1>                0.0000
     23 H23         27.0978  34.9664  40.8431 H              1 <1>                0.0000
@<TRIPOS>BOND
    1    1    2 1     
    2    1   12 1     
    3    1   13 1     
    4    1   14 1     
    5    2    3 1     
    6    2   22 1     
    7    2   23 1     
    8    3    4 1     
    9    3   15 1     
   10    3   16 1     
   11    4    5 1     
   12    4   11 2     
   13    5    6 2     
   14    5   17 1     
   15    6    7 1     
   16    7    8 1     
   17    7   11 1     
   18    8    9 1     
   19    8   18 1     
   20    8   19 1     
   21    9   10 3     
   22   10   20 1     
   23   11   21 1     
@<TRIPOS>SUBSTRUCTURE
      1 ****           1
@<TRIPOS>SET
DONOR_HYDROGENS      STATIC     ATOMS    <user>   **** ""
2 22 23
ATOM$RED        STATIC     ATOMS    COLORGROUP SYSTEM
2 22 23
@<TRIPOS>COMMENT
> <Gold.Version>
2022.2.0

> <Gold.Id.Protein>
1qkm|1qkm_protein|mol2

> <Gold.Protein.RotatedTorsions>
[  496  491  490  487 ] final  154.69 input  -89.99 | X-H torsion

> <Gold.Protein.ActiveResidues>
 MET295  LEU298  THR299  LEU301  ALA302  GLU305  TRP335  MET336  LEU339  MET340 
 GLY342  LEU343  ARG346  PHE356  ILE373  ILE376  PHE377  LEU380  LYS471  GLY472 
 MET473  HIS475  LEU476  LEU477  ASN478  MET479  VAL484  VAL487 

> <Gold.Protein.RotatedAtoms>
   37.2805   33.1490   41.1351 H   0  0  0  0  0  0  0  0  0  0  0  0  # atno 496  bound_to 491 

> <Gold.Score>
     Score     S(PLP)   S(hbond)     S(cho)   S(metal)  DE(clash)   DE(tors)     intcor
     45.14     -37.13       2.00       1.00       0.00       0.00       0.50       0.00

> <Gold.PLP.Fitness>
45.1366

> <Gold.PLP.PLP>
-37.1315

> <Gold.PLP.part.hbond>
-1.0000

> <Gold.PLP.part.metal>
0.0000

> <Gold.PLP.part.buried>
-0.9402

> <Gold.PLP.part.nonpolar>
-35.6639

> <Gold.PLP.part.repulsive>
0.0298

> <Gold.PLP.ligand.clash>
0.0000

> <Gold.PLP.ligand.torsion>
0.4976

> <Gold.PLP.Chemscore.Hbond>
2.0000

> <Gold.PLP.Chemscore.CHOScore>
1.0000

> <Gold.PLP.Chemscore.Metal>
0.0000

> <Gold.Chemscore.Hbonds>
donor molecule, donor type, donor heavy atom, donor atom, acceptor molecule, acceptor atom, score
      L1  H     2    22       P1   582  2.00
      L1  C    11    21       P1   470  1.00

> <Gold.PLP.Chemscore.Internal.Correction>
0.0001

