#       Name:                EN300-109345_i001
#       Creating user name   aseyller
#       Creation time:       Fri Apr 21 12:23:26 2023


#       File generated by GOLD software.
#

@<TRIPOS>MOLECULE
EN300-109345_i001|amine_1|mol2|39|dock17
    23    23     1
SMALL
USER_CHARGES


@<TRIPOS>ATOM
      1 C1          32.5713  37.0504  35.3827 C.3            1 <1>                0.0000
      2 N2          31.3707  37.2864  36.1956 N.4            1 <1>                1.0000
      3 C3          31.5415  36.6615  37.5140 C.3            1 <1>                0.0000
      4 C4          30.2158  36.6290  38.2300 C.2            1 <1>                0.0000
      5 C5          29.9691  36.0499  39.4791 C.2            1 <1>                0.0000
      6 N6          28.7045  36.2224  39.7669 N.2            1 <1>                0.0000
      7 N7          28.1056  36.9176  38.7086 N.pl3          1 <1>                0.0000
      8 C8          26.6983  37.3164  38.6260 C.3            1 <1>                0.0000
      9 C9          26.0615  37.1438  39.9419 C.1            1 <1>                0.0000
     10 C10         25.5538  37.0062  40.9914 C.1            1 <1>                0.0000
     11 C11         29.0550  37.1599  37.7807 C.2            1 <1>                0.0000
     12 H12         32.7217  35.9780  35.2596 H              1 <1>                0.0000
     13 H13         32.4446  37.5142  34.4044 H              1 <1>                0.0000
     14 H14         33.4385  37.4842  35.8808 H              1 <1>                0.0000
     15 H15         31.9117  35.6440  37.3886 H              1 <1>                0.0000
     16 H16         32.2568  37.2387  38.0999 H              1 <1>                0.0000
     17 H17         30.6968  35.5471  40.0988 H              1 <1>                0.0000
     18 H18         26.6340  38.3622  38.3257 H              1 <1>                0.0000
     19 H19         26.1871  36.6951  37.8907 H              1 <1>                0.0000
     20 H20         25.0995  36.8832  41.9301 H              1 <1>                0.0000
     21 H21         28.9126  37.6787  36.8442 H              1 <1>                0.0000
     22 H22         31.2315  38.2793  36.3096 H              1 <1>                0.0000
     23 H23         30.5681  36.8851  35.7346 H              1 <1>                0.0000
@<TRIPOS>BOND
    1    1    2 1     
    2    1   12 1     
    3    1   13 1     
    4    1   14 1     
    5    2    3 1     
    6    2   22 1     
    7    2   23 1     
    8    3    4 1     
    9    3   15 1     
   10    3   16 1     
   11    4    5 1     
   12    4   11 2     
   13    5    6 2     
   14    5   17 1     
   15    6    7 1     
   16    7    8 1     
   17    7   11 1     
   18    8    9 1     
   19    8   18 1     
   20    8   19 1     
   21    9   10 3     
   22   10   20 1     
   23   11   21 1     
@<TRIPOS>SUBSTRUCTURE
      1 ****           1
@<TRIPOS>SET
DONOR_HYDROGENS      STATIC     ATOMS    <user>   **** ""
2 22 23
ATOM$RED        STATIC     ATOMS    COLORGROUP SYSTEM
2 22 23
@<TRIPOS>COMMENT
> <Gold.Version>
2022.2.0

> <Gold.Id.Protein>
1qkm|1qkm_protein|mol2

> <Gold.Protein.RotatedTorsions>
[  496  491  490  487 ] final   14.53 input  -89.99 | X-H torsion

> <Gold.Protein.ActiveResidues>
 MET295  LEU298  THR299  LEU301  ALA302  GLU305  TRP335  MET336  LEU339  MET340 
 GLY342  LEU343  ARG346  PHE356  ILE373  ILE376  PHE377  LEU380  LYS471  GLY472 
 MET473  HIS475  LEU476  LEU477  ASN478  MET479  VAL484  VAL487 

> <Gold.Protein.RotatedAtoms>
   36.2845   33.9969   42.3327 H   0  0  0  0  0  0  0  0  0  0  0  0  # atno 496  bound_to 491 

> <Gold.Score>
     Score     S(PLP)   S(hbond)     S(cho)   S(metal)  DE(clash)   DE(tors)     intcor
     41.26     -38.64       0.00       1.00       0.00       0.00       0.19       0.00

> <Gold.PLP.Fitness>
41.2636

> <Gold.PLP.PLP>
-38.6438

> <Gold.PLP.part.hbond>
0.0000

> <Gold.PLP.part.metal>
0.0000

> <Gold.PLP.part.buried>
-3.1843

> <Gold.PLP.part.nonpolar>
-36.4033

> <Gold.PLP.part.repulsive>
0.0498

> <Gold.PLP.ligand.clash>
0.0000

> <Gold.PLP.ligand.torsion>
0.1901

> <Gold.PLP.Chemscore.Hbond>
0.0000

> <Gold.PLP.Chemscore.CHOScore>
1.0000

> <Gold.PLP.Chemscore.Metal>
0.0000

> <Gold.Chemscore.Hbonds>
donor molecule, donor type, donor heavy atom, donor atom, acceptor molecule, acceptor atom, score
      L1  C     5    17       P1   470  1.00

> <Gold.PLP.Chemscore.Internal.Correction>
0.0001

