#       Name:                EN300-109345_i001
#       Creating user name   aseyller
#       Creation time:       Fri Apr 21 12:23:25 2023


#       File generated by GOLD software.
#

@<TRIPOS>MOLECULE
EN300-109345_i001|amine_1|mol2|39|dock15
    23    23     1
SMALL
USER_CHARGES


@<TRIPOS>ATOM
      1 C1          26.3470  36.7125  41.0934 C.3            1 <1>                0.0000
      2 N2          27.2953  35.6020  41.2527 N.4            1 <1>                1.0000
      3 C3          28.6587  36.1356  41.3722 C.3            1 <1>                0.0000
      4 C4          29.1931  36.4603  40.0011 C.2            1 <1>                0.0000
      5 C5          30.3478  35.9260  39.4201 C.2            1 <1>                0.0000
      6 N6          30.4834  36.4462  38.2273 N.2            1 <1>                0.0000
      7 N7          29.4177  37.3292  38.0112 N.pl3          1 <1>                0.0000
      8 C8          29.1877  38.1228  36.8013 C.3            1 <1>                0.0000
      9 C9          30.2835  37.8903  35.8464 C.1            1 <1>                0.0000
     10 C10         31.1573  37.7049  35.0846 C.1            1 <1>                0.0000
     11 C11         28.6374  37.3159  39.1121 C.2            1 <1>                0.0000
     12 H12         26.5962  37.2770  40.1950 H              1 <1>                0.0000
     13 H13         25.3353  36.3165  41.0047 H              1 <1>                0.0000
     14 H14         26.4057  37.3679  41.9624 H              1 <1>                0.0000
     15 H15         28.6426  37.0406  41.9795 H              1 <1>                0.0000
     16 H16         29.2999  35.3919  41.8454 H              1 <1>                0.0000
     17 H17         31.0128  35.2083  39.8774 H              1 <1>                0.0000
     18 H18         28.2416  37.8276  36.3476 H              1 <1>                0.0000
     19 H19         29.1512  39.1805  37.0621 H              1 <1>                0.0000
     20 H20         31.9390  37.5391  34.4034 H              1 <1>                0.0000
     21 H21         27.7349  37.8903  39.2599 H              1 <1>                0.0000
     22 H22         27.0646  35.0793  42.0844 H              1 <1>                0.0000
     23 H23         27.2410  34.9952  40.4484 H              1 <1>                0.0000
@<TRIPOS>BOND
    1    1    2 1     
    2    1   12 1     
    3    1   13 1     
    4    1   14 1     
    5    2    3 1     
    6    2   22 1     
    7    2   23 1     
    8    3    4 1     
    9    3   15 1     
   10    3   16 1     
   11    4    5 1     
   12    4   11 2     
   13    5    6 2     
   14    5   17 1     
   15    6    7 1     
   16    7    8 1     
   17    7   11 1     
   18    8    9 1     
   19    8   18 1     
   20    8   19 1     
   21    9   10 3     
   22   10   20 1     
   23   11   21 1     
@<TRIPOS>SUBSTRUCTURE
      1 ****           1
@<TRIPOS>SET
DONOR_HYDROGENS      STATIC     ATOMS    <user>   **** ""
2 22 23
ATOM$RED        STATIC     ATOMS    COLORGROUP SYSTEM
2 22 23
@<TRIPOS>COMMENT
> <Gold.Version>
2022.2.0

> <Gold.Id.Protein>
1qkm|1qkm_protein|mol2

> <Gold.Protein.RotatedTorsions>
[  496  491  490  487 ] final  105.37 input  -89.99 | X-H torsion

> <Gold.Protein.ActiveResidues>
 MET295  LEU298  THR299  LEU301  ALA302  GLU305  TRP335  MET336  LEU339  MET340 
 GLY342  LEU343  ARG346  PHE356  ILE373  ILE376  PHE377  LEU380  LYS471  GLY472 
 MET473  HIS475  LEU476  LEU477  ASN478  MET479  VAL484  VAL487 

> <Gold.Protein.RotatedAtoms>
   36.9594   32.9515   41.8259 H   0  0  0  0  0  0  0  0  0  0  0  0  # atno 496  bound_to 491 

> <Gold.Score>
     Score     S(PLP)   S(hbond)     S(cho)   S(metal)  DE(clash)   DE(tors)     intcor
     44.64     -35.85       2.00       1.00       0.00       0.00       0.10       0.00

> <Gold.PLP.Fitness>
44.6368

> <Gold.PLP.PLP>
-35.8505

> <Gold.PLP.part.hbond>
-1.0000

> <Gold.PLP.part.metal>
0.0000

> <Gold.PLP.part.buried>
-2.2117

> <Gold.PLP.part.nonpolar>
-32.9460

> <Gold.PLP.part.repulsive>
0.0669

> <Gold.PLP.ligand.clash>
0.0000

> <Gold.PLP.ligand.torsion>
0.1050

> <Gold.PLP.Chemscore.Hbond>
2.0000

> <Gold.PLP.Chemscore.CHOScore>
0.9987

> <Gold.PLP.Chemscore.Metal>
0.0000

> <Gold.Chemscore.Hbonds>
donor molecule, donor type, donor heavy atom, donor atom, acceptor molecule, acceptor atom, score
      L1  H     2    22       P1   582  2.00
      L1  C     5    17       P1   470  1.00

> <Gold.PLP.Chemscore.Internal.Correction>
0.0001

