#       Name:                EN300-109345_i001
#       Creating user name   aseyller
#       Creation time:       Fri Apr 21 12:23:19 2023


#       File generated by GOLD software.
#

@<TRIPOS>MOLECULE
EN300-109345_i001|amine_1|mol2|39|dock7
    23    23     1
SMALL
USER_CHARGES


@<TRIPOS>ATOM
      1 C1          25.7986  37.1083  41.4876 C.3            1 <1>                0.0000
      2 N2          26.9278  36.2037  41.7416 N.4            1 <1>                1.0000
      3 C3          27.2776  35.4972  40.5021 C.3            1 <1>                0.0000
      4 C4          28.1622  36.3757  39.6556 C.2            1 <1>                0.0000
      5 C5          29.4996  36.6918  39.9162 C.2            1 <1>                0.0000
      6 N6          29.9282  37.4755  38.9601 N.2            1 <1>                0.0000
      7 N7          28.8755  37.6832  38.0597 N.pl3          1 <1>                0.0000
      8 C8          28.9290  38.5004  36.8448 C.3            1 <1>                0.0000
      9 C9          30.0313  38.0339  35.9880 C.1            1 <1>                0.0000
     10 C10         30.9104  37.6621  35.3045 C.1            1 <1>                0.0000
     11 C11         27.8049  36.9936  38.5059 C.2            1 <1>                0.0000
     12 H12         24.9404  36.5308  41.1442 H              1 <1>                0.0000
     13 H13         25.5391  37.6327  42.4073 H              1 <1>                0.0000
     14 H14         26.0784  37.8330  40.7229 H              1 <1>                0.0000
     15 H15         27.8069  34.5760  40.7459 H              1 <1>                0.0000
     16 H16         26.3680  35.2586  39.9508 H              1 <1>                0.0000
     17 H17         30.0785  36.3483  40.7608 H              1 <1>                0.0000
     18 H18         27.9863  38.4109  36.3050 H              1 <1>                0.0000
     19 H19         29.0953  39.5431  37.1154 H              1 <1>                0.0000
     20 H20         31.6967  37.3293  34.6933 H              1 <1>                0.0000
     21 H21         26.8346  36.9483  38.0338 H              1 <1>                0.0000
     22 H22         27.7222  36.7384  42.0595 H              1 <1>                0.0000
     23 H23         26.6689  35.5330  42.4494 H              1 <1>                0.0000
@<TRIPOS>BOND
    1    1    2 1     
    2    1   12 1     
    3    1   13 1     
    4    1   14 1     
    5    2    3 1     
    6    2   22 1     
    7    2   23 1     
    8    3    4 1     
    9    3   15 1     
   10    3   16 1     
   11    4    5 1     
   12    4   11 2     
   13    5    6 2     
   14    5   17 1     
   15    6    7 1     
   16    7    8 1     
   17    7   11 1     
   18    8    9 1     
   19    8   18 1     
   20    8   19 1     
   21    9   10 3     
   22   10   20 1     
   23   11   21 1     
@<TRIPOS>SUBSTRUCTURE
      1 ****           1
@<TRIPOS>SET
DONOR_HYDROGENS      STATIC     ATOMS    <user>   **** ""
2 22 23
ATOM$RED        STATIC     ATOMS    COLORGROUP SYSTEM
2 22 23
@<TRIPOS>COMMENT
> <Gold.Version>
2022.2.0

> <Gold.Id.Protein>
1qkm|1qkm_protein|mol2

> <Gold.Protein.RotatedTorsions>
[  496  491  490  487 ] final -138.32 input  -89.99 | X-H torsion

> <Gold.Protein.ActiveResidues>
 MET295  LEU298  THR299  LEU301  ALA302  GLU305  TRP335  MET336  LEU339  MET340 
 GLY342  LEU343  ARG346  PHE356  ILE373  ILE376  PHE377  LEU380  LYS471  GLY472 
 MET473  HIS475  LEU476  LEU477  ASN478  MET479  VAL484  VAL487 

> <Gold.Protein.RotatedAtoms>
   37.1630   34.0992   40.7264 H   0  0  0  0  0  0  0  0  0  0  0  0  # atno 496  bound_to 491 

> <Gold.Score>
     Score     S(PLP)   S(hbond)     S(cho)   S(metal)  DE(clash)   DE(tors)     intcor
     44.63     -36.16       2.00       1.00       0.00       0.00       0.26       0.00

> <Gold.PLP.Fitness>
44.6296

> <Gold.PLP.PLP>
-36.1595

> <Gold.PLP.part.hbond>
-1.0000

> <Gold.PLP.part.metal>
0.0000

> <Gold.PLP.part.buried>
-2.9100

> <Gold.PLP.part.nonpolar>
-32.5829

> <Gold.PLP.part.repulsive>
0.0762

> <Gold.PLP.ligand.clash>
0.0000

> <Gold.PLP.ligand.torsion>
0.2650

> <Gold.PLP.Chemscore.Hbond>
2.0000

> <Gold.PLP.Chemscore.CHOScore>
1.0000

> <Gold.PLP.Chemscore.Metal>
0.0000

> <Gold.Chemscore.Hbonds>
donor molecule, donor type, donor heavy atom, donor atom, acceptor molecule, acceptor atom, score
      L1  H     2    23       P1   582  2.00
      L1  C     5    17       P1   470  1.00

> <Gold.PLP.Chemscore.Internal.Correction>
0.0001

