#       Name:                EN300-109345_i001
#       Creating user name   aseyller
#       Creation time:       Fri Apr 21 12:23:17 2023


#       File generated by GOLD software.
#

@<TRIPOS>MOLECULE
EN300-109345_i001|amine_1|mol2|39|dock3
    23    23     1
SMALL
USER_CHARGES


@<TRIPOS>ATOM
      1 C1          25.8044  36.7327  41.1315 C.3            1 <1>                0.0000
      2 N2          26.7667  35.6429  41.3421 N.4            1 <1>                1.0000
      3 C3          28.1178  36.2025  41.4798 C.3            1 <1>                0.0000
      4 C4          28.6830  36.4927  40.1133 C.2            1 <1>                0.0000
      5 C5          27.9912  37.0658  39.0413 C.2            1 <1>                0.0000
      6 N6          28.8130  37.1592  38.0276 N.2            1 <1>                0.0000
      7 N7          30.0557  36.6478  38.4230 N.pl3          1 <1>                0.0000
      8 C8          31.2580  36.5643  37.5900 C.3            1 <1>                0.0000
      9 C9          31.0241  37.2688  36.3189 C.1            1 <1>                0.0000
     10 C10         30.8377  37.8307  35.3051 C.1            1 <1>                0.0000
     11 C11         29.9513  36.2503  39.7084 C.2            1 <1>                0.0000
     12 H12         26.0659  37.2781  40.2247 H              1 <1>                0.0000
     13 H13         24.8018  36.3175  41.0293 H              1 <1>                0.0000
     14 H14         25.8315  37.4112  41.9841 H              1 <1>                0.0000
     15 H15         28.0716  37.1257  42.0574 H              1 <1>                0.0000
     16 H16         28.7579  35.4846  41.9928 H              1 <1>                0.0000
     17 H17         26.9571  37.3772  39.0490 H              1 <1>                0.0000
     18 H18         32.0951  37.0268  38.1130 H              1 <1>                0.0000
     19 H19         31.4886  35.5182  37.3887 H              1 <1>                0.0000
     20 H20         30.6709  38.3332  34.3984 H              1 <1>                0.0000
     21 H21         30.7372  35.8112  40.3050 H              1 <1>                0.0000
     22 H22         26.5246  35.1380  42.1815 H              1 <1>                0.0000
     23 H23         26.7416  35.0148  40.5529 H              1 <1>                0.0000
@<TRIPOS>BOND
    1    1    2 1     
    2    1   12 1     
    3    1   13 1     
    4    1   14 1     
    5    2    3 1     
    6    2   22 1     
    7    2   23 1     
    8    3    4 1     
    9    3   15 1     
   10    3   16 1     
   11    4    5 1     
   12    4   11 2     
   13    5    6 2     
   14    5   17 1     
   15    6    7 1     
   16    7    8 1     
   17    7   11 1     
   18    8    9 1     
   19    8   18 1     
   20    8   19 1     
   21    9   10 3     
   22   10   20 1     
   23   11   21 1     
@<TRIPOS>SUBSTRUCTURE
      1 ****           1
@<TRIPOS>SET
DONOR_HYDROGENS      STATIC     ATOMS    <user>   **** ""
2 22 23
ATOM$RED        STATIC     ATOMS    COLORGROUP SYSTEM
2 22 23
@<TRIPOS>COMMENT
> <Gold.Version>
2022.2.0

> <Gold.Id.Protein>
1qkm|1qkm_protein|mol2

> <Gold.Protein.RotatedTorsions>
[  496  491  490  487 ] final -130.74 input  -89.99 | X-H torsion

> <Gold.Protein.ActiveResidues>
 MET295  LEU298  THR299  LEU301  ALA302  GLU305  TRP335  MET336  LEU339  MET340 
 GLY342  LEU343  ARG346  PHE356  ILE373  ILE376  PHE377  LEU380  LYS471  GLY472 
 MET473  HIS475  LEU476  LEU477  ASN478  MET479  VAL484  VAL487 

> <Gold.Protein.RotatedAtoms>
   37.1102   34.2103   40.7471 H   0  0  0  0  0  0  0  0  0  0  0  0  # atno 496  bound_to 491 

> <Gold.Score>
     Score     S(PLP)   S(hbond)     S(cho)   S(metal)  DE(clash)   DE(tors)     intcor
     44.94     -36.75       2.00       1.00       0.00       0.00       0.41       0.00

> <Gold.PLP.Fitness>
44.9363

> <Gold.PLP.PLP>
-36.7484

> <Gold.PLP.part.hbond>
-1.0000

> <Gold.PLP.part.metal>
0.0000

> <Gold.PLP.part.buried>
-2.9462

> <Gold.PLP.part.nonpolar>
-33.0953

> <Gold.PLP.part.repulsive>
0.0290

> <Gold.PLP.ligand.clash>
0.0000

> <Gold.PLP.ligand.torsion>
0.4083

> <Gold.PLP.Chemscore.Hbond>
2.0000

> <Gold.PLP.Chemscore.CHOScore>
1.0000

> <Gold.PLP.Chemscore.Metal>
0.0000

> <Gold.Chemscore.Hbonds>
donor molecule, donor type, donor heavy atom, donor atom, acceptor molecule, acceptor atom, score
      L1  H     2    22       P1   582  2.00
      L1  C    11    21       P1   470  1.00

> <Gold.PLP.Chemscore.Internal.Correction>
0.0045

