#       Name:                EN300-109345_i001
#       Creating user name   aseyller
#       Creation time:       Fri Apr 21 12:23:27 2023


#       File generated by GOLD software.
#

@<TRIPOS>MOLECULE
EN300-109345_i001|amine_1|mol2|39|dock19
    23    23     1
SMALL
USER_CHARGES


@<TRIPOS>ATOM
      1 C1          28.4985  35.8110  42.1485 C.3            1 <1>                0.0000
      2 N2          29.3948  36.5509  41.2500 N.4            1 <1>                1.0000
      3 C3          28.7748  36.6626  39.9230 C.3            1 <1>                0.0000
      4 C4          29.8500  36.7012  38.8678 C.2            1 <1>                0.0000
      5 C5          29.9112  37.5873  37.7873 C.2            1 <1>                0.0000
      6 N6          30.9865  37.3131  37.0942 N.2            1 <1>                0.0000
      7 N7          31.6445  36.2422  37.7126 N.pl3          1 <1>                0.0000
      8 C8          32.8912  35.6197  37.2605 C.3            1 <1>                0.0000
      9 C9          33.2852  36.1955  35.9643 C.1            1 <1>                0.0000
     10 C10         33.5993  36.6548  34.9306 C.1            1 <1>                0.0000
     11 C11         30.9300  35.8886  38.8015 C.2            1 <1>                0.0000
     12 H12         28.3216  34.8140  41.7451 H              1 <1>                0.0000
     13 H13         28.9586  35.7282  43.1332 H              1 <1>                0.0000
     14 H14         27.5504  36.3420  42.2340 H              1 <1>                0.0000
     15 H15         28.1276  35.8026  39.7508 H              1 <1>                0.0000
     16 H16         28.1842  37.5774  39.8737 H              1 <1>                0.0000
     17 H17         29.1945  38.3637  37.5636 H              1 <1>                0.0000
     18 H18         33.6763  35.8044  37.9938 H              1 <1>                0.0000
     19 H19         32.7420  34.5456  37.1507 H              1 <1>                0.0000
     20 H20         33.8803  37.0655  34.0060 H              1 <1>                0.0000
     21 H21         31.1730  35.0949  39.4924 H              1 <1>                0.0000
     22 H22         29.5586  37.4738  41.6234 H              1 <1>                0.0000
     23 H23         30.2724  36.0595  41.1709 H              1 <1>                0.0000
@<TRIPOS>BOND
    1    1    2 1     
    2    1   12 1     
    3    1   13 1     
    4    1   14 1     
    5    2    3 1     
    6    2   22 1     
    7    2   23 1     
    8    3    4 1     
    9    3   15 1     
   10    3   16 1     
   11    4    5 1     
   12    4   11 2     
   13    5    6 2     
   14    5   17 1     
   15    6    7 1     
   16    7    8 1     
   17    7   11 1     
   18    8    9 1     
   19    8   18 1     
   20    8   19 1     
   21    9   10 3     
   22   10   20 1     
   23   11   21 1     
@<TRIPOS>SUBSTRUCTURE
      1 ****           1
@<TRIPOS>SET
DONOR_HYDROGENS      STATIC     ATOMS    <user>   **** ""
2 22 23
ATOM$RED        STATIC     ATOMS    COLORGROUP SYSTEM
2 22 23
@<TRIPOS>COMMENT
> <Gold.Version>
2022.2.0

> <Gold.Id.Protein>
1qkm|1qkm_protein|mol2

> <Gold.Protein.RotatedTorsions>
[  496  491  490  487 ] final -106.89 input  -89.99 | X-H torsion

> <Gold.Protein.ActiveResidues>
 MET295  LEU298  THR299  LEU301  ALA302  GLU305  TRP335  MET336  LEU339  MET340 
 GLY342  LEU343  ARG346  PHE356  ILE373  ILE376  PHE377  LEU380  LYS471  GLY472 
 MET473  HIS475  LEU476  LEU477  ASN478  MET479  VAL484  VAL487 

> <Gold.Protein.RotatedAtoms>
   36.9124   34.5089   40.9008 H   0  0  0  0  0  0  0  0  0  0  0  0  # atno 496  bound_to 491 

> <Gold.Score>
     Score     S(PLP)   S(hbond)     S(cho)   S(metal)  DE(clash)   DE(tors)     intcor
     44.11     -40.19       0.98       0.60       0.00       0.00       0.40       0.00

> <Gold.PLP.Fitness>
44.1131

> <Gold.PLP.PLP>
-40.1919

> <Gold.PLP.part.hbond>
-1.0000

> <Gold.PLP.part.metal>
0.0000

> <Gold.PLP.part.buried>
-2.6787

> <Gold.PLP.part.nonpolar>
-36.4255

> <Gold.PLP.part.repulsive>
0.0485

> <Gold.PLP.ligand.clash>
0.0000

> <Gold.PLP.ligand.torsion>
0.4034

> <Gold.PLP.Chemscore.Hbond>
0.9760

> <Gold.PLP.Chemscore.CHOScore>
0.5999

> <Gold.PLP.Chemscore.Metal>
0.0000

> <Gold.Chemscore.Hbonds>
donor molecule, donor type, donor heavy atom, donor atom, acceptor molecule, acceptor atom, score
      L1  H     2    23       P1   470  0.98
      L1  C    11    21       P1   470  0.60

> <Gold.PLP.Chemscore.Internal.Correction>
0.0001

