#       Name:                EN300-109345_i001
#       Creating user name   aseyller
#       Creation time:       Fri Apr 21 12:23:21 2023


#       File generated by GOLD software.
#

@<TRIPOS>MOLECULE
EN300-109345_i001|amine_1|mol2|39|dock10
    23    23     1
SMALL
USER_CHARGES


@<TRIPOS>ATOM
      1 C1          28.7641  36.6364  42.3800 C.3            1 <1>                0.0000
      2 N2          27.7833  35.7700  41.7127 N.4            1 <1>                1.0000
      3 C3          27.3168  36.4176  40.4795 C.3            1 <1>                0.0000
      4 C4          28.4576  36.5121  39.4993 C.2            1 <1>                0.0000
      5 C5          28.4771  37.2806  38.3308 C.2            1 <1>                0.0000
      6 N6          29.6339  37.1049  37.7454 N.2            1 <1>                0.0000
      7 N7          30.3882  36.2178  38.5239 N.pl3          1 <1>                0.0000
      8 C8          31.7452  35.7512  38.2284 C.3            1 <1>                0.0000
      9 C9          31.7716  34.2795  38.2412 C.1            1 <1>                0.0000
     10 C10         31.7925  33.1058  38.2514 C.1            1 <1>                0.0000
     11 C11         29.6463  35.8729  39.5971 C.2            1 <1>                0.0000
     12 H12         28.2986  37.5910  42.6248 H              1 <1>                0.0000
     13 H13         29.1103  36.1558  43.2951 H              1 <1>                0.0000
     14 H14         29.6115  36.8051  41.7154 H              1 <1>                0.0000
     15 H15         26.5103  35.8289  40.0426 H              1 <1>                0.0000
     16 H16         26.9522  37.4186  40.7103 H              1 <1>                0.0000
     17 H17         27.6755  37.9101  37.9734 H              1 <1>                0.0000
     18 H18         32.0471  36.1114  37.2449 H              1 <1>                0.0000
     19 H19         32.4331  36.1336  38.9823 H              1 <1>                0.0000
     20 H20         31.8114  32.0559  38.2606 H              1 <1>                0.0000
     21 H21         29.9451  35.2017  40.3887 H              1 <1>                0.0000
     22 H22         28.2143  34.8862  41.4862 H              1 <1>                0.0000
     23 H23         26.9991  35.6137  42.3279 H              1 <1>                0.0000
@<TRIPOS>BOND
    1    1    2 1     
    2    1   12 1     
    3    1   13 1     
    4    1   14 1     
    5    2    3 1     
    6    2   22 1     
    7    2   23 1     
    8    3    4 1     
    9    3   15 1     
   10    3   16 1     
   11    4    5 1     
   12    4   11 2     
   13    5    6 2     
   14    5   17 1     
   15    6    7 1     
   16    7    8 1     
   17    7   11 1     
   18    8    9 1     
   19    8   18 1     
   20    8   19 1     
   21    9   10 3     
   22   10   20 1     
   23   11   21 1     
@<TRIPOS>SUBSTRUCTURE
      1 ****           1
@<TRIPOS>SET
DONOR_HYDROGENS      STATIC     ATOMS    <user>   **** ""
2 22 23
ATOM$RED        STATIC     ATOMS    COLORGROUP SYSTEM
2 22 23
@<TRIPOS>COMMENT
> <Gold.Version>
2022.2.0

> <Gold.Id.Protein>
1qkm|1qkm_protein|mol2

> <Gold.Protein.RotatedTorsions>
[  496  491  490  487 ] final  154.34 input  -89.99 | X-H torsion

> <Gold.Protein.ActiveResidues>
 MET295  LEU298  THR299  LEU301  ALA302  GLU305  TRP335  MET336  LEU339  MET340 
 GLY342  LEU343  ARG346  PHE356  ILE373  ILE376  PHE377  LEU380  LYS471  GLY472 
 MET473  HIS475  LEU476  LEU477  ASN478  MET479  VAL484  VAL487 

> <Gold.Protein.RotatedAtoms>
   37.2793   33.1456   41.1395 H   0  0  0  0  0  0  0  0  0  0  0  0  # atno 496  bound_to 491 

> <Gold.Score>
     Score     S(PLP)   S(hbond)     S(cho)   S(metal)  DE(clash)   DE(tors)     intcor
     47.11     -38.50       2.00       1.00       0.00       0.00       0.19       0.00

> <Gold.PLP.Fitness>
47.1135

> <Gold.PLP.PLP>
-38.4999

> <Gold.PLP.part.hbond>
-1.0000

> <Gold.PLP.part.metal>
0.0000

> <Gold.PLP.part.buried>
-3.7838

> <Gold.PLP.part.nonpolar>
-33.7469

> <Gold.PLP.part.repulsive>
0.0542

> <Gold.PLP.ligand.clash>
0.0000

> <Gold.PLP.ligand.torsion>
0.1933

> <Gold.PLP.Chemscore.Hbond>
2.0000

> <Gold.PLP.Chemscore.CHOScore>
1.0000

> <Gold.PLP.Chemscore.Metal>
0.0000

> <Gold.Chemscore.Hbonds>
donor molecule, donor type, donor heavy atom, donor atom, acceptor molecule, acceptor atom, score
      L1  H     2    23       P1   582  2.00
      L1  C    11    21       P1   470  1.00

> <Gold.PLP.Chemscore.Internal.Correction>
0.0001

